# generated using pymatgen
data_H20C37N8
_symmetry_space_group_name_H-M   'P 1'
_cell_length_a   31.89510000
_cell_length_b   69.13790000
_cell_length_c   69.13830000
_cell_angle_alpha   89.99970000
_cell_angle_beta   90.00000000
_cell_angle_gamma   89.99670000
_symmetry_Int_Tables_number   1
_chemical_formula_structural   H20C37N8
_chemical_formula_sum   'H640 C1184 N256'
_cell_volume   152461.02957144
_cell_formula_units_Z   32
loop_
 _symmetry_equiv_pos_site_id
 _symmetry_equiv_pos_as_xyz
  1  'x, y, z'
loop_
 _atom_site_type_symbol
 _atom_site_label
 _atom_site_symmetry_multiplicity
 _atom_site_fract_x
 _atom_site_fract_y
 _atom_site_fract_z
 _atom_site_occupancy
  H  25  1  0.99443500  0.73371200  0.04507300  1
  H  26  1  0.99807200  0.75371200  0.07296500  1
  H  27  1  0.99845400  0.76917500  0.10419800  1
  H  28  1  0.99835100  0.77912200  0.13724600  1
  H  29  1  0.99837300  0.72046100  0.15544300  1
  H  30  1  0.99660400  0.68328500  0.08001600  1
  H  31  1  0.90858100  0.70858300  0.11439900  1
  H  32  1  0.88535800  0.65422100  0.14053200  1
  H  33  1  0.95957400  0.64854400  0.14328100  1
  H  34  1  0.08828400  0.70858000  0.11440700  1
  H  35  1  0.03723300  0.64853800  0.14329000  1
  H  36  1  0.11144800  0.65420600  0.14054000  1
  H  66  1  0.99435900  0.28636500  0.93486100  1
  H  67  1  0.99801500  0.26632700  0.90698600  1
  H  68  1  0.99837300  0.25093500  0.87569000  1
  H  69  1  0.99826300  0.24101200  0.84264500  1
  H  70  1  0.99828200  0.29969800  0.82446800  1
  H  71  1  0.99652600  0.33673600  0.89986200  1
  H  72  1  0.90848100  0.31149900  0.86551000  1
  H  73  1  0.88527400  0.36587000  0.83938400  1
  H  74  1  0.95948300  0.37155000  0.83663500  1
  H  75  1  0.08813300  0.31150600  0.86552200  1
  H  76  1  0.03717200  0.37155100  0.83662300  1
  H  77  1  0.11139900  0.36585500  0.83937600  1
  H  107  1  0.99440000  0.95496900  0.71363000  1
  H  108  1  0.99806500  0.92710800  0.73368500  1
  H  109  1  0.99841200  0.89578100  0.74913500  1
  H  110  1  0.99831000  0.86268400  0.75898200  1
  H  111  1  0.99832900  0.84462300  0.70027800  1
  H  112  1  0.99657900  0.91994300  0.66327400  1
  H  113  1  0.90850900  0.88560600  0.68850700  1
  H  114  1  0.88534000  0.85947900  0.63413100  1
  H  115  1  0.95954500  0.85672700  0.62846400  1
  H  116  1  0.08823000  0.88560400  0.68849700  1
  H  117  1  0.03717500  0.85672100  0.62846100  1
  H  118  1  0.11138200  0.85946700  0.63412900  1
  H  148  1  0.99431900  0.06512800  0.26628000  1
  H  149  1  0.99797100  0.09299400  0.24623000  1
  H  150  1  0.99832900  0.12433300  0.23078500  1
  H  151  1  0.99821300  0.15741400  0.22091900  1
  H  152  1  0.99823800  0.17549000  0.27962500  1
  H  153  1  0.99648800  0.10014600  0.31663900  1
  H  154  1  0.90842800  0.13448300  0.29140300  1
  H  155  1  0.88523600  0.16061200  0.34577900  1
  H  156  1  0.95944200  0.16336100  0.35145100  1
  H  157  1  0.08811100  0.13447900  0.29141500  1
  H  158  1  0.03710600  0.16337300  0.35145300  1
  H  159  1  0.11132600  0.16062300  0.34577100  1
  H  189  1  0.99924300  0.73341700  0.93561800  1
  H  190  1  0.99776100  0.75322500  0.90757900  1
  H  191  1  0.99829400  0.76804900  0.87692100  1
  H  192  1  0.99841000  0.77820700  0.84561700  1
  H  193  1  0.99839800  0.71999100  0.82499800  1
  H  194  1  0.00084300  0.68288500  0.90071600  1
  H  195  1  0.08812100  0.70850200  0.86563700  1
  H  196  1  0.11148300  0.65422600  0.83932500  1
  H  197  1  0.03729400  0.64850900  0.83655900  1
  H  198  1  0.90855300  0.70849300  0.86559800  1
  H  199  1  0.95945800  0.64849200  0.83656500  1
  H  200  1  0.88525500  0.65421000  0.83931600  1
  H  230  1  0.99915800  0.28666500  0.04429100  1
  H  231  1  0.99767300  0.26685800  0.07233600  1
  H  232  1  0.99820300  0.25203700  0.10299500  1
  H  233  1  0.99831900  0.24187900  0.13429900  1
  H  234  1  0.99831600  0.30009700  0.15491600  1
  H  235  1  0.00076300  0.33719600  0.07919100  1
  H  236  1  0.08805700  0.31158800  0.11427800  1
  H  237  1  0.11139500  0.36587200  0.14057500  1
  H  238  1  0.03720100  0.37158100  0.14334800  1
  H  239  1  0.90848700  0.31159400  0.11430600  1
  H  240  1  0.95936700  0.37159300  0.14335200  1
  H  241  1  0.88517300  0.36587900  0.14059300  1
  H  271  1  0.99928900  0.95569900  0.26659200  1
  H  272  1  0.99784000  0.92766600  0.24678000  1
  H  273  1  0.99833500  0.89699800  0.23194600  1
  H  274  1  0.99845000  0.86568200  0.22179100  1
  H  275  1  0.99844000  0.84508100  0.28001000  1
  H  276  1  0.00089300  0.92078700  0.31712000  1
  H  277  1  0.08817600  0.88571800  0.29149900  1
  H  278  1  0.11152200  0.85941500  0.34578000  1
  H  279  1  0.03733200  0.85664700  0.35149200  1
  H  280  1  0.90858800  0.88567800  0.29150500  1
  H  281  1  0.95950800  0.85665000  0.35151100  1
  H  282  1  0.88530800  0.85940300  0.34580000  1
  H  312  1  0.99923500  0.06438600  0.71332700  1
  H  313  1  0.99776100  0.09242400  0.73313900  1
  H  314  1  0.99824700  0.12308600  0.74796600  1
  H  315  1  0.99836300  0.15439400  0.75812400  1
  H  316  1  0.99835400  0.17500700  0.69990400  1
  H  317  1  0.00082700  0.09929300  0.66280600  1
  H  318  1  0.08809200  0.13437000  0.68841600  1
  H  319  1  0.11143300  0.16067900  0.63413900  1
  H  320  1  0.03724400  0.16344700  0.62842600  1
  H  321  1  0.90850300  0.13440200  0.68840400  1
  H  322  1  0.95942000  0.16343800  0.62840400  1
  H  323  1  0.88521400  0.16067500  0.63411000  1
  H  353  1  0.49434200  0.23372200  0.54501600  1
  H  354  1  0.49798200  0.25380600  0.57286000  1
  H  355  1  0.49836500  0.26925900  0.60421700  1
  H  356  1  0.49827700  0.27913400  0.63727500  1
  H  357  1  0.49829300  0.22043500  0.65540600  1
  H  358  1  0.49652400  0.18340200  0.58008900  1
  H  359  1  0.40729800  0.20945500  0.61519500  1
  H  360  1  0.38557000  0.15462300  0.64054600  1
  H  361  1  0.45913300  0.14904100  0.64277200  1
  H  362  1  0.58942000  0.20944300  0.61518100  1
  H  363  1  0.53749900  0.14902300  0.64275600  1
  H  364  1  0.61108100  0.15459500  0.64056100  1
  H  394  1  0.49443600  0.78636300  0.43490500  1
  H  395  1  0.49809500  0.76628000  0.40705900  1
  H  396  1  0.49844300  0.75082100  0.37569200  1
  H  397  1  0.49836200  0.74096000  0.34262000  1
  H  398  1  0.49838700  0.79966500  0.32452400  1
  H  399  1  0.49661500  0.83668600  0.39983400  1
  H  400  1  0.40735100  0.81063400  0.36472800  1
  H  401  1  0.38564500  0.86547700  0.33935500  1
  H  402  1  0.45923000  0.87106500  0.33717400  1
  H  403  1  0.58948200  0.81064500  0.36472500  1
  H  404  1  0.53757800  0.87106200  0.33715800  1
  H  405  1  0.61115600  0.86548100  0.33935800  1
  H  435  1  0.49431100  0.45499500  0.21363300  1
  H  436  1  0.49797900  0.42715200  0.23372100  1
  H  437  1  0.49832700  0.39576300  0.24918900  1
  H  438  1  0.49821700  0.36267500  0.25902500  1
  H  439  1  0.49824300  0.34463200  0.20030800  1
  H  440  1  0.49649600  0.41992000  0.16331300  1
  H  441  1  0.40721900  0.38482600  0.18936000  1
  H  442  1  0.38552600  0.35945300  0.13451600  1
  H  443  1  0.45910800  0.35726200  0.12893200  1
  H  444  1  0.58934700  0.38481400  0.18935100  1
  H  445  1  0.53745200  0.35724700  0.12893600  1
  H  446  1  0.61103100  0.35944500  0.13451600  1
  H  476  1  0.49439600  0.56508800  0.76628100  1
  H  477  1  0.49805100  0.59292900  0.74619000  1
  H  478  1  0.49840600  0.62433900  0.73071200  1
  H  479  1  0.49831800  0.65744100  0.72090100  1
  H  480  1  0.49833300  0.67543800  0.77963000  1
  H  481  1  0.49658100  0.60016300  0.81660000  1
  H  482  1  0.40733200  0.63526800  0.79053200  1
  H  483  1  0.38560500  0.66062600  0.84538200  1
  H  484  1  0.45915800  0.66285000  0.85096000  1
  H  485  1  0.58943800  0.63527100  0.79056500  1
  H  486  1  0.53752800  0.66284500  0.85097400  1
  H  487  1  0.61110600  0.66064300  0.84539700  1
  H  517  1  0.49916100  0.23342200  0.43565200  1
  H  518  1  0.49767500  0.25326800  0.40763300  1
  H  519  1  0.49820800  0.26812400  0.37691800  1
  H  520  1  0.49832400  0.27824100  0.34559800  1
  H  521  1  0.49831500  0.22000200  0.32503800  1
  H  522  1  0.50075700  0.18292900  0.40069100  1
  H  523  1  0.58923500  0.20936000  0.36484100  1
  H  524  1  0.61112200  0.15461300  0.33929800  1
  H  525  1  0.53756200  0.14899600  0.33706600  1
  H  526  1  0.40730100  0.20936800  0.36480800  1
  H  527  1  0.45898600  0.14899300  0.33705800  1
  H  528  1  0.38544500  0.15461300  0.33930400  1
  H  558  1  0.49925200  0.78666100  0.54425800  1
  H  559  1  0.49775700  0.76681500  0.57228100  1
  H  560  1  0.49829000  0.75196400  0.60299500  1
  H  561  1  0.49840600  0.74184600  0.63431200  1
  H  562  1  0.49839900  0.80008300  0.65487700  1
  H  563  1  0.50087600  0.83715100  0.57921600  1
  H  564  1  0.58933200  0.81072400  0.61506500  1
  H  565  1  0.61119700  0.86548000  0.64060200  1
  H  566  1  0.53764700  0.87109300  0.64284100  1
  H  567  1  0.40738200  0.81073300  0.61510800  1
  H  568  1  0.45908600  0.87109700  0.64286000  1
  H  569  1  0.38552900  0.86548400  0.64061900  1
  H  599  1  0.49921500  0.45573700  0.76658800  1
  H  600  1  0.49774700  0.42772600  0.74673600  1
  H  601  1  0.49824900  0.39700700  0.73187500  1
  H  602  1  0.49836500  0.36568400  0.72175800  1
  H  603  1  0.49835500  0.34512800  0.77999600  1
  H  604  1  0.50082900  0.42076600  0.81707700  1
  H  605  1  0.58928800  0.38493300  0.79064300  1
  H  606  1  0.61115600  0.35939000  0.84539400  1
  H  607  1  0.53759700  0.35716200  0.85100600  1
  H  608  1  0.40729800  0.38491100  0.79064700  1
  H  609  1  0.45906100  0.35717900  0.85102900  1
  H  610  1  0.38549800  0.35938000  0.84541300  1
  H  640  1  0.49931500  0.56434500  0.21333100  1
  H  641  1  0.49785400  0.59236200  0.23318200  1
  H  642  1  0.49833300  0.62308100  0.24803800  1
  H  643  1  0.49845300  0.65440200  0.25815500  1
  H  644  1  0.49843700  0.67496000  0.19991700  1
  H  645  1  0.50088900  0.59930900  0.16285000  1
  H  646  1  0.58936900  0.63515000  0.18927800  1
  H  647  1  0.61123500  0.66070000  0.13452800  1
  H  648  1  0.53769100  0.66293300  0.12891500  1
  H  649  1  0.40737300  0.63517100  0.18925600  1
  H  650  1  0.45915500  0.66290800  0.12888100  1
  H  651  1  0.38557000  0.66070100  0.13449400  1
  H  663  1  0.99840400  0.79656400  0.17092400  1
  H  665  1  0.99839800  0.76294300  0.22217500  1
  H  666  1  0.99840100  0.83731900  0.21612300  1
  H  668  1  0.99852000  0.74617400  0.19132600  1
  H  675  1  0.99831600  0.22352300  0.80899100  1
  H  677  1  0.99831000  0.25713400  0.75773700  1
  H  678  1  0.99831900  0.18275200  0.76380200  1
  H  680  1  0.99847800  0.27391100  0.78858200  1
  H  687  1  0.99835700  0.82910200  0.77646300  1
  H  689  1  0.99835100  0.77781200  0.74291000  1
  H  690  1  0.99835700  0.78389800  0.81726700  1
  H  692  1  0.99848100  0.80856500  0.72609600  1
  H  699  1  0.99826600  0.19099400  0.20344600  1
  H  701  1  0.99825700  0.24227400  0.23701700  1
  H  702  1  0.99827900  0.23619200  0.16265300  1
  H  704  1  0.99851400  0.21149400  0.25382000  1
  H  711  1  0.49832100  0.29657400  0.67092800  1
  H  713  1  0.49832100  0.26294400  0.72217100  1
  H  714  1  0.49830800  0.33732700  0.71610800  1
  H  716  1  0.49834300  0.24617800  0.69129800  1
  H  723  1  0.49841200  0.72351800  0.30899200  1
  H  725  1  0.49841200  0.75713200  0.25774000  1
  H  726  1  0.49839000  0.68275700  0.26380800  1
  H  728  1  0.49836500  0.77390800  0.28858500  1
  H  735  1  0.49827100  0.32908900  0.27647000  1
  H  737  1  0.49826100  0.27781900  0.24288200  1
  H  738  1  0.49827400  0.28389800  0.31724600  1
  H  740  1  0.49845300  0.30862400  0.22608900  1
  H  747  1  0.49835900  0.69098900  0.70344900  1
  H  749  1  0.49835900  0.74227300  0.73701500  1
  H  750  1  0.49835200  0.73618500  0.66266100  1
  H  752  1  0.49841800  0.71150500  0.75382400  1
  H  759  1  0.80987300  0.64762300  0.13399600  1
  H  761  1  0.73882200  0.69826000  0.14332500  1
  H  762  1  0.67860600  0.62871300  0.15406000  1
  H  764  1  0.80335200  0.70143800  0.12659800  1
  H  771  1  0.80978300  0.37246000  0.84591300  1
  H  773  1  0.73873700  0.32182700  0.83658600  1
  H  774  1  0.67870900  0.39136100  0.82588700  1
  H  776  1  0.80334000  0.31858900  0.85332300  1
  H  783  1  0.80983000  0.86600700  0.62754400  1
  H  785  1  0.73878100  0.85667800  0.67817900  1
  H  786  1  0.67856500  0.84594400  0.60863000  1
  H  788  1  0.80338000  0.87341600  0.68140600  1
  H  795  1  0.80974200  0.15407500  0.35237800  1
  H  797  1  0.73870000  0.16340900  0.30174000  1
  H  798  1  0.67872800  0.17410100  0.37126100  1
  H  800  1  0.80332700  0.14669200  0.29851300  1
  H  807  1  0.18689100  0.64763000  0.84592500  1
  H  809  1  0.25794900  0.69826200  0.83659400  1
  H  810  1  0.31820900  0.62870500  0.82584300  1
  H  812  1  0.19333300  0.70149400  0.85332100  1
  H  819  1  0.18682000  0.37246500  0.13398500  1
  H  821  1  0.25787700  0.32183300  0.14332400  1
  H  822  1  0.31785800  0.39135800  0.15399700  1
  H  824  1  0.19324000  0.31858900  0.12660400  1
  H  831  1  0.18694300  0.86601700  0.35237500  1
  H  833  1  0.25800600  0.85667500  0.30174800  1
  H  834  1  0.31800200  0.84600200  0.37126800  1
  H  836  1  0.19336800  0.87340200  0.29850400  1
  H  843  1  0.18686300  0.15407600  0.62753600  1
  H  845  1  0.25790600  0.16341000  0.67817200  1
  H  846  1  0.31784800  0.17410500  0.60864500  1
  H  848  1  0.19327000  0.14669200  0.68141400  1
  H  855  1  0.18683200  0.37246700  0.84590700  1
  H  857  1  0.25788800  0.32183300  0.83657400  1
  H  858  1  0.31814300  0.39137200  0.82585200  1
  H  860  1  0.19340100  0.31860800  0.85332600  1
  H  867  1  0.18693700  0.64762600  0.13400500  1
  H  869  1  0.25797200  0.69826200  0.14333700  1
  H  870  1  0.31803000  0.62872900  0.15402900  1
  H  872  1  0.19334300  0.70150200  0.12661400  1
  H  879  1  0.18678400  0.15408700  0.35237200  1
  H  881  1  0.25783200  0.16341800  0.30173400  1
  H  882  1  0.31808300  0.17417600  0.37128000  1
  H  884  1  0.19330900  0.14667500  0.29851000  1
  H  891  1  0.18688200  0.86599600  0.62754500  1
  H  893  1  0.25793700  0.85666400  0.67818000  1
  H  894  1  0.31787600  0.84596600  0.60865400  1
  H  896  1  0.19332800  0.87339700  0.68141600  1
  H  903  1  0.80975700  0.37245800  0.13399700  1
  H  905  1  0.73869000  0.32183000  0.14333500  1
  H  906  1  0.67872200  0.39135500  0.15401500  1
  H  908  1  0.80331100  0.31859300  0.12660400  1
  H  915  1  0.80983900  0.64762300  0.84591800  1
  H  917  1  0.73878400  0.69825900  0.83657900  1
  H  918  1  0.67882500  0.62873300  0.82589500  1
  H  920  1  0.80341500  0.70150000  0.85330100  1
  H  927  1  0.80980100  0.15408500  0.62754500  1
  H  929  1  0.73875000  0.16342100  0.67817800  1
  H  930  1  0.67851500  0.17415200  0.60862500  1
  H  932  1  0.80337700  0.14669000  0.68141800  1
  H  939  1  0.80988300  0.86600200  0.35237300  1
  H  941  1  0.73883400  0.85666400  0.30173900  1
  H  942  1  0.67886900  0.84598000  0.37126500  1
  H  944  1  0.80346800  0.87338900  0.29849200  1
  H  951  1  0.94990100  0.68128700  0.01172400  1
  H  953  1  0.05757000  0.71434100  0.99890600  1
  H  954  1  0.95264100  0.68876100  0.94635800  1
  H  956  1  0.04238800  0.70805600  0.03130300  1
  H  963  1  0.94982000  0.33881100  0.96819000  1
  H  965  1  0.05748500  0.30574400  0.98101100  1
  H  966  1  0.95252500  0.33133300  0.03347500  1
  H  968  1  0.04232500  0.31203500  0.94859500  1
  H  975  1  0.94985100  0.98827600  0.66120300  1
  H  977  1  0.05752100  0.00109900  0.69425500  1
  H  978  1  0.95257200  0.05353900  0.66867600  1
  H  980  1  0.04233200  0.96869800  0.68798000  1
  H  987  1  0.94977000  0.03180900  0.31872300  1
  H  989  1  0.05744100  0.01900200  0.28565600  1
  H  990  1  0.95257600  0.96641400  0.31121200  1
  H  992  1  0.04229300  0.05142700  0.29196200  1
  H  999  1  0.44981800  0.18128800  0.51172200  1
  H  1001  1  0.55748400  0.21434300  0.49890200  1
  H  1002  1  0.45255500  0.18876800  0.44635700  1
  H  1004  1  0.54229900  0.20806000  0.53129700  1
  H  1011  1  0.44990600  0.83880900  0.46819300  1
  H  1013  1  0.55757100  0.80574200  0.48101500  1
  H  1014  1  0.45260900  0.83132700  0.53347600  1
  H  1016  1  0.54241500  0.81203500  0.44860200  1
  H  1023  1  0.44976200  0.48828200  0.16120100  1
  H  1025  1  0.55743700  0.50109700  0.19425200  1
  H  1026  1  0.45254000  0.55355700  0.16869000  1
  H  1028  1  0.54224600  0.46870300  0.18797500  1
  H  1035  1  0.44985900  0.53181200  0.81872600  1
  H  1037  1  0.55752800  0.51899500  0.78565900  1
  H  1038  1  0.45260900  0.46643100  0.81122700  1
  H  1040  1  0.54238700  0.55142000  0.79196500  1
  H  1065  1  0.24525700  0.48782700  0.29095700  1
  H  1066  1  0.24889400  0.50782700  0.31884900  1
  H  1067  1  0.24927600  0.52329000  0.35008200  1
  H  1068  1  0.24917300  0.53323700  0.38313000  1
  H  1069  1  0.24919500  0.47457600  0.40132700  1
  H  1070  1  0.24742600  0.43740000  0.32590000  1
  H  1071  1  0.15940300  0.46269800  0.36028300  1
  H  1072  1  0.13618000  0.40833600  0.38641600  1
  H  1073  1  0.21039600  0.40265900  0.38916500  1
  H  1074  1  0.33910600  0.46269500  0.36029100  1
  H  1075  1  0.28805500  0.40265300  0.38917400  1
  H  1076  1  0.36227000  0.40832100  0.38642400  1
  H  1106  1  0.24518100  0.04048000  0.18074500  1
  H  1107  1  0.24883700  0.02044200  0.15287000  1
  H  1108  1  0.24919500  0.00505000  0.12157400  1
  H  1109  1  0.24908500  0.99512660  0.08852900  1
  H  1110  1  0.24910400  0.05381300  0.07035200  1
  H  1111  1  0.24734800  0.09085100  0.14574600  1
  H  1112  1  0.15930300  0.06561400  0.11139400  1
  H  1113  1  0.13609600  0.11998500  0.08526800  1
  H  1114  1  0.21030500  0.12566500  0.08251900  1
  H  1115  1  0.33895500  0.06562100  0.11140600  1
  H  1116  1  0.28799400  0.12566600  0.08250700  1
  H  1117  1  0.36222100  0.11997000  0.08526000  1
  H  1147  1  0.24522200  0.70908400  0.95951400  1
  H  1148  1  0.24888700  0.68122300  0.97956900  1
  H  1149  1  0.24923400  0.64989600  0.99501900  1
  H  1150  1  0.24913200  0.61679900  0.00486597  1
  H  1151  1  0.24915100  0.59873800  0.94616200  1
  H  1152  1  0.24740100  0.67405800  0.90915800  1
  H  1153  1  0.15933100  0.63972100  0.93439100  1
  H  1154  1  0.13616200  0.61359400  0.88001500  1
  H  1155  1  0.21036700  0.61084200  0.87434800  1
  H  1156  1  0.33905200  0.63971900  0.93438100  1
  H  1157  1  0.28799700  0.61083600  0.87434500  1
  H  1158  1  0.36220400  0.61358200  0.88001300  1
  H  1188  1  0.24514100  0.81924300  0.51216400  1
  H  1189  1  0.24879300  0.84710900  0.49211400  1
  H  1190  1  0.24915100  0.87844800  0.47666900  1
  H  1191  1  0.24903500  0.91152860  0.46680300  1
  H  1192  1  0.24906000  0.92960460  0.52550900  1
  H  1193  1  0.24731000  0.85426100  0.56252300  1
  H  1194  1  0.15925000  0.88859800  0.53728700  1
  H  1195  1  0.13605800  0.91472660  0.59166300  1
  H  1196  1  0.21026400  0.91747560  0.59733500  1
  H  1197  1  0.33893300  0.88859400  0.53729900  1
  H  1198  1  0.28792800  0.91748760  0.59733700  1
  H  1199  1  0.36214800  0.91473760  0.59165500  1
  H  1229  1  0.25006500  0.48753200  0.18150200  1
  H  1230  1  0.24858300  0.50734000  0.15346300  1
  H  1231  1  0.24911600  0.52216400  0.12280500  1
  H  1232  1  0.24923200  0.53232200  0.09150100  1
  H  1233  1  0.24922000  0.47410600  0.07088200  1
  H  1234  1  0.25166500  0.43700000  0.14660000  1
  H  1235  1  0.33894300  0.46261700  0.11152100  1
  H  1236  1  0.36230500  0.40834100  0.08520900  1
  H  1237  1  0.28811600  0.40262400  0.08244300  1
  H  1238  1  0.15937500  0.46260800  0.11148200  1
  H  1239  1  0.21028000  0.40260700  0.08244900  1
  H  1240  1  0.13607700  0.40832500  0.08520000  1
  H  1270  1  0.24998000  0.04078000  0.29017500  1
  H  1271  1  0.24849500  0.02097300  0.31822000  1
  H  1272  1  0.24902500  0.00615200  0.34887900  1
  H  1273  1  0.24914100  0.99599360  0.38018300  1
  H  1274  1  0.24913800  0.05421200  0.40080000  1
  H  1275  1  0.25158500  0.09131100  0.32507500  1
  H  1276  1  0.33887900  0.06570300  0.36016200  1
  H  1277  1  0.36221700  0.11998700  0.38645900  1
  H  1278  1  0.28802300  0.12569600  0.38923200  1
  H  1279  1  0.15930900  0.06570900  0.36019000  1
  H  1280  1  0.21018900  0.12570800  0.38923600  1
  H  1281  1  0.13599500  0.11999400  0.38647700  1
  H  1311  1  0.25011100  0.70981400  0.51247600  1
  H  1312  1  0.24866200  0.68178100  0.49266400  1
  H  1313  1  0.24915700  0.65111300  0.47783000  1
  H  1314  1  0.24927200  0.61979700  0.46767500  1
  H  1315  1  0.24926200  0.59919600  0.52589400  1
  H  1316  1  0.25171500  0.67490200  0.56300400  1
  H  1317  1  0.33899800  0.63983300  0.53738300  1
  H  1318  1  0.36234400  0.61353000  0.59166400  1
  H  1319  1  0.28815400  0.61076200  0.59737600  1
  H  1320  1  0.15941000  0.63979300  0.53738900  1
  H  1321  1  0.21033000  0.61076500  0.59739500  1
  H  1322  1  0.13613000  0.61351800  0.59168400  1
  H  1352  1  0.25005700  0.81850100  0.95921100  1
  H  1353  1  0.24858300  0.84653900  0.97902300  1
  H  1354  1  0.24906900  0.87720100  0.99385000  1
  H  1355  1  0.24918500  0.90850860  0.00400797  1
  H  1356  1  0.24917600  0.92912160  0.94578800  1
  H  1357  1  0.25164900  0.85340800  0.90869000  1
  H  1358  1  0.33891400  0.88848500  0.93430000  1
  H  1359  1  0.36225500  0.91479360  0.88002300  1
  H  1360  1  0.28806600  0.91756160  0.87431000  1
  H  1361  1  0.15932500  0.88851700  0.93428800  1
  H  1362  1  0.21024200  0.91755260  0.87428800  1
  H  1363  1  0.13603600  0.91478960  0.87999400  1
  H  1393  1  0.74516400  0.98783660  0.79090000  1
  H  1394  1  0.74880400  0.00792100  0.81874400  1
  H  1395  1  0.74918700  0.02337400  0.85010100  1
  H  1396  1  0.74909900  0.03324900  0.88315900  1
  H  1397  1  0.74911500  0.97454960  0.90129000  1
  H  1398  1  0.74734600  0.93751660  0.82597300  1
  H  1399  1  0.65812000  0.96356960  0.86107900  1
  H  1400  1  0.63639200  0.90873760  0.88643000  1
  H  1401  1  0.70995500  0.90315560  0.88865600  1
  H  1402  1  0.84024200  0.96355760  0.86106500  1
  H  1403  1  0.78832100  0.90313760  0.88864000  1
  H  1404  1  0.86190300  0.90870960  0.88644500  1
  H  1434  1  0.74525800  0.54047800  0.68078900  1
  H  1435  1  0.74891700  0.52039500  0.65294300  1
  H  1436  1  0.74926500  0.50493600  0.62157600  1
  H  1437  1  0.74918400  0.49507500  0.58850400  1
  H  1438  1  0.74920900  0.55378000  0.57040800  1
  H  1439  1  0.74743700  0.59080100  0.64571800  1
  H  1440  1  0.65817300  0.56474900  0.61061200  1
  H  1441  1  0.63646700  0.61959200  0.58523900  1
  H  1442  1  0.71005200  0.62518000  0.58305800  1
  H  1443  1  0.84030400  0.56476000  0.61060900  1
  H  1444  1  0.78840000  0.62517700  0.58304200  1
  H  1445  1  0.86197800  0.61959600  0.58524200  1
  H  1475  1  0.74513300  0.20911000  0.45951700  1
  H  1476  1  0.74880100  0.18126700  0.47960500  1
  H  1477  1  0.74914900  0.14987800  0.49507300  1
  H  1478  1  0.74903900  0.11679000  0.50490900  1
  H  1479  1  0.74906500  0.09874700  0.44619200  1
  H  1480  1  0.74731800  0.17403500  0.40919700  1
  H  1481  1  0.65804100  0.13894100  0.43524400  1
  H  1482  1  0.63634800  0.11356800  0.38040000  1
  H  1483  1  0.70993000  0.11137700  0.37481600  1
  H  1484  1  0.84016900  0.13892900  0.43523500  1
  H  1485  1  0.78827400  0.11136200  0.37482000  1
  H  1486  1  0.86185300  0.11356000  0.38040000  1
  H  1516  1  0.74521800  0.31920300  0.01216500  1
  H  1517  1  0.74887300  0.34704400  0.99207400  1
  H  1518  1  0.74922800  0.37845400  0.97659600  1
  H  1519  1  0.74914000  0.41155600  0.96678500  1
  H  1520  1  0.74915500  0.42955300  0.02551400  1
  H  1521  1  0.74740300  0.35427800  0.06248400  1
  H  1522  1  0.65815400  0.38938300  0.03641600  1
  H  1523  1  0.63642700  0.41474100  0.09126600  1
  H  1524  1  0.70998000  0.41696500  0.09684400  1
  H  1525  1  0.84026000  0.38938600  0.03644900  1
  H  1526  1  0.78835000  0.41696000  0.09685800  1
  H  1527  1  0.86192800  0.41475800  0.09128100  1
  H  1557  1  0.74998300  0.98753660  0.68153600  1
  H  1558  1  0.74849700  0.00738300  0.65351700  1
  H  1559  1  0.74903000  0.02223900  0.62280200  1
  H  1560  1  0.74914600  0.03235600  0.59148200  1
  H  1561  1  0.74913700  0.97411660  0.57092200  1
  H  1562  1  0.75157900  0.93704360  0.64657500  1
  H  1563  1  0.84005700  0.96347460  0.61072500  1
  H  1564  1  0.86194400  0.90872760  0.58518200  1
  H  1565  1  0.78838400  0.90311060  0.58295000  1
  H  1566  1  0.65812300  0.96348260  0.61069200  1
  H  1567  1  0.70980800  0.90310760  0.58294200  1
  H  1568  1  0.63626700  0.90872760  0.58518800  1
  H  1598  1  0.75007400  0.54077600  0.79014200  1
  H  1599  1  0.74857900  0.52093000  0.81816500  1
  H  1600  1  0.74911200  0.50607900  0.84887900  1
  H  1601  1  0.74922800  0.49596100  0.88019600  1
  H  1602  1  0.74922100  0.55419800  0.90076100  1
  H  1603  1  0.75169800  0.59126600  0.82510000  1
  H  1604  1  0.84015400  0.56483900  0.86094900  1
  H  1605  1  0.86201900  0.61959500  0.88648600  1
  H  1606  1  0.78846900  0.62520800  0.88872500  1
  H  1607  1  0.65820400  0.56484800  0.86099200  1
  H  1608  1  0.70990800  0.62521200  0.88874400  1
  H  1609  1  0.63635100  0.61959900  0.88650300  1
  H  1639  1  0.75003700  0.20985200  0.01247200  1
  H  1640  1  0.74856900  0.18184100  0.99262000  1
  H  1641  1  0.74907100  0.15112200  0.97775900  1
  H  1642  1  0.74918700  0.11979900  0.96764200  1
  H  1643  1  0.74917700  0.09924300  0.02588000  1
  H  1644  1  0.75165100  0.17488100  0.06296100  1
  H  1645  1  0.84011000  0.13904800  0.03652700  1
  H  1646  1  0.86197800  0.11350500  0.09127800  1
  H  1647  1  0.78841900  0.11127700  0.09689000  1
  H  1648  1  0.65812000  0.13902600  0.03653100  1
  H  1649  1  0.70988300  0.11129400  0.09691300  1
  H  1650  1  0.63632000  0.11349500  0.09129700  1
  H  1680  1  0.75013700  0.31846000  0.45921500  1
  H  1681  1  0.74867600  0.34647700  0.47906600  1
  H  1682  1  0.74915500  0.37719600  0.49392200  1
  H  1683  1  0.74927500  0.40851700  0.50403900  1
  H  1684  1  0.74925900  0.42907500  0.44580100  1
  H  1685  1  0.75171100  0.35342400  0.40873400  1
  H  1686  1  0.84019100  0.38926500  0.43516200  1
  H  1687  1  0.86205700  0.41481500  0.38041200  1
  H  1688  1  0.78851300  0.41704800  0.37479900  1
  H  1689  1  0.65819500  0.38928600  0.43514000  1
  H  1690  1  0.70997700  0.41702300  0.37476500  1
  H  1691  1  0.63639200  0.41481600  0.38037800  1
  H  1703  1  0.24922600  0.55067900  0.41680800  1
  H  1705  1  0.24922000  0.51705800  0.46805900  1
  H  1706  1  0.24922300  0.59143400  0.46200700  1
  H  1708  1  0.24934200  0.50028900  0.43721000  1
  H  1715  1  0.24913800  0.97763760  0.05487500  1
  H  1717  1  0.24913200  0.01124900  0.00362097  1
  H  1718  1  0.24914100  0.93686660  0.00968597  1
  H  1720  1  0.24930000  0.02802600  0.03446600  1
  H  1727  1  0.24917900  0.58321700  0.02234700  1
  H  1729  1  0.24917300  0.53192700  0.98879400  1
  H  1730  1  0.24917900  0.53801300  0.06315100  1
  H  1732  1  0.24930300  0.56268000  0.97198000  1
  H  1739  1  0.24908800  0.94510860  0.44933000  1
  H  1741  1  0.24907900  0.99638860  0.48290100  1
  H  1742  1  0.24910100  0.99030660  0.40853700  1
  H  1744  1  0.24933600  0.96560860  0.49970400  1
  H  1751  1  0.74914300  0.05068900  0.91681200  1
  H  1753  1  0.74914300  0.01705900  0.96805500  1
  H  1754  1  0.74913000  0.09144200  0.96199200  1
  H  1756  1  0.74916500  0.00029300  0.93718200  1
  H  1763  1  0.74923400  0.47763300  0.55487600  1
  H  1765  1  0.74923400  0.51124700  0.50362400  1
  H  1766  1  0.74921200  0.43687200  0.50969200  1
  H  1768  1  0.74918700  0.52802300  0.53446900  1
  H  1775  1  0.74909300  0.08320400  0.52235400  1
  H  1777  1  0.74908300  0.03193400  0.48876600  1
  H  1778  1  0.74909600  0.03801300  0.56313000  1
  H  1780  1  0.74927500  0.06273900  0.47197300  1
  H  1787  1  0.74918100  0.44510400  0.94933300  1
  H  1789  1  0.74918100  0.49638800  0.98289900  1
  H  1790  1  0.74917400  0.49030000  0.90854500  1
  H  1792  1  0.74924000  0.46562000  0.99970800  1
  H  1799  1  0.06069520  0.40173800  0.37988000  1
  H  1801  1  0.98964400  0.45237500  0.38920900  1
  H  1802  1  0.92942800  0.38282800  0.39994400  1
  H  1804  1  0.05417420  0.45555300  0.37248200  1
  H  1811  1  0.06060520  0.12657500  0.09179700  1
  H  1813  1  0.98955900  0.07594200  0.08247000  1
  H  1814  1  0.92953100  0.14547600  0.07177100  1
  H  1816  1  0.05416220  0.07270400  0.09920700  1
  H  1823  1  0.06065220  0.62012200  0.87342800  1
  H  1825  1  0.98960300  0.61079300  0.92406300  1
  H  1826  1  0.92938700  0.60005900  0.85451400  1
  H  1828  1  0.05420220  0.62753100  0.92729000  1
  H  1835  1  0.06056420  0.90818960  0.59826200  1
  H  1837  1  0.98952200  0.91752360  0.54762400  1
  H  1838  1  0.92955000  0.92821560  0.61714500  1
  H  1840  1  0.05414920  0.90080660  0.54439700  1
  H  1847  1  0.43771300  0.40174500  0.09180900  1
  H  1849  1  0.50877100  0.45237700  0.08247800  1
  H  1850  1  0.56903100  0.38282000  0.07172700  1
  H  1852  1  0.44415500  0.45560900  0.09920500  1
  H  1859  1  0.43764200  0.12658000  0.37986900  1
  H  1861  1  0.50869900  0.07594800  0.38920800  1
  H  1862  1  0.56868000  0.14547300  0.39988100  1
  H  1864  1  0.44406200  0.07270400  0.37248800  1
  H  1871  1  0.43776500  0.62013200  0.59825900  1
  H  1873  1  0.50882800  0.61079000  0.54763200  1
  H  1874  1  0.56882400  0.60011700  0.61715200  1
  H  1876  1  0.44419000  0.62751700  0.54438800  1
  H  1883  1  0.43768500  0.90819060  0.87342000  1
  H  1885  1  0.50872800  0.91752460  0.92405600  1
  H  1886  1  0.56867000  0.92821960  0.85452900  1
  H  1888  1  0.44409200  0.90080660  0.92729800  1
  H  1895  1  0.43765400  0.12658200  0.09179100  1
  H  1897  1  0.50871000  0.07594800  0.08245800  1
  H  1898  1  0.56896500  0.14548700  0.07173600  1
  H  1900  1  0.44422300  0.07272300  0.09921000  1
  H  1907  1  0.43775900  0.40174100  0.37988900  1
  H  1909  1  0.50879400  0.45237700  0.38922100  1
  H  1910  1  0.56885200  0.38284400  0.39991300  1
  H  1912  1  0.44416500  0.45561700  0.37249800  1
  H  1919  1  0.43760600  0.90820160  0.59825600  1
  H  1921  1  0.50865400  0.91753260  0.54761800  1
  H  1922  1  0.56890500  0.92829060  0.61716400  1
  H  1924  1  0.44413100  0.90078960  0.54439400  1
  H  1931  1  0.43770400  0.62011100  0.87342900  1
  H  1933  1  0.50875900  0.61077900  0.92406400  1
  H  1934  1  0.56869800  0.60008100  0.85453800  1
  H  1936  1  0.44415000  0.62751200  0.92730000  1
  H  1943  1  0.06057920  0.12657300  0.37988100  1
  H  1945  1  0.98951200  0.07594500  0.38921900  1
  H  1946  1  0.92954400  0.14547000  0.39989900  1
  H  1948  1  0.05413320  0.07270800  0.37248800  1
  H  1955  1  0.06066120  0.40173800  0.09180200  1
  H  1957  1  0.98960600  0.45237400  0.08246300  1
  H  1958  1  0.92964700  0.38284800  0.07177900  1
  H  1960  1  0.05423720  0.45561500  0.09918500  1
  H  1967  1  0.06062320  0.90819960  0.87342900  1
  H  1969  1  0.98957200  0.91753560  0.92406200  1
  H  1970  1  0.92933700  0.92826660  0.85450900  1
  H  1972  1  0.05419920  0.90080460  0.92730200  1
  H  1979  1  0.06070520  0.62011700  0.59825700  1
  H  1981  1  0.98965600  0.61077900  0.54762300  1
  H  1982  1  0.92969100  0.60009500  0.61714900  1
  H  1984  1  0.05429020  0.62750400  0.54437600  1
  H  1991  1  0.20072300  0.43540200  0.25760800  1
  H  1993  1  0.30839200  0.46845600  0.24479000  1
  H  1994  1  0.20346300  0.44287600  0.19224200  1
  H  1996  1  0.29321000  0.46217100  0.27718700  1
  H  2003  1  0.20064200  0.09292600  0.21407400  1
  H  2005  1  0.30830700  0.05985900  0.22689500  1
  H  2006  1  0.20334700  0.08544800  0.27935900  1
  H  2008  1  0.29314700  0.06615000  0.19447900  1
  H  2015  1  0.20067300  0.74239100  0.90708700  1
  H  2017  1  0.30834300  0.75521400  0.94013900  1
  H  2018  1  0.20339400  0.80765400  0.91456000  1
  H  2020  1  0.29315400  0.72281300  0.93386400  1
  H  2027  1  0.20059200  0.78592400  0.56460700  1
  H  2029  1  0.30826300  0.77311700  0.53154000  1
  H  2030  1  0.20339800  0.72052900  0.55709600  1
  H  2032  1  0.29311500  0.80554200  0.53784600  1
  H  2039  1  0.70064000  0.93540260  0.75760600  1
  H  2041  1  0.80830600  0.96845760  0.74478600  1
  H  2042  1  0.70337700  0.94288260  0.69224100  1
  H  2044  1  0.79312100  0.96217460  0.77718100  1
  H  2051  1  0.70072800  0.59292400  0.71407700  1
  H  2053  1  0.80839300  0.55985700  0.72689900  1
  H  2054  1  0.70343100  0.58544200  0.77936000  1
  H  2056  1  0.79323700  0.56615000  0.69448600  1
  H  2063  1  0.70058400  0.24239700  0.40708500  1
  H  2065  1  0.80825900  0.25521200  0.44013600  1
  H  2066  1  0.70336200  0.30767200  0.41457400  1
  H  2068  1  0.79306800  0.22281800  0.43385900  1
  H  2075  1  0.70068100  0.28592700  0.06461000  1
  H  2077  1  0.80835000  0.27311000  0.03154300  1
  H  2078  1  0.70343100  0.22054600  0.05711100  1
  H  2080  1  0.79320900  0.30553500  0.03784900  1
  C  1  1  0.03413200  0.69249800  0.12182600  1
  C  2  1  0.02002500  0.67521500  0.13021200  1
  C  3  1  0.97680500  0.67522900  0.13022500  1
  C  4  1  0.96271800  0.69251800  0.12185200  1
  C  5  1  0.91926300  0.69576500  0.11992400  1
  C  6  1  0.89100800  0.68140700  0.12652600  1
  C  7  1  0.90580700  0.66416200  0.13496200  1
  C  8  1  0.94897300  0.66093100  0.13687000  1
  C  9  1  0.04784300  0.66092400  0.13687900  1
  C  10  1  0.09101100  0.66415900  0.13497300  1
  C  11  1  0.10580200  0.68141100  0.12654400  1
  C  12  1  0.07758100  0.69576000  0.11990700  1
  C  13  1  0.99836900  0.71005400  0.09509500  1
  C  14  1  0.99862400  0.73019400  0.09277100  1
  C  15  1  0.99865800  0.73903800  0.11061000  1
  C  16  1  0.99851500  0.72476900  0.12502000  1
  C  17  1  0.99847800  0.75891500  0.11483800  1
  C  18  1  0.99839100  0.76459800  0.13420300  1
  C  19  1  0.99838800  0.75066300  0.14906800  1
  C  20  1  0.99841700  0.73058900  0.14467200  1
  C  21  1  0.99710300  0.69799300  0.07850200  1
  C  22  1  0.99591800  0.70660300  0.05985900  1
  C  23  1  0.99595500  0.72710300  0.05831600  1
  C  24  1  0.99809000  0.73901400  0.07455600  1
  C  37  1  0.99844400  0.70505900  0.11606300  1
  C  42  1  0.03402000  0.32760700  0.85811200  1
  C  43  1  0.01993100  0.34488200  0.84970700  1
  C  44  1  0.97671100  0.34486600  0.84969300  1
  C  45  1  0.96262400  0.32758400  0.85808800  1
  C  46  1  0.91917200  0.32432300  0.86001800  1
  C  47  1  0.89093000  0.33866200  0.85336900  1
  C  48  1  0.90571600  0.35592600  0.84496300  1
  C  49  1  0.94887900  0.35916000  0.84303900  1
  C  50  1  0.04777200  0.35916100  0.84303100  1
  C  51  1  0.09094200  0.35591600  0.84494600  1
  C  52  1  0.10571800  0.33866000  0.85338200  1
  C  53  1  0.07745600  0.32433300  0.86002100  1
  C  54  1  0.99827900  0.30996600  0.88482800  1
  C  55  1  0.99853200  0.28983000  0.88714800  1
  C  56  1  0.99857600  0.28106300  0.86928300  1
  C  57  1  0.99842700  0.29535900  0.85489300  1
  C  58  1  0.99839500  0.26119700  0.86505400  1
  C  59  1  0.99830400  0.25553700  0.84569100  1
  C  60  1  0.99829400  0.26948400  0.83083700  1
  C  61  1  0.99832900  0.28956300  0.83523400  1
  C  62  1  0.99702100  0.32203300  0.90140400  1
  C  63  1  0.99577300  0.31345500  0.92005800  1
  C  64  1  0.99587100  0.29295600  0.92161100  1
  C  65  1  0.99798400  0.28102400  0.90537900  1
  C  78  1  0.99834400  0.31504100  0.86388000  1
  C  83  1  0.03407100  0.87820700  0.67241800  1
  C  84  1  0.01997000  0.86979800  0.65514400  1
  C  85  1  0.97675500  0.86978800  0.65515400  1
  C  86  1  0.96267100  0.87817800  0.67244100  1
  C  87  1  0.91921300  0.88010200  0.67568900  1
  C  88  1  0.89097700  0.87346300  0.66134300  1
  C  89  1  0.90577200  0.86504500  0.64408600  1
  C  90  1  0.94893900  0.86313100  0.64085500  1
  C  91  1  0.04778400  0.86312600  0.64085100  1
  C  92  1  0.09095000  0.86503600  0.64408300  1
  C  93  1  0.10576100  0.87345800  0.66133600  1
  C  94  1  0.07752300  0.88010500  0.67567600  1
  C  95  1  0.99830000  0.90492700  0.69005800  1
  C  96  1  0.99857500  0.90726400  0.71019400  1
  C  97  1  0.99861900  0.88941400  0.71899100  1
  C  98  1  0.99847300  0.87503000  0.70468600  1
  C  99  1  0.99843900  0.88515900  0.73885600  1
  C  100  1  0.99835400  0.86577300  0.74447000  1
  C  101  1  0.99834700  0.85093500  0.73049700  1
  C  102  1  0.99837900  0.85536700  0.71043700  1
  C  103  1  0.99706500  0.92149300  0.67797600  1
  C  104  1  0.99582700  0.94014800  0.68654700  1
  C  105  1  0.99591500  0.94171600  0.70704500  1
  C  106  1  0.99801500  0.92549400  0.71898900  1
  C  119  1  0.99839100  0.88398100  0.68499100  1
  C  124  1  0.03397400  0.14188600  0.30750000  1
  C  125  1  0.01988200  0.15029200  0.32477500  1
  C  126  1  0.97666400  0.15030300  0.32476200  1
  C  127  1  0.96258300  0.14191900  0.30747100  1
  C  128  1  0.91912800  0.13999200  0.30422200  1
  C  129  1  0.89084200  0.14666300  0.31873100  1
  C  130  1  0.90567200  0.15505000  0.33582400  1
  C  131  1  0.94883800  0.15696000  0.33905800  1
  C  132  1  0.04771000  0.15695800  0.33906800  1
  C  133  1  0.09088000  0.15505200  0.33582500  1
  C  134  1  0.10566900  0.14661900  0.31857200  1
  C  135  1  0.07741800  0.13997800  0.30423800  1
  C  136  1  0.99823100  0.11516800  0.28985700  1
  C  137  1  0.99847700  0.11283700  0.26971900  1
  C  138  1  0.99853700  0.13069400  0.26092600  1
  C  139  1  0.99839100  0.14508000  0.27523000  1
  C  140  1  0.99835400  0.13495500  0.24106200  1
  C  141  1  0.99825700  0.15433500  0.23543500  1
  C  142  1  0.99824100  0.16917100  0.24940600  1
  C  143  1  0.99828800  0.16474300  0.26947000  1
  C  144  1  0.99696800  0.09860000  0.30193600  1
  C  145  1  0.99577000  0.07994300  0.29336600  1
  C  146  1  0.99583000  0.07838100  0.27286800  1
  C  147  1  0.99792700  0.09460700  0.26092500  1
  C  160  1  0.99830400  0.13611800  0.29492200  1
  C  165  1  0.96261500  0.69226600  0.85830800  1
  C  166  1  0.97674200  0.67507900  0.84977100  1
  C  167  1  0.01998400  0.67507900  0.84979800  1
  C  168  1  0.03406200  0.69226500  0.85836600  1
  C  169  1  0.07749000  0.69568000  0.86010500  1
  C  170  1  0.10576400  0.68139900  0.85338200  1
  C  171  1  0.09102500  0.66413300  0.84495600  1
  C  172  1  0.04786600  0.66087800  0.84301500  1
  C  173  1  0.94887300  0.66087000  0.84299600  1
  C  174  1  0.90570900  0.66412600  0.84493000  1
  C  175  1  0.89093600  0.68138600  0.85336000  1
  C  176  1  0.91919400  0.69567500  0.86006300  1
  C  177  1  0.99791800  0.70949800  0.88543700  1
  C  178  1  0.99774600  0.72958400  0.88782400  1
  C  179  1  0.99819100  0.73817800  0.86997600  1
  C  180  1  0.99833500  0.72419700  0.85536600  1
  C  181  1  0.99836000  0.75790100  0.86615000  1
  C  182  1  0.99841000  0.76360700  0.84696100  1
  C  183  1  0.99839100  0.75024700  0.83109000  1
  C  184  1  0.99840100  0.73018200  0.83572300  1
  C  185  1  0.99904800  0.69757100  0.90214800  1
  C  186  1  0.99973600  0.70638000  0.92077400  1
  C  187  1  0.99819100  0.72674000  0.92237000  1
  C  188  1  0.99747600  0.73852500  0.90602100  1
  C  201  1  0.99829100  0.70461600  0.86435900  1
  C  206  1  0.96253900  0.32782200  0.12160100  1
  C  207  1  0.97666400  0.34500900  0.13013900  1
  C  208  1  0.01990300  0.34500700  0.13011500  1
  C  209  1  0.03398900  0.32782000  0.12155000  1
  C  210  1  0.07742000  0.32440600  0.11981600  1
  C  211  1  0.10569100  0.33869000  0.12653400  1
  C  212  1  0.09093800  0.35594400  0.13498200  1
  C  213  1  0.04777800  0.35920900  0.13690300  1
  C  214  1  0.94878800  0.35921900  0.13690800  1
  C  215  1  0.90562500  0.35595600  0.13498700  1
  C  216  1  0.89085800  0.33870100  0.12654700  1
  C  217  1  0.91911900  0.32441000  0.11985100  1
  C  218  1  0.99784000  0.31058800  0.09447500  1
  C  219  1  0.99766400  0.29050200  0.09208900  1
  C  220  1  0.99810900  0.28190900  0.10993900  1
  C  221  1  0.99825700  0.29589000  0.12454700  1
  C  222  1  0.99827900  0.26218600  0.11376400  1
  C  223  1  0.99832600  0.25648000  0.13295500  1
  C  224  1  0.99830700  0.26984000  0.14882400  1
  C  225  1  0.99831900  0.28990500  0.14419000  1
  C  226  1  0.99896500  0.32251100  0.07776000  1
  C  227  1  0.99965000  0.31370200  0.05913400  1
  C  228  1  0.99810300  0.29334300  0.05754100  1
  C  229  1  0.99738800  0.28155700  0.07389200  1
  C  242  1  0.99821900  0.31547100  0.11555300  1
  C  247  1  0.96265200  0.87839400  0.30773400  1
  C  248  1  0.97678600  0.86985500  0.32492200  1
  C  249  1  0.02002700  0.86988100  0.32491900  1
  C  250  1  0.03411000  0.87844500  0.30773200  1
  C  251  1  0.07754100  0.88018100  0.30431800  1
  C  252  1  0.10581500  0.87346200  0.31860100  1
  C  253  1  0.09106700  0.86502500  0.33586100  1
  C  254  1  0.04790700  0.86309400  0.33911900  1
  C  255  1  0.94892000  0.86308200  0.33913200  1
  C  256  1  0.90575600  0.86501100  0.33587800  1
  C  257  1  0.89098600  0.87342700  0.31861400  1
  C  258  1  0.91922900  0.88015900  0.30433100  1
  C  259  1  0.99796200  0.90551600  0.29050200  1
  C  260  1  0.99779300  0.90790600  0.27041600  1
  C  261  1  0.99824100  0.89005700  0.26181900  1
  C  262  1  0.99837900  0.87544900  0.27579800  1
  C  263  1  0.99840400  0.88622800  0.24209500  1
  C  264  1  0.99845300  0.86703400  0.23639100  1
  C  265  1  0.99843200  0.85116400  0.24975400  1
  C  266  1  0.99844300  0.85580500  0.26981500  1
  C  267  1  0.99904400  0.92222300  0.30243600  1
  C  268  1  0.99974200  0.94084700  0.29363000  1
  C  269  1  0.99822200  0.94244800  0.27327000  1
  C  270  1  0.99748200  0.92610400  0.26147800  1
  C  283  1  0.99833500  0.88443900  0.29538200  1
  C  288  1  0.96256800  0.14169300  0.67218000  1
  C  289  1  0.97670200  0.15022800  0.65499000  1
  C  290  1  0.01994100  0.15020500  0.65499600  1
  C  291  1  0.03402500  0.14164000  0.67218300  1
  C  292  1  0.07745600  0.13990600  0.67559600  1
  C  293  1  0.10573400  0.14663200  0.66129600  1
  C  294  1  0.09098000  0.15505300  0.64404800  1
  C  295  1  0.04781900  0.15698800  0.64079200  1
  C  296  1  0.94883500  0.15700200  0.64077900  1
  C  297  1  0.90566900  0.15508800  0.64404100  1
  C  298  1  0.89090200  0.14665800  0.66129800  1
  C  299  1  0.91914700  0.13993500  0.67558600  1
  C  300  1  0.99787400  0.11457000  0.68941500  1
  C  301  1  0.99770200  0.11218000  0.70950100  1
  C  302  1  0.99815900  0.13003000  0.71809400  1
  C  303  1  0.99829400  0.14463800  0.70411300  1
  C  304  1  0.99831600  0.13385600  0.73781700  1
  C  305  1  0.99836600  0.15304800  0.74352300  1
  C  306  1  0.99834700  0.16891600  0.73016100  1
  C  307  1  0.99835700  0.16428000  0.71009700  1
  C  308  1  0.99901300  0.09785900  0.67749000  1
  C  309  1  0.99964100  0.07922900  0.68628800  1
  C  310  1  0.99810300  0.07763500  0.70665000  1
  C  311  1  0.99739400  0.09398300  0.71844000  1
  C  324  1  0.99825300  0.13564600  0.68453200  1
  C  329  1  0.53480300  0.19297900  0.62162800  1
  C  330  1  0.52017100  0.17569000  0.62979800  1
  C  331  1  0.47649900  0.17569700  0.62980700  1
  C  332  1  0.46189200  0.19299900  0.62166200  1
  C  333  1  0.41798300  0.19649400  0.62032900  1
  C  334  1  0.38924200  0.18215800  0.62688200  1
  C  335  1  0.40537600  0.16484600  0.63486500  1
  C  336  1  0.44856100  0.16148600  0.63645900  1
  C  337  1  0.54808700  0.16147300  0.63645900  1
  C  338  1  0.59127600  0.16482200  0.63488500  1
  C  339  1  0.60736600  0.18218200  0.62701400  1
  C  340  1  0.57871300  0.19648100  0.62029800  1
  C  341  1  0.49827700  0.21023700  0.59504600  1
  C  342  1  0.49853400  0.23035400  0.59272000  1
  C  343  1  0.49857500  0.23914400  0.61058300  1
  C  344  1  0.49843400  0.22488400  0.62498400  1
  C  345  1  0.49839300  0.25898800  0.61484400  1
  C  346  1  0.49831800  0.26461500  0.63421900  1
  C  347  1  0.49831800  0.25066300  0.64907200  1
  C  348  1  0.49834000  0.23059900  0.64466200  1
  C  349  1  0.49702000  0.19810400  0.57851300  1
  C  350  1  0.49583200  0.20664800  0.55984800  1
  C  351  1  0.49586600  0.22714800  0.55827300  1
  C  352  1  0.49800400  0.23911200  0.57448300  1
  C  365  1  0.49835900  0.20528400  0.61597100  1
  C  370  1  0.53487500  0.82711100  0.35828700  1
  C  371  1  0.52024300  0.84439700  0.35011600  1
  C  372  1  0.47657200  0.84438800  0.35010800  1
  C  373  1  0.46196100  0.82709000  0.35826200  1
  C  374  1  0.41804800  0.82360100  0.35961800  1
  C  375  1  0.38937300  0.83788500  0.35288300  1
  C  376  1  0.40545700  0.85526800  0.34505500  1
  C  377  1  0.44864600  0.85860900  0.34346000  1
  C  378  1  0.54816200  0.85860700  0.34344700  1
  C  379  1  0.59135100  0.85525600  0.34503500  1
  C  380  1  0.60747900  0.83790900  0.35293200  1
  C  381  1  0.57878500  0.82361000  0.35960800  1
  C  382  1  0.49836800  0.80984900  0.38487700  1
  C  383  1  0.49861600  0.78973200  0.38720000  1
  C  384  1  0.49865600  0.78093900  0.36933800  1
  C  385  1  0.49851500  0.79520300  0.35494200  1
  C  386  1  0.49847500  0.76109500  0.36506800  1
  C  387  1  0.49840200  0.75547700  0.34568800  1
  C  388  1  0.49841800  0.76943700  0.33084200  1
  C  389  1  0.49843100  0.78949700  0.33526200  1
  C  390  1  0.49710800  0.82198300  0.40141100  1
  C  391  1  0.49585300  0.81343700  0.42007300  1
  C  392  1  0.49595100  0.79293800  0.42164700  1
  C  393  1  0.49806700  0.78097200  0.40543600  1
  C  406  1  0.49843700  0.81480600  0.36395200  1
  C  411  1  0.53474300  0.37837900  0.17288600  1
  C  412  1  0.52011400  0.37020300  0.15560100  1
  C  413  1  0.47644300  0.37019700  0.15561000  1
  C  414  1  0.46182900  0.37835600  0.17290700  1
  C  415  1  0.41791700  0.37970100  0.17639900  1
  C  416  1  0.38924500  0.37297400  0.16211300  1
  C  417  1  0.40533200  0.36513100  0.14473800  1
  C  418  1  0.44852000  0.36354700  0.14138900  1
  C  419  1  0.54803700  0.36353500  0.14139100  1
  C  420  1  0.59122200  0.36512200  0.14474100  1
  C  421  1  0.60734700  0.37301800  0.16208800  1
  C  422  1  0.57865300  0.37969700  0.17638700  1
  C  423  1  0.49822100  0.40496800  0.19015200  1
  C  424  1  0.49849000  0.40729200  0.21027100  1
  C  425  1  0.49853400  0.38943000  0.21906500  1
  C  426  1  0.49838700  0.37504200  0.20479300  1
  C  427  1  0.49835200  0.38514600  0.23890800  1
  C  428  1  0.49826100  0.36575900  0.24451200  1
  C  429  1  0.49825200  0.35092500  0.23053800  1
  C  430  1  0.49829000  0.35536100  0.21048400  1
  C  431  1  0.49698500  0.42149700  0.17801600  1
  C  432  1  0.49573700  0.44016000  0.18656100  1
  C  433  1  0.49582800  0.44173800  0.20706000  1
  C  434  1  0.49792900  0.42552900  0.21902800  1
  C  447  1  0.49830500  0.38404700  0.18519100  1
  C  452  1  0.53483100  0.64170300  0.80702900  1
  C  453  1  0.52019600  0.64988200  0.82431200  1
  C  454  1  0.47652500  0.64988900  0.82429900  1
  C  455  1  0.46192700  0.64172700  0.80700100  1
  C  456  1  0.41802000  0.64039300  0.80349400  1
  C  457  1  0.38932600  0.64698500  0.81782900  1
  C  458  1  0.40541000  0.65494900  0.83515500  1
  C  459  1  0.44858900  0.65655100  0.83850800  1
  C  460  1  0.54811500  0.65654400  0.83852600  1
  C  461  1  0.59130400  0.65496500  0.83517200  1
  C  462  1  0.60743500  0.64706800  0.81782600  1
  C  463  1  0.57874100  0.64038800  0.80352900  1
  C  464  1  0.49832700  0.61511400  0.78975900  1
  C  465  1  0.49856200  0.61279000  0.76963900  1
  C  466  1  0.49862200  0.63065100  0.76084200  1
  C  467  1  0.49847800  0.64503400  0.77512000  1
  C  468  1  0.49844000  0.63495000  0.74100000  1
  C  469  1  0.49836200  0.65434300  0.73541000  1
  C  470  1  0.49835900  0.66916700  0.74939500  1
  C  471  1  0.49838100  0.66471600  0.76944500  1
  C  472  1  0.49705700  0.59858600  0.80189700  1
  C  473  1  0.49585000  0.57992400  0.79335200  1
  C  474  1  0.49591000  0.57834600  0.77285300  1
  C  475  1  0.49801100  0.59455400  0.76088400  1
  C  488  1  0.49840200  0.63603300  0.79472200  1
  C  493  1  0.46177900  0.19274300  0.35848600  1
  C  494  1  0.47643000  0.17554700  0.35016900  1
  C  495  1  0.52012700  0.17554700  0.35019200  1
  C  496  1  0.53473700  0.19273900  0.35854200  1
  C  497  1  0.57861200  0.19639400  0.35969500  1
  C  498  1  0.60734400  0.18213500  0.35298200  1
  C  499  1  0.59129400  0.16479400  0.34503300  1
  C  500  1  0.54811200  0.16142400  0.34341300  1
  C  501  1  0.44844500  0.16143100  0.34339000  1
  C  502  1  0.40526600  0.16480700  0.34502100  1
  C  503  1  0.38917600  0.18211600  0.35303700  1
  C  504  1  0.41791700  0.19640100  0.35965600  1
  C  505  1  0.49783200  0.20959900  0.38548200  1
  C  506  1  0.49765900  0.22966700  0.38786300  1
  C  507  1  0.49810500  0.23826600  0.37001300  1
  C  508  1  0.49825200  0.22431400  0.35540300  1
  C  509  1  0.49827400  0.25796900  0.36615500  1
  C  510  1  0.49832400  0.26364400  0.34695300  1
  C  511  1  0.49830500  0.25027200  0.33108900  1
  C  512  1  0.49831800  0.23022100  0.33574100  1
  C  513  1  0.49896100  0.19761400  0.40215300  1
  C  514  1  0.49965000  0.20639800  0.42078500  1
  C  515  1  0.49810500  0.22675900  0.42239600  1
  C  516  1  0.49739000  0.23857100  0.40606500  1
  C  529  1  0.49821400  0.20482300  0.36443000  1
  C  534  1  0.46186700  0.82734900  0.62142800  1
  C  535  1  0.47651800  0.84454400  0.62974100  1
  C  536  1  0.52021500  0.84453800  0.62972100  1
  C  537  1  0.53482800  0.82734000  0.62138000  1
  C  538  1  0.57870600  0.82368900  0.62021500  1
  C  539  1  0.60743500  0.83795000  0.62693100  1
  C  540  1  0.59137300  0.85527900  0.63489700  1
  C  541  1  0.54819700  0.85865700  0.63650300  1
  C  542  1  0.44853600  0.85866900  0.63651200  1
  C  543  1  0.40535100  0.85528900  0.63490300  1
  C  544  1  0.38925400  0.83798000  0.62689300  1
  C  545  1  0.41800100  0.82369600  0.62026500  1
  C  546  1  0.49792300  0.81048700  0.59443000  1
  C  547  1  0.49774700  0.79041900  0.59204900  1
  C  548  1  0.49819200  0.78182000  0.60990200  1
  C  549  1  0.49833700  0.79577300  0.62451000  1
  C  550  1  0.49836500  0.76211900  0.61375800  1
  C  551  1  0.49840900  0.75644300  0.63295800  1
  C  552  1  0.49839000  0.76981400  0.64882400  1
  C  553  1  0.49840200  0.78986500  0.64417200  1
  C  554  1  0.49901400  0.82246900  0.57775600  1
  C  555  1  0.49974100  0.81368400  0.55912400  1
  C  556  1  0.49818900  0.79332300  0.55751400  1
  C  557  1  0.49747100  0.78151200  0.57384800  1
  C  570  1  0.49830200  0.81526500  0.61548300  1
  C  575  1  0.46180400  0.37857500  0.80725700  1
  C  576  1  0.47646800  0.37025900  0.82445200  1
  C  577  1  0.52016400  0.37028000  0.82445000  1
  C  578  1  0.53478100  0.37861900  0.80725400  1
  C  579  1  0.57866200  0.37978400  0.80360800  1
  C  580  1  0.60739100  0.37306500  0.81786700  1
  C  581  1  0.59133200  0.36511100  0.83520100  1
  C  582  1  0.54815000  0.36349800  0.83857300  1
  C  583  1  0.44850100  0.36349400  0.83858600  1
  C  584  1  0.40531600  0.36509800  0.83521900  1
  C  585  1  0.38925400  0.37296200  0.81784800  1
  C  586  1  0.41792900  0.37976900  0.80361400  1
  C  587  1  0.49787600  0.40556600  0.79040300  1
  C  588  1  0.49770300  0.40795100  0.77033400  1
  C  589  1  0.49815200  0.39010200  0.76173300  1
  C  590  1  0.49829000  0.37549300  0.77568400  1
  C  591  1  0.49831800  0.38624400  0.74203000  1
  C  592  1  0.49836800  0.36704200  0.73635500  1
  C  593  1  0.49834600  0.35117900  0.74972800  1
  C  594  1  0.49835500  0.35583100  0.76977800  1
  C  595  1  0.49896400  0.42223200  0.80239400  1
  C  596  1  0.49967900  0.44086200  0.79361200  1
  C  597  1  0.49813900  0.44248100  0.77325000  1
  C  598  1  0.49739000  0.42615400  0.76143200  1
  C  611  1  0.49824900  0.38451900  0.79517700  1
  C  616  1  0.46188900  0.64151000  0.17265300  1
  C  617  1  0.47655600  0.64982500  0.15545800  1
  C  618  1  0.52025200  0.64980500  0.15546600  1
  C  619  1  0.53486600  0.64146300  0.17266200  1
  C  620  1  0.57874400  0.64029900  0.17631200  1
  C  621  1  0.60747200  0.64701600  0.16205200  1
  C  622  1  0.59141400  0.65496700  0.14471500  1
  C  623  1  0.54823800  0.65657800  0.14134100  1
  C  624  1  0.44858900  0.65658600  0.14132000  1
  C  625  1  0.40540100  0.65500600  0.14469600  1
  C  626  1  0.38933200  0.64713100  0.16206000  1
  C  627  1  0.41801400  0.64032500  0.17629300  1
  C  628  1  0.49796000  0.61451500  0.18951600  1
  C  629  1  0.49779100  0.61213300  0.20958300  1
  C  630  1  0.49824300  0.62998600  0.21818200  1
  C  631  1  0.49837100  0.64459400  0.20422700  1
  C  632  1  0.49840200  0.63384300  0.23788300  1
  C  633  1  0.49844900  0.65304600  0.24355800  1
  C  634  1  0.49843100  0.66890800  0.23018500  1
  C  635  1  0.49844000  0.66425500  0.21013400  1
  C  636  1  0.49908600  0.59784400  0.17753300  1
  C  637  1  0.49970400  0.57920900  0.18630600  1
  C  638  1  0.49818900  0.57759900  0.20666900  1
  C  639  1  0.49748700  0.59393000  0.21848700  1
  C  652  1  0.49833000  0.63556600  0.18473600  1
  C  657  1  0.99839100  0.79467700  0.18559000  1
  C  659  1  0.99840100  0.80966400  0.21666700  1
  C  661  1  0.99839100  0.77579000  0.21487300  1
  C  662  1  0.99839100  0.77618200  0.19442200  1
  C  664  1  0.99840700  0.82708000  0.22584400  1
  C  667  1  0.99842300  0.75877400  0.18444600  1
  C  669  1  0.99830000  0.22540900  0.79432300  1
  C  671  1  0.99831300  0.21041000  0.76324900  1
  C  673  1  0.99830000  0.24428800  0.76504000  1
  C  674  1  0.99830000  0.24390200  0.78549400  1
  C  676  1  0.99832200  0.19298800  0.75407800  1
  C  679  1  0.99834400  0.26131700  0.79547100  1
  C  681  1  0.99834400  0.81443300  0.77459600  1
  C  683  1  0.99835700  0.78336000  0.78961700  1
  C  685  1  0.99834400  0.78513000  0.75574700  1
  C  686  1  0.99834100  0.80558700  0.75611000  1
  C  688  1  0.99836300  0.77417700  0.80702800  1
  C  691  1  0.99837600  0.81551000  0.73866100  1
  C  693  1  0.99824400  0.20566300  0.20531900  1
  C  695  1  0.99826600  0.23673500  0.19030500  1
  C  697  1  0.99824400  0.23495900  0.22417800  1
  C  698  1  0.99824100  0.21450500  0.22380800  1
  C  700  1  0.99828200  0.24591400  0.17288900  1
  C  703  1  0.99831000  0.20456900  0.24124500  1
  C  705  1  0.49832100  0.29468200  0.68559400  1
  C  707  1  0.49832100  0.30967300  0.71667000  1
  C  709  1  0.49832100  0.27579200  0.71487200  1
  C  710  1  0.49831800  0.27618600  0.69441900  1
  C  712  1  0.49832100  0.32709400  0.72583500  1
  C  715  1  0.49832100  0.25878300  0.68442900  1
  C  717  1  0.49841500  0.72540500  0.29432400  1
  C  719  1  0.49840600  0.71040900  0.26325100  1
  C  721  1  0.49841200  0.74428600  0.26504200  1
  C  722  1  0.49841800  0.74389900  0.28549600  1
  C  724  1  0.49840200  0.69299000  0.25408100  1
  C  727  1  0.49840900  0.76131200  0.29547000  1
  C  729  1  0.49825200  0.31442000  0.27459100  1
  C  731  1  0.49827100  0.28334700  0.28959700  1
  C  733  1  0.49825200  0.28512900  0.25572400  1
  C  734  1  0.49824900  0.30558200  0.25610000  1
  C  736  1  0.49828000  0.27417200  0.30701300  1
  C  739  1  0.49830500  0.31553300  0.23867300  1
  C  741  1  0.49835500  0.70565800  0.70532100  1
  C  743  1  0.49835900  0.73672900  0.69030700  1
  C  745  1  0.49835500  0.73495700  0.72417700  1
  C  746  1  0.49835200  0.71450200  0.72380800  1
  C  748  1  0.49836200  0.74590900  0.67289400  1
  C  751  1  0.49836800  0.70457400  0.74125200  1
  C  753  1  0.78415800  0.65494400  0.13887000  1
  C  755  1  0.71579900  0.65299300  0.15328400  1
  C  757  1  0.74386300  0.68366000  0.14400100  1
  C  758  1  0.78181000  0.67540300  0.13748400  1
  C  760  1  0.68146800  0.64199500  0.15937800  1
  C  763  1  0.81180500  0.68798900  0.12980200  1
  C  765  1  0.78407000  0.36513700  0.84104200  1
  C  767  1  0.71569900  0.36709500  0.82662700  1
  C  769  1  0.74377600  0.33642700  0.83591900  1
  C  770  1  0.78170600  0.34467200  0.84246400  1
  C  772  1  0.68137700  0.37810500  0.82049000  1
  C  775  1  0.81172000  0.33205300  0.85013000  1
  C  777  1  0.78411700  0.86113300  0.63486700  1
  C  779  1  0.71575900  0.84671800  0.63291200  1
  C  781  1  0.74382900  0.85600300  0.66357900  1
  C  782  1  0.78177500  0.86252700  0.65533500  1
  C  784  1  0.68143100  0.84062500  0.62191100  1
  C  787  1  0.81176700  0.87022000  0.66794300  1
  C  789  1  0.78403200  0.15895500  0.34505300  1
  C  791  1  0.71569000  0.17338600  0.34700600  1
  C  793  1  0.74374400  0.16408000  0.31634000  1
  C  794  1  0.78166200  0.15753000  0.32459000  1
  C  796  1  0.68129900  0.17948000  0.35798400  1
  C  799  1  0.81162000  0.14990800  0.31213800  1
  C  801  1  0.21260100  0.65495200  0.84104800  1
  C  803  1  0.28094400  0.65299200  0.82663600  1
  C  805  1  0.25289600  0.68366300  0.83591600  1
  C  806  1  0.21494100  0.67542100  0.84243000  1
  C  808  1  0.31534000  0.64203000  0.82061000  1
  C  811  1  0.18495400  0.68803500  0.85011500  1
  C  813  1  0.21252800  0.36514300  0.13886500  1
  C  815  1  0.28087000  0.36710600  0.15329600  1
  C  817  1  0.25282800  0.33643300  0.14399400  1
  C  818  1  0.21490400  0.34467800  0.13744200  1
  C  820  1  0.31525200  0.37809000  0.15939500  1
  C  823  1  0.18489800  0.33206400  0.12977200  1
  C  825  1  0.21265400  0.86113700  0.34505400  1
  C  827  1  0.28098900  0.84669500  0.34702400  1
  C  829  1  0.25295000  0.85600000  0.31634800  1
  C  830  1  0.21500600  0.86253100  0.32458800  1
  C  832  1  0.31539000  0.84060400  0.35800000  1
  C  835  1  0.18502100  0.87022600  0.31197700  1
  C  837  1  0.21256900  0.15895400  0.63486100  1
  C  839  1  0.28090900  0.17338400  0.63290600  1
  C  841  1  0.25286200  0.16408200  0.66357300  1
  C  842  1  0.21494200  0.15752900  0.65532700  1
  C  844  1  0.31529600  0.17947400  0.62192700  1
  C  847  1  0.18494000  0.14986600  0.66792200  1
  C  849  1  0.21254100  0.36514300  0.84102900  1
  C  851  1  0.28091000  0.36709800  0.82661900  1
  C  853  1  0.25283300  0.33643300  0.83589900  1
  C  854  1  0.21486900  0.34467500  0.84241200  1
  C  856  1  0.31524300  0.37809700  0.82052300  1
  C  859  1  0.18491200  0.33205100  0.85010900  1
  C  861  1  0.21264500  0.65494900  0.13888100  1
  C  863  1  0.28100800  0.65299200  0.15330200  1
  C  865  1  0.25293200  0.68366200  0.14400600  1
  C  866  1  0.21501300  0.67541400  0.13745400  1
  C  868  1  0.31533000  0.64198000  0.15943900  1
  C  871  1  0.18500800  0.68802600  0.12977600  1
  C  873  1  0.21248900  0.15896700  0.34504700  1
  C  875  1  0.28083000  0.17338000  0.34699600  1
  C  877  1  0.25277700  0.16409800  0.31633300  1
  C  878  1  0.21482300  0.15758400  0.32457800  1
  C  880  1  0.31523000  0.17940000  0.35795000  1
  C  883  1  0.18486000  0.14988600  0.31196200  1
  C  885  1  0.21259500  0.86112100  0.63486900  1
  C  887  1  0.28093900  0.84669500  0.63291500  1
  C  889  1  0.25289200  0.85599600  0.66358100  1
  C  890  1  0.21496800  0.86254400  0.65533500  1
  C  892  1  0.31533000  0.84060300  0.62194100  1
  C  895  1  0.18495900  0.87020700  0.66795000  1
  C  897  1  0.78404200  0.36513700  0.13887300  1
  C  899  1  0.71570900  0.36710400  0.15330900  1
  C  901  1  0.74374100  0.33643000  0.14400700  1
  C  902  1  0.78168700  0.34466900  0.13748200  1
  C  904  1  0.68130800  0.37807900  0.15939700  1
  C  907  1  0.81167900  0.33205600  0.12980300  1
  C  909  1  0.78413000  0.65494700  0.84103700  1
  C  911  1  0.71579000  0.65298900  0.82660700  1
  C  913  1  0.74383200  0.68365900  0.83590800  1
  C  914  1  0.78175000  0.67541200  0.84246100  1
  C  916  1  0.68140500  0.64200800  0.82051300  1
  C  919  1  0.81174800  0.68802500  0.85013200  1
  C  921  1  0.78409200  0.15896500  0.63486800  1
  C  923  1  0.71573400  0.17338100  0.63290600  1
  C  925  1  0.74380100  0.16409900  0.66358000  1
  C  926  1  0.78174700  0.15757200  0.65533600  1
  C  928  1  0.68139900  0.17947300  0.62190200  1
  C  931  1  0.81171700  0.14986900  0.66794500  1
  C  933  1  0.78417700  0.86112200  0.34504800  1
  C  935  1  0.71583700  0.84669200  0.34700800  1
  C  937  1  0.74388200  0.85599400  0.31633800  1
  C  938  1  0.78180000  0.86254700  0.32458300  1
  C  940  1  0.68144900  0.84059800  0.35799000  1
  C  943  1  0.81179800  0.87022100  0.31196900  1
  C  945  1  0.97130900  0.68718500  0.00244700  1
  C  947  1  0.99197000  0.69237400  0.96958200  1
  C  949  1  0.03243600  0.70591200  0.99519800  1
  C  950  1  0.00743900  0.69674900  0.00946300  1
  C  952  1  0.98253300  0.69051400  0.95002700  1
  C  955  1  0.01736400  0.69969100  0.02886500  1
  C  957  1  0.97120900  0.33289600  0.97746700  1
  C  959  1  0.99189500  0.32772000  0.01033600  1
  C  961  1  0.03235400  0.31417600  0.98471800  1
  C  962  1  0.00729600  0.32329500  0.97044900  1
  C  964  1  0.98248000  0.32960700  0.02990600  1
  C  967  1  0.01731700  0.32040000  0.95104300  1
  C  969  1  0.97125900  0.99755400  0.66710000  1
  C  971  1  0.99193300  0.03041900  0.67227200  1
  C  973  1  0.03238600  0.00480500  0.68582600  1
  C  974  1  0.00739100  0.99053800  0.67666500  1
  C  976  1  0.98254600  0.04999000  0.67044600  1
  C  979  1  0.01732500  0.97113400  0.67960300  1
  C  981  1  0.97117400  0.02253200  0.31282100  1
  C  983  1  0.99187600  0.98967900  0.30763100  1
  C  985  1  0.03232800  0.01529100  0.29409500  1
  C  986  1  0.00726900  0.02955000  0.30322600  1
  C  988  1  0.98243900  0.97013000  0.30940400  1
  C  991  1  0.01725800  0.04894400  0.30030100  1
  C  993  1  0.47122300  0.18718800  0.50244500  1
  C  995  1  0.49188400  0.19237700  0.46958000  1
  C  997  1  0.53235100  0.20591400  0.49519500  1
  C  998  1  0.50735700  0.19675000  0.50946100  1
  C  1000  1  0.48244700  0.19051400  0.45002500  1
  C  1003  1  0.51728000  0.19969000  0.52886400  1
  C  1005  1  0.47129500  0.83289400  0.47747000  1
  C  1007  1  0.49198100  0.82771800  0.51033900  1
  C  1009  1  0.53243900  0.81417300  0.48472200  1
  C  1010  1  0.50738200  0.82329300  0.47045300  1
  C  1012  1  0.48256300  0.82960600  0.52990800  1
  C  1015  1  0.51740900  0.82040200  0.45104900  1
  C  1017  1  0.47116900  0.49755900  0.16709800  1
  C  1019  1  0.49186200  0.53042100  0.17226700  1
  C  1021  1  0.53230100  0.50480300  0.18582300  1
  C  1022  1  0.50730400  0.49054000  0.17666200  1
  C  1024  1  0.48250700  0.54999700  0.17044300  1
  C  1027  1  0.51723900  0.47113600  0.17959800  1
  C  1029  1  0.47126000  0.52253500  0.81282500  1
  C  1031  1  0.49194400  0.48968100  0.80763600  1
  C  1033  1  0.53241100  0.51528500  0.79410000  1
  C  1034  1  0.50736000  0.52954700  0.80323000  1
  C  1036  1  0.48247800  0.47013600  0.80941200  1
  C  1039  1  0.51735500  0.54893900  0.80030800  1
  C  1041  1  0.28495400  0.44661300  0.36771000  1
  C  1042  1  0.27084700  0.42933000  0.37609600  1
  C  1043  1  0.22762700  0.42934400  0.37610900  1
  C  1044  1  0.21354000  0.44663300  0.36773600  1
  C  1045  1  0.17008500  0.44988000  0.36580800  1
  C  1046  1  0.14183000  0.43552200  0.37241000  1
  C  1047  1  0.15662900  0.41827700  0.38084600  1
  C  1048  1  0.19979500  0.41504600  0.38275400  1
  C  1049  1  0.29866500  0.41503900  0.38276300  1
  C  1050  1  0.34183300  0.41827400  0.38085700  1
  C  1051  1  0.35662400  0.43552600  0.37242800  1
  C  1052  1  0.32840300  0.44987500  0.36579100  1
  C  1053  1  0.24919100  0.46416900  0.34097900  1
  C  1054  1  0.24944600  0.48430900  0.33865500  1
  C  1055  1  0.24948000  0.49315300  0.35649400  1
  C  1056  1  0.24933700  0.47888400  0.37090400  1
  C  1057  1  0.24930000  0.51303000  0.36072200  1
  C  1058  1  0.24921300  0.51871300  0.38008700  1
  C  1059  1  0.24921000  0.50477800  0.39495200  1
  C  1060  1  0.24923900  0.48470400  0.39055600  1
  C  1061  1  0.24792500  0.45210800  0.32438600  1
  C  1062  1  0.24674000  0.46071800  0.30574300  1
  C  1063  1  0.24677700  0.48121800  0.30420000  1
  C  1064  1  0.24891200  0.49312900  0.32044000  1
  C  1077  1  0.24926600  0.45917400  0.36194700  1
  C  1082  1  0.28484200  0.08172200  0.10399600  1
  C  1083  1  0.27075300  0.09899700  0.09559100  1
  C  1084  1  0.22753300  0.09898100  0.09557700  1
  C  1085  1  0.21344600  0.08169900  0.10397200  1
  C  1086  1  0.16999400  0.07843800  0.10590200  1
  C  1087  1  0.14175200  0.09277700  0.09925300  1
  C  1088  1  0.15653800  0.11004100  0.09084700  1
  C  1089  1  0.19970100  0.11327500  0.08892300  1
  C  1090  1  0.29859400  0.11327600  0.08891500  1
  C  1091  1  0.34176400  0.11003100  0.09083000  1
  C  1092  1  0.35654000  0.09277500  0.09926600  1
  C  1093  1  0.32827800  0.07844800  0.10590500  1
  C  1094  1  0.24910100  0.06408100  0.13071200  1
  C  1095  1  0.24935400  0.04394500  0.13303200  1
  C  1096  1  0.24939800  0.03517800  0.11516700  1
  C  1097  1  0.24924900  0.04947400  0.10077700  1
  C  1098  1  0.24921700  0.01531200  0.11093800  1
  C  1099  1  0.24912600  0.00965200  0.09157500  1
  C  1100  1  0.24911600  0.02359900  0.07672100  1
  C  1101  1  0.24915100  0.04367800  0.08111800  1
  C  1102  1  0.24784300  0.07614800  0.14728800  1
  C  1103  1  0.24659500  0.06757000  0.16594200  1
  C  1104  1  0.24669300  0.04707100  0.16749500  1
  C  1105  1  0.24880600  0.03513900  0.15126300  1
  C  1118  1  0.24916600  0.06915600  0.10976400  1
  C  1123  1  0.28489300  0.63232200  0.91830200  1
  C  1124  1  0.27079200  0.62391300  0.90102800  1
  C  1125  1  0.22757700  0.62390300  0.90103800  1
  C  1126  1  0.21349300  0.63229300  0.91832500  1
  C  1127  1  0.17003500  0.63421700  0.92157300  1
  C  1128  1  0.14179900  0.62757800  0.90722700  1
  C  1129  1  0.15659400  0.61916000  0.88997000  1
  C  1130  1  0.19976100  0.61724600  0.88673900  1
  C  1131  1  0.29860600  0.61724100  0.88673500  1
  C  1132  1  0.34177200  0.61915100  0.88996700  1
  C  1133  1  0.35658300  0.62757300  0.90722000  1
  C  1134  1  0.32834500  0.63422000  0.92156000  1
  C  1135  1  0.24912200  0.65904200  0.93594200  1
  C  1136  1  0.24939700  0.66137900  0.95607800  1
  C  1137  1  0.24944100  0.64352900  0.96487500  1
  C  1138  1  0.24929500  0.62914500  0.95057000  1
  C  1139  1  0.24926100  0.63927400  0.98474000  1
  C  1140  1  0.24917600  0.61988800  0.99035400  1
  C  1141  1  0.24916900  0.60505000  0.97638100  1
  C  1142  1  0.24920100  0.60948200  0.95632100  1
  C  1143  1  0.24788700  0.67560800  0.92386000  1
  C  1144  1  0.24664900  0.69426300  0.93243100  1
  C  1145  1  0.24673700  0.69583100  0.95292900  1
  C  1146  1  0.24883700  0.67960900  0.96487300  1
  C  1159  1  0.24921300  0.63809600  0.93087500  1
  C  1164  1  0.28479600  0.89600100  0.55338400  1
  C  1165  1  0.27070400  0.90440660  0.57065900  1
  C  1166  1  0.22748600  0.90441760  0.57064600  1
  C  1167  1  0.21340500  0.89603400  0.55335500  1
  C  1168  1  0.16995000  0.89410700  0.55010600  1
  C  1169  1  0.14166400  0.90077760  0.56461500  1
  C  1170  1  0.15649400  0.90916460  0.58170800  1
  C  1171  1  0.19966000  0.91107460  0.58494200  1
  C  1172  1  0.29853200  0.91107260  0.58495200  1
  C  1173  1  0.34170200  0.90916660  0.58170900  1
  C  1174  1  0.35649100  0.90073360  0.56445600  1
  C  1175  1  0.32824000  0.89409300  0.55012200  1
  C  1176  1  0.24905300  0.86928300  0.53574100  1
  C  1177  1  0.24929900  0.86695200  0.51560300  1
  C  1178  1  0.24935900  0.88480900  0.50681000  1
  C  1179  1  0.24921300  0.89919500  0.52111400  1
  C  1180  1  0.24917600  0.88907000  0.48694600  1
  C  1181  1  0.24907900  0.90844960  0.48131900  1
  C  1182  1  0.24906300  0.92328560  0.49529000  1
  C  1183  1  0.24911000  0.91885760  0.51535400  1
  C  1184  1  0.24779000  0.85271500  0.54782000  1
  C  1185  1  0.24659200  0.83405800  0.53925000  1
  C  1186  1  0.24665200  0.83249600  0.51875200  1
  C  1187  1  0.24874900  0.84872200  0.50680900  1
  C  1200  1  0.24912600  0.89023300  0.54080600  1
  C  1205  1  0.21343700  0.44638100  0.10419200  1
  C  1206  1  0.22756400  0.42919400  0.09565500  1
  C  1207  1  0.27080600  0.42919400  0.09568200  1
  C  1208  1  0.28488400  0.44638000  0.10425000  1
  C  1209  1  0.32831200  0.44979500  0.10598900  1
  C  1210  1  0.35658600  0.43551400  0.09926600  1
  C  1211  1  0.34184700  0.41824800  0.09084000  1
  C  1212  1  0.29868800  0.41499300  0.08889900  1
  C  1213  1  0.19969500  0.41498500  0.08888000  1
  C  1214  1  0.15653100  0.41824100  0.09081400  1
  C  1215  1  0.14175800  0.43550100  0.09924400  1
  C  1216  1  0.17001600  0.44979000  0.10594700  1
  C  1217  1  0.24874000  0.46361300  0.13132100  1
  C  1218  1  0.24856800  0.48369900  0.13370800  1
  C  1219  1  0.24901300  0.49229300  0.11586000  1
  C  1220  1  0.24915700  0.47831200  0.10125000  1
  C  1221  1  0.24918200  0.51201600  0.11203400  1
  C  1222  1  0.24923200  0.51772200  0.09284500  1
  C  1223  1  0.24921300  0.50436200  0.07697400  1
  C  1224  1  0.24922300  0.48429700  0.08160700  1
  C  1225  1  0.24987000  0.45168600  0.14803200  1
  C  1226  1  0.25055800  0.46049500  0.16665800  1
  C  1227  1  0.24901300  0.48085500  0.16825400  1
  C  1228  1  0.24829800  0.49264000  0.15190500  1
  C  1241  1  0.24911300  0.45873100  0.11024300  1
  C  1246  1  0.21336100  0.08193700  0.36748500  1
  C  1247  1  0.22748600  0.09912400  0.37602300  1
  C  1248  1  0.27072500  0.09912200  0.37599900  1
  C  1249  1  0.28481100  0.08193500  0.36743400  1
  C  1250  1  0.32824200  0.07852100  0.36570000  1
  C  1251  1  0.35651300  0.09280500  0.37241800  1
  C  1252  1  0.34176000  0.11005900  0.38086600  1
  C  1253  1  0.29860000  0.11332400  0.38278700  1
  C  1254  1  0.19961000  0.11333400  0.38279200  1
  C  1255  1  0.15644700  0.11007100  0.38087100  1
  C  1256  1  0.14168000  0.09281600  0.37243100  1
  C  1257  1  0.16994100  0.07852500  0.36573500  1
  C  1258  1  0.24866200  0.06470300  0.34035900  1
  C  1259  1  0.24848600  0.04461700  0.33797300  1
  C  1260  1  0.24893100  0.03602400  0.35582300  1
  C  1261  1  0.24907900  0.05000500  0.37043100  1
  C  1262  1  0.24910100  0.01630100  0.35964800  1
  C  1263  1  0.24914800  0.01059500  0.37883900  1
  C  1264  1  0.24912900  0.02395500  0.39470800  1
  C  1265  1  0.24914100  0.04402000  0.39007400  1
  C  1266  1  0.24978700  0.07662600  0.32364400  1
  C  1267  1  0.25047200  0.06781700  0.30501800  1
  C  1268  1  0.24892500  0.04745800  0.30342500  1
  C  1269  1  0.24821000  0.03567200  0.31977600  1
  C  1282  1  0.24904100  0.06958600  0.36143700  1
  C  1287  1  0.21347400  0.63250900  0.55361800  1
  C  1288  1  0.22760800  0.62397000  0.57080600  1
  C  1289  1  0.27084900  0.62399600  0.57080300  1
  C  1290  1  0.28493200  0.63256000  0.55361600  1
  C  1291  1  0.32836300  0.63429600  0.55020200  1
  C  1292  1  0.35663700  0.62757700  0.56448500  1
  C  1293  1  0.34188900  0.61914000  0.58174500  1
  C  1294  1  0.29872900  0.61720900  0.58500300  1
  C  1295  1  0.19974200  0.61719700  0.58501600  1
  C  1296  1  0.15657800  0.61912600  0.58176200  1
  C  1297  1  0.14180800  0.62754200  0.56449800  1
  C  1298  1  0.17005100  0.63427400  0.55021500  1
  C  1299  1  0.24878400  0.65963100  0.53638600  1
  C  1300  1  0.24861500  0.66202100  0.51630000  1
  C  1301  1  0.24906300  0.64417200  0.50770300  1
  C  1302  1  0.24920100  0.62956400  0.52168200  1
  C  1303  1  0.24922600  0.64034300  0.48797900  1
  C  1304  1  0.24927500  0.62114900  0.48227500  1
  C  1305  1  0.24925400  0.60527900  0.49563800  1
  C  1306  1  0.24926500  0.60992000  0.51569900  1
  C  1307  1  0.24986600  0.67633800  0.54832000  1
  C  1308  1  0.25056400  0.69496200  0.53951400  1
  C  1309  1  0.24904400  0.69656300  0.51915400  1
  C  1310  1  0.24830400  0.68021900  0.50736200  1
  C  1323  1  0.24915700  0.63855400  0.54126600  1
  C  1328  1  0.21339000  0.89580800  0.91806400  1
  C  1329  1  0.22752400  0.90434260  0.90087400  1
  C  1330  1  0.27076300  0.90431960  0.90088000  1
  C  1331  1  0.28484700  0.89575500  0.91806700  1
  C  1332  1  0.32827800  0.89402100  0.92148000  1
  C  1333  1  0.35655600  0.90074660  0.90718000  1
  C  1334  1  0.34180200  0.90916760  0.88993200  1
  C  1335  1  0.29864100  0.91110260  0.88667600  1
  C  1336  1  0.19965700  0.91111660  0.88666300  1
  C  1337  1  0.15649100  0.90920260  0.88992500  1
  C  1338  1  0.14172400  0.90077260  0.90718200  1
  C  1339  1  0.16996900  0.89405000  0.92147000  1
  C  1340  1  0.24869600  0.86868500  0.93529900  1
  C  1341  1  0.24852400  0.86629500  0.95538500  1
  C  1342  1  0.24898100  0.88414500  0.96397800  1
  C  1343  1  0.24911600  0.89875300  0.94999700  1
  C  1344  1  0.24913800  0.88797100  0.98370100  1
  C  1345  1  0.24918800  0.90716260  0.98940700  1
  C  1346  1  0.24916900  0.92303060  0.97604500  1
  C  1347  1  0.24917900  0.91839460  0.95598100  1
  C  1348  1  0.24983500  0.85197400  0.92337400  1
  C  1349  1  0.25046300  0.83334400  0.93217200  1
  C  1350  1  0.24892500  0.83175000  0.95253400  1
  C  1351  1  0.24821600  0.84809800  0.96432400  1
  C  1364  1  0.24907500  0.88976100  0.93041600  1
  C  1369  1  0.78562500  0.94709360  0.86751200  1
  C  1370  1  0.77099300  0.92980460  0.87568200  1
  C  1371  1  0.72732100  0.92981160  0.87569100  1
  C  1372  1  0.71271400  0.94711360  0.86754600  1
  C  1373  1  0.66880500  0.95060860  0.86621300  1
  C  1374  1  0.64006400  0.93627260  0.87276600  1
  C  1375  1  0.65619800  0.91896060  0.88074900  1
  C  1376  1  0.69938300  0.91560060  0.88234300  1
  C  1377  1  0.79890900  0.91558760  0.88234300  1
  C  1378  1  0.84209800  0.91893660  0.88076900  1
  C  1379  1  0.85818800  0.93629660  0.87289800  1
  C  1380  1  0.82953500  0.95059560  0.86618200  1
  C  1381  1  0.74909900  0.96435160  0.84093000  1
  C  1382  1  0.74935600  0.98446860  0.83860400  1
  C  1383  1  0.74939700  0.99325860  0.85646700  1
  C  1384  1  0.74925600  0.97899860  0.87086800  1
  C  1385  1  0.74921500  0.01310300  0.86072800  1
  C  1386  1  0.74914000  0.01873000  0.88010300  1
  C  1387  1  0.74914000  0.00477800  0.89495600  1
  C  1388  1  0.74916200  0.98471360  0.89054600  1
  C  1389  1  0.74784200  0.95221860  0.82439700  1
  C  1390  1  0.74665400  0.96076260  0.80573200  1
  C  1391  1  0.74668800  0.98126260  0.80415700  1
  C  1392  1  0.74882600  0.99322660  0.82036700  1
  C  1405  1  0.74918100  0.95939860  0.86185500  1
  C  1410  1  0.78569700  0.58122600  0.60417100  1
  C  1411  1  0.77106500  0.59851200  0.59600000  1
  C  1412  1  0.72739400  0.59850300  0.59599200  1
  C  1413  1  0.71278300  0.58120500  0.60414600  1
  C  1414  1  0.66887000  0.57771600  0.60550200  1
  C  1415  1  0.64019500  0.59200000  0.59876700  1
  C  1416  1  0.65627900  0.60938300  0.59093900  1
  C  1417  1  0.69946800  0.61272400  0.58934400  1
  C  1418  1  0.79898400  0.61272200  0.58933100  1
  C  1419  1  0.84217300  0.60937100  0.59091900  1
  C  1420  1  0.85830100  0.59202400  0.59881600  1
  C  1421  1  0.82960700  0.57772500  0.60549200  1
  C  1422  1  0.74919000  0.56396400  0.63076100  1
  C  1423  1  0.74943800  0.54384700  0.63308400  1
  C  1424  1  0.74947800  0.53505400  0.61522200  1
  C  1425  1  0.74933700  0.54931800  0.60082600  1
  C  1426  1  0.74929700  0.51521000  0.61095200  1
  C  1427  1  0.74922400  0.50959200  0.59157200  1
  C  1428  1  0.74924000  0.52355200  0.57672600  1
  C  1429  1  0.74925300  0.54361200  0.58114600  1
  C  1430  1  0.74793000  0.57609800  0.64729500  1
  C  1431  1  0.74667500  0.56755200  0.66595700  1
  C  1432  1  0.74677300  0.54705300  0.66753100  1
  C  1433  1  0.74888900  0.53508700  0.65132000  1
  C  1446  1  0.74925900  0.56892100  0.60983600  1
  C  1451  1  0.78556500  0.13249400  0.41877000  1
  C  1452  1  0.77093600  0.12431800  0.40148500  1
  C  1453  1  0.72726500  0.12431200  0.40149400  1
  C  1454  1  0.71265100  0.13247100  0.41879100  1
  C  1455  1  0.66873900  0.13381600  0.42228300  1
  C  1456  1  0.64006700  0.12708900  0.40799700  1
  C  1457  1  0.65615400  0.11924600  0.39062200  1
  C  1458  1  0.69934200  0.11766200  0.38727300  1
  C  1459  1  0.79885900  0.11765000  0.38727500  1
  C  1460  1  0.84204400  0.11923700  0.39062500  1
  C  1461  1  0.85816900  0.12713300  0.40797200  1
  C  1462  1  0.82947500  0.13381200  0.42227100  1
  C  1463  1  0.74904300  0.15908300  0.43603600  1
  C  1464  1  0.74931200  0.16140700  0.45615500  1
  C  1465  1  0.74935600  0.14354500  0.46494900  1
  C  1466  1  0.74920900  0.12915700  0.45067700  1
  C  1467  1  0.74917400  0.13926100  0.48479200  1
  C  1468  1  0.74908300  0.11987400  0.49039600  1
  C  1469  1  0.74907400  0.10504000  0.47642200  1
  C  1470  1  0.74911200  0.10947600  0.45636800  1
  C  1471  1  0.74780700  0.17561200  0.42390000  1
  C  1472  1  0.74655900  0.19427500  0.43244500  1
  C  1473  1  0.74665000  0.19585300  0.45294400  1
  C  1474  1  0.74875100  0.17964400  0.46491200  1
  C  1487  1  0.74912700  0.13816200  0.43107500  1
  C  1492  1  0.78565300  0.39581800  0.05291300  1
  C  1493  1  0.77101800  0.40399700  0.07019600  1
  C  1494  1  0.72734700  0.40400400  0.07018300  1
  C  1495  1  0.71274900  0.39584200  0.05288500  1
  C  1496  1  0.66884200  0.39450800  0.04937800  1
  C  1497  1  0.64014800  0.40110000  0.06371300  1
  C  1498  1  0.65623200  0.40906400  0.08103900  1
  C  1499  1  0.69941100  0.41066600  0.08439200  1
  C  1500  1  0.79893700  0.41065900  0.08441000  1
  C  1501  1  0.84212600  0.40908000  0.08105600  1
  C  1502  1  0.85825700  0.40118300  0.06371000  1
  C  1503  1  0.82956300  0.39450300  0.04941300  1
  C  1504  1  0.74914900  0.36922900  0.03564300  1
  C  1505  1  0.74938400  0.36690500  0.01552300  1
  C  1506  1  0.74944400  0.38476600  0.00672597  1
  C  1507  1  0.74930000  0.39914900  0.02100400  1
  C  1508  1  0.74926200  0.38906500  0.98688400  1
  C  1509  1  0.74918400  0.40845800  0.98129400  1
  C  1510  1  0.74918100  0.42328200  0.99527900  1
  C  1511  1  0.74920300  0.41883100  0.01532900  1
  C  1512  1  0.74787900  0.35270100  0.04778100  1
  C  1513  1  0.74667200  0.33403900  0.03923600  1
  C  1514  1  0.74673200  0.33246100  0.01873700  1
  C  1515  1  0.74883300  0.34866900  0.00676797  1
  C  1528  1  0.74922400  0.39014800  0.04060600  1
  C  1533  1  0.71260100  0.94685760  0.60437000  1
  C  1534  1  0.72725200  0.92966160  0.59605300  1
  C  1535  1  0.77094900  0.92966160  0.59607600  1
  C  1536  1  0.78555900  0.94685360  0.60442600  1
  C  1537  1  0.82943400  0.95050860  0.60557900  1
  C  1538  1  0.85816600  0.93624960  0.59886600  1
  C  1539  1  0.84211600  0.91890860  0.59091700  1
  C  1540  1  0.79893400  0.91553860  0.58929700  1
  C  1541  1  0.69926700  0.91554560  0.58927400  1
  C  1542  1  0.65608800  0.91892160  0.59090500  1
  C  1543  1  0.63999800  0.93623060  0.59892100  1
  C  1544  1  0.66873900  0.95051560  0.60554000  1
  C  1545  1  0.74865400  0.96371360  0.63136600  1
  C  1546  1  0.74848100  0.98378160  0.63374700  1
  C  1547  1  0.74892700  0.99238060  0.61589700  1
  C  1548  1  0.74907400  0.97842860  0.60128700  1
  C  1549  1  0.74909600  0.01208400  0.61203900  1
  C  1550  1  0.74914600  0.01775900  0.59283700  1
  C  1551  1  0.74912700  0.00438700  0.57697300  1
  C  1552  1  0.74914000  0.98433560  0.58162500  1
  C  1553  1  0.74978300  0.95172860  0.64803700  1
  C  1554  1  0.75047200  0.96051260  0.66666667  1
  C  1555  1  0.74892700  0.98087360  0.66828000  1
  C  1556  1  0.74821200  0.99268560  0.65194900  1
  C  1569  1  0.74903600  0.95893760  0.61031400  1
  C  1574  1  0.71268900  0.58146400  0.86731200  1
  C  1575  1  0.72734000  0.59865900  0.87562500  1
  C  1576  1  0.77103700  0.59865300  0.87560500  1
  C  1577  1  0.78565000  0.58145500  0.86726400  1
  C  1578  1  0.82952800  0.57780400  0.86609900  1
  C  1579  1  0.85825700  0.59206500  0.87281500  1
  C  1580  1  0.84219500  0.60939400  0.88078100  1
  C  1581  1  0.79901900  0.61277200  0.88238700  1
  C  1582  1  0.69935800  0.61278400  0.88239600  1
  C  1583  1  0.65617300  0.60940400  0.88078700  1
  C  1584  1  0.64007600  0.59209500  0.87277700  1
  C  1585  1  0.66882300  0.57781100  0.86614900  1
  C  1586  1  0.74874500  0.56460200  0.84031400  1
  C  1587  1  0.74856900  0.54453400  0.83793300  1
  C  1588  1  0.74901400  0.53593500  0.85578600  1
  C  1589  1  0.74915900  0.54988800  0.87039400  1
  C  1590  1  0.74918700  0.51623400  0.85964200  1
  C  1591  1  0.74923100  0.51055800  0.87884200  1
  C  1592  1  0.74921200  0.52392900  0.89470800  1
  C  1593  1  0.74922400  0.54398000  0.89005600  1
  C  1594  1  0.74983600  0.57658400  0.82364000  1
  C  1595  1  0.75056300  0.56779900  0.80500800  1
  C  1596  1  0.74901100  0.54743800  0.80339800  1
  C  1597  1  0.74829300  0.53562700  0.81973200  1
  C  1610  1  0.74912400  0.56938000  0.86136700  1
  C  1615  1  0.71262600  0.13269000  0.05314100  1
  C  1616  1  0.72729000  0.12437400  0.07033600  1
  C  1617  1  0.77098600  0.12439500  0.07033400  1
  C  1618  1  0.78560300  0.13273400  0.05313800  1
  C  1619  1  0.82948400  0.13389900  0.04949200  1
  C  1620  1  0.85821300  0.12718000  0.06375100  1
  C  1621  1  0.84215400  0.11922600  0.08108500  1
  C  1622  1  0.79897200  0.11761300  0.08445700  1
  C  1623  1  0.69932300  0.11760900  0.08447000  1
  C  1624  1  0.65613800  0.11921300  0.08110300  1
  C  1625  1  0.64007600  0.12707700  0.06373200  1
  C  1626  1  0.66875100  0.13388400  0.04949800  1
  C  1627  1  0.74869800  0.15968100  0.03628700  1
  C  1628  1  0.74852500  0.16206600  0.01621800  1
  C  1629  1  0.74897400  0.14421700  0.00761697  1
  C  1630  1  0.74911200  0.12960800  0.02156800  1
  C  1631  1  0.74914000  0.14035900  0.98791400  1
  C  1632  1  0.74919000  0.12115700  0.98223900  1
  C  1633  1  0.74916800  0.10529400  0.99561200  1
  C  1634  1  0.74917700  0.10994600  0.01566200  1
  C  1635  1  0.74978600  0.17634700  0.04827800  1
  C  1636  1  0.75050100  0.19497700  0.03949600  1
  C  1637  1  0.74896100  0.19659600  0.01913400  1
  C  1638  1  0.74821200  0.18026900  0.00731597  1
  C  1651  1  0.74907100  0.13863400  0.04106100  1
  C  1656  1  0.71271100  0.39562500  0.41853700  1
  C  1657  1  0.72737800  0.40394000  0.40134200  1
  C  1658  1  0.77107400  0.40392000  0.40135000  1
  C  1659  1  0.78568800  0.39557800  0.41854600  1
  C  1660  1  0.82956600  0.39441400  0.42219600  1
  C  1661  1  0.85829400  0.40113100  0.40793600  1
  C  1662  1  0.84223600  0.40908200  0.39059900  1
  C  1663  1  0.79906000  0.41069300  0.38722500  1
  C  1664  1  0.69941100  0.41070100  0.38720400  1
  C  1665  1  0.65622300  0.40912100  0.39058000  1
  C  1666  1  0.64015400  0.40124600  0.40794400  1
  C  1667  1  0.66883600  0.39444000  0.42217700  1
  C  1668  1  0.74878200  0.36863000  0.43540000  1
  C  1669  1  0.74861300  0.36624800  0.45546700  1
  C  1670  1  0.74906500  0.38410100  0.46406600  1
  C  1671  1  0.74919300  0.39870900  0.45011100  1
  C  1672  1  0.74922400  0.38795800  0.48376700  1
  C  1673  1  0.74927100  0.40716100  0.48944200  1
  C  1674  1  0.74925300  0.42302300  0.47606900  1
  C  1675  1  0.74926200  0.41837000  0.45601800  1
  C  1676  1  0.74990800  0.35195900  0.42341700  1
  C  1677  1  0.75052600  0.33333333  0.43219000  1
  C  1678  1  0.74901100  0.33171400  0.45255300  1
  C  1679  1  0.74830900  0.34804500  0.46437100  1
  C  1692  1  0.74915200  0.38968100  0.43062000  1
  C  1697  1  0.24921300  0.54879200  0.43147400  1
  C  1699  1  0.24922300  0.56377900  0.46255100  1
  C  1701  1  0.24921300  0.52990500  0.46075700  1
  C  1702  1  0.24921300  0.53029700  0.44030600  1
  C  1704  1  0.24922900  0.58119500  0.47172800  1
  C  1707  1  0.24924500  0.51288900  0.43033000  1
  C  1709  1  0.24912200  0.97952360  0.04020700  1
  C  1711  1  0.24913500  0.96452460  0.00913297  1
  C  1713  1  0.24912200  0.99840260  0.01092400  1
  C  1714  1  0.24912200  0.99801660  0.03137800  1
  C  1716  1  0.24914400  0.94710260  0.99996200  1
  C  1719  1  0.24916600  0.01543200  0.04135500  1
  C  1721  1  0.24916600  0.56854800  0.02048000  1
  C  1723  1  0.24917900  0.53747500  0.03550100  1
  C  1725  1  0.24916600  0.53924500  0.00163097  1
  C  1726  1  0.24916300  0.55970200  0.00199397  1
  C  1728  1  0.24918500  0.52829200  0.05291200  1
  C  1731  1  0.24919800  0.56962500  0.98454500  1
  C  1733  1  0.24906600  0.95977760  0.45120300  1
  C  1735  1  0.24908800  0.99084960  0.43618900  1
  C  1737  1  0.24906600  0.98907360  0.47006200  1
  C  1738  1  0.24906300  0.96861960  0.46969200  1
  C  1740  1  0.24910400  0.00002900  0.41877300  1
  C  1743  1  0.24913200  0.95868360  0.48712900  1
  C  1745  1  0.74914300  0.04879700  0.93147800  1
  C  1747  1  0.74914300  0.06378800  0.96255400  1
  C  1749  1  0.74914300  0.02990700  0.96075600  1
  C  1750  1  0.74914000  0.03030100  0.94030300  1
  C  1752  1  0.74914300  0.08120900  0.97171900  1
  C  1755  1  0.74914300  0.01289800  0.93031300  1
  C  1757  1  0.74923700  0.47952000  0.54020800  1
  C  1759  1  0.74922800  0.46452400  0.50913500  1
  C  1761  1  0.74923400  0.49840100  0.51092600  1
  C  1762  1  0.74924000  0.49801400  0.53138000  1
  C  1764  1  0.74922400  0.44710500  0.49996500  1
  C  1767  1  0.74923100  0.51542700  0.54135400  1
  C  1769  1  0.74907400  0.06853500  0.52047500  1
  C  1771  1  0.74909300  0.03746200  0.53548100  1
  C  1773  1  0.74907400  0.03924400  0.50160800  1
  C  1774  1  0.74907100  0.05969700  0.50198400  1
  C  1776  1  0.74910200  0.02828700  0.55289700  1
  C  1779  1  0.74912700  0.06964800  0.48455700  1
  C  1781  1  0.74917700  0.45977300  0.95120500  1
  C  1783  1  0.74918100  0.49084400  0.93619100  1
  C  1785  1  0.74917700  0.48907200  0.97006100  1
  C  1786  1  0.74917400  0.46861700  0.96969200  1
  C  1788  1  0.74918400  0.50002400  0.91877800  1
  C  1791  1  0.74919000  0.45868900  0.98713600  1
  C  1793  1  0.03498020  0.40905900  0.38475400  1
  C  1795  1  0.96662100  0.40710800  0.39916800  1
  C  1797  1  0.99468500  0.43777500  0.38988500  1
  C  1798  1  0.03263220  0.42951800  0.38336800  1
  C  1800  1  0.93229000  0.39611000  0.40526200  1
  C  1803  1  0.06262720  0.44210400  0.37568600  1
  C  1805  1  0.03489220  0.11925200  0.08692600  1
  C  1807  1  0.96652100  0.12121000  0.07251100  1
  C  1809  1  0.99459800  0.09054200  0.08180300  1
  C  1810  1  0.03252820  0.09878700  0.08834800  1
  C  1812  1  0.93219900  0.13222000  0.06637400  1
  C  1815  1  0.06254220  0.08616800  0.09601400  1
  C  1817  1  0.03493920  0.61524800  0.88075100  1
  C  1819  1  0.96658100  0.60083300  0.87879600  1
  C  1821  1  0.99465100  0.61011800  0.90946300  1
  C  1822  1  0.03259720  0.61664200  0.90121900  1
  C  1824  1  0.93225300  0.59474000  0.86779500  1
  C  1827  1  0.06258920  0.62433500  0.91382700  1
  C  1829  1  0.03485420  0.91306960  0.59093700  1
  C  1831  1  0.96651200  0.92750060  0.59289000  1
  C  1833  1  0.99456600  0.91819460  0.56222400  1
  C  1834  1  0.03248420  0.91164460  0.57047400  1
  C  1836  1  0.93212100  0.93359460  0.60386800  1
  C  1839  1  0.06244220  0.90402260  0.55802200  1
  C  1841  1  0.46342300  0.40906700  0.08693200  1
  C  1843  1  0.53176600  0.40710700  0.07252000  1
  C  1845  1  0.50371800  0.43777800  0.08180000  1
  C  1846  1  0.46576300  0.42953600  0.08831400  1
  C  1848  1  0.56616200  0.39614500  0.06649400  1
  C  1851  1  0.43577600  0.44215000  0.09599900  1
  C  1853  1  0.46335000  0.11925800  0.38474900  1
  C  1855  1  0.53169200  0.12122100  0.39918000  1
  C  1857  1  0.50365000  0.09054800  0.38987800  1
  C  1858  1  0.46572600  0.09879300  0.38332600  1
  C  1860  1  0.56607400  0.13220500  0.40527900  1
  C  1863  1  0.43572000  0.08617900  0.37565600  1
  C  1865  1  0.46347600  0.61525200  0.59093800  1
  C  1867  1  0.53181100  0.60081000  0.59290800  1
  C  1869  1  0.50377200  0.61011500  0.56223200  1
  C  1870  1  0.46582800  0.61664600  0.57047200  1
  C  1872  1  0.56621200  0.59471900  0.60388400  1
  C  1875  1  0.43584300  0.62434100  0.55786100  1
  C  1877  1  0.46339100  0.91306860  0.88074500  1
  C  1879  1  0.53173100  0.92749860  0.87879000  1
  C  1881  1  0.50368400  0.91819660  0.90945700  1
  C  1882  1  0.46576400  0.91164360  0.90121100  1
  C  1884  1  0.56611800  0.93358860  0.86781100  1
  C  1887  1  0.43576200  0.90398060  0.91380600  1
  C  1889  1  0.46336300  0.11925800  0.08691300  1
  C  1891  1  0.53173200  0.12121300  0.07250300  1
  C  1893  1  0.50365500  0.09054800  0.08178300  1
  C  1894  1  0.46569100  0.09879000  0.08829600  1
  C  1896  1  0.56606500  0.13221200  0.06640700  1
  C  1899  1  0.43573400  0.08616600  0.09599300  1
  C  1901  1  0.46346700  0.40906400  0.38476500  1
  C  1903  1  0.53183000  0.40710700  0.39918600  1
  C  1905  1  0.50375400  0.43777700  0.38989000  1
  C  1906  1  0.46583500  0.42952900  0.38333800  1
  C  1908  1  0.56615200  0.39609500  0.40532300  1
  C  1911  1  0.43583000  0.44214100  0.37566000  1
  C  1913  1  0.46331100  0.91308160  0.59093100  1
  C  1915  1  0.53165200  0.92749460  0.59288000  1
  C  1917  1  0.50359900  0.91821260  0.56221700  1
  C  1918  1  0.46564500  0.91169860  0.57046200  1
  C  1920  1  0.56605200  0.93351460  0.60383400  1
  C  1923  1  0.43568200  0.90400060  0.55784600  1
  C  1925  1  0.46341700  0.61523600  0.88075300  1
  C  1927  1  0.53176100  0.60081000  0.87879900  1
  C  1929  1  0.50371400  0.61011100  0.90946500  1
  C  1930  1  0.46579000  0.61665900  0.90121900  1
  C  1932  1  0.56615200  0.59471800  0.86782500  1
  C  1935  1  0.43578100  0.62432200  0.91383400  1
  C  1937  1  0.03486420  0.11925200  0.38475700  1
  C  1939  1  0.96653100  0.12121900  0.39919300  1
  C  1941  1  0.99456300  0.09054500  0.38989100  1
  C  1942  1  0.03250920  0.09878400  0.38336600  1
  C  1944  1  0.93213000  0.13219400  0.40528100  1
  C  1947  1  0.06250120  0.08617100  0.37568700  1
  C  1949  1  0.03495220  0.40906200  0.08692100  1
  C  1951  1  0.96661200  0.40710400  0.07249100  1
  C  1953  1  0.99465400  0.43777400  0.08179200  1
  C  1954  1  0.03257220  0.42952700  0.08834500  1
  C  1956  1  0.93222700  0.39612300  0.06639700  1
  C  1959  1  0.06257020  0.44214000  0.09601600  1
  C  1961  1  0.03491420  0.91307960  0.88075200  1
  C  1963  1  0.96655600  0.92749560  0.87879000  1
  C  1965  1  0.99462300  0.91821360  0.90946400  1
  C  1966  1  0.03256920  0.91168660  0.90122000  1
  C  1968  1  0.93222100  0.93358760  0.86778600  1
  C  1971  1  0.06253920  0.90398360  0.91382900  1
  C  1973  1  0.03499920  0.61523700  0.59093200  1
  C  1975  1  0.96665900  0.60080700  0.59289200  1
  C  1977  1  0.99470400  0.61010900  0.56222200  1
  C  1978  1  0.03262220  0.61666200  0.57046700  1
  C  1980  1  0.93227100  0.59471300  0.60387400  1
  C  1983  1  0.06262020  0.62433600  0.55785300  1
  C  1985  1  0.22213100  0.44130000  0.24833100  1
  C  1987  1  0.24279200  0.44648900  0.21546600  1
  C  1989  1  0.28325800  0.46002700  0.24108200  1
  C  1990  1  0.25826100  0.45086400  0.25534700  1
  C  1992  1  0.23335500  0.44462900  0.19591100  1
  C  1995  1  0.26818600  0.45380600  0.27474900  1
  C  1997  1  0.22203100  0.08701100  0.22335100  1
  C  1999  1  0.24271700  0.08183500  0.25622000  1
  C  2001  1  0.28317600  0.06829100  0.23060200  1
  C  2002  1  0.25811800  0.07741000  0.21633300  1
  C  2004  1  0.23330200  0.08372200  0.27579000  1
  C  2007  1  0.26813900  0.07451500  0.19692700  1
  C  2009  1  0.22208100  0.75166900  0.91298400  1
  C  2011  1  0.24275500  0.78453400  0.91815600  1
  C  2013  1  0.28320800  0.75892000  0.93171000  1
  C  2014  1  0.25821300  0.74465300  0.92254900  1
  C  2016  1  0.23336800  0.80410500  0.91633000  1
  C  2019  1  0.26814700  0.72524900  0.92548700  1
  C  2021  1  0.22199600  0.77664700  0.55870500  1
  C  2023  1  0.24269800  0.74379400  0.55351500  1
  C  2025  1  0.28315000  0.76940600  0.53997900  1
  C  2026  1  0.25809100  0.78366500  0.54911000  1
  C  2028  1  0.23326100  0.72424500  0.55528800  1
  C  2031  1  0.26808000  0.80305900  0.54618500  1
  C  2033  1  0.72204500  0.94130260  0.74832900  1
  C  2035  1  0.74270600  0.94649160  0.71546400  1
  C  2037  1  0.78317300  0.96002860  0.74107900  1
  C  2038  1  0.75817900  0.95086460  0.75534500  1
  C  2040  1  0.73326900  0.94462860  0.69590900  1
  C  2043  1  0.76810200  0.95380460  0.77474800  1
  C  2045  1  0.72211700  0.58700900  0.72335400  1
  C  2047  1  0.74280300  0.58183300  0.75622300  1
  C  2049  1  0.78326100  0.56828800  0.73060600  1
  C  2050  1  0.75820400  0.57740800  0.71633700  1
  C  2052  1  0.73338500  0.58372100  0.77579200  1
  C  2055  1  0.76823100  0.57451700  0.69693300  1
  C  2057  1  0.72199100  0.25167400  0.41298200  1
  C  2059  1  0.74268400  0.28453600  0.41815100  1
  C  2061  1  0.78312300  0.25891800  0.43170700  1
  C  2062  1  0.75812600  0.24465500  0.42254600  1
  C  2064  1  0.73332900  0.30411200  0.41632700  1
  C  2067  1  0.76806100  0.22525100  0.42548200  1
  C  2069  1  0.72208200  0.27665000  0.05870900  1
  C  2071  1  0.74276600  0.24379600  0.05352000  1
  C  2073  1  0.78323300  0.26940000  0.03998400  1
  C  2074  1  0.75818200  0.28366200  0.04911400  1
  C  2076  1  0.73330000  0.22425100  0.05529600  1
  C  2079  1  0.76817700  0.30305400  0.04619200  1
  N  38  1  0.99838200  0.75879600  0.16606700  1
  N  39  1  0.14582900  0.68480600  0.12815900  1
  N  40  1  0.85102400  0.68491600  0.12811200  1
  N  41  1  0.99157200  0.69717200  0.04306500  1
  N  79  1  0.99828500  0.26132400  0.81385100  1
  N  80  1  0.14570400  0.33517000  0.85178600  1
  N  81  1  0.85090200  0.33526400  0.85175400  1
  N  82  1  0.99148400  0.32290500  0.93685300  1
  N  120  1  0.99833800  0.83389200  0.73854800  1
  N  121  1  0.14578200  0.87183500  0.66473200  1
  N  122  1  0.85094900  0.87184300  0.66473200  1
  N  123  1  0.99153500  0.95693300  0.67708600  1
  N  161  1  0.99822800  0.18619000  0.24132000  1
  N  162  1  0.14566600  0.14822800  0.31511900  1
  N  163  1  0.85094600  0.14813400  0.31491200  1
  N  164  1  0.99145000  0.06314600  0.30281200  1
  N  202  1  0.99837900  0.75622200  0.81235800  1
  N  203  1  0.85092000  0.68479300  0.85174800  1
  N  204  1  0.14578300  0.68480700  0.85175100  1
  N  205  1  0.00742700  0.69865600  0.93792400  1
  N  243  1  0.99829100  0.26386800  0.16755800  1
  N  244  1  0.85084800  0.33528900  0.12817300  1
  N  245  1  0.14571900  0.33528700  0.12815100  1
  N  246  1  0.00736900  0.32144300  0.04199400  1
  N  284  1  0.99842000  0.83242500  0.24379300  1
  N  285  1  0.85097100  0.87182500  0.31520200  1
  N  286  1  0.14584200  0.87184600  0.31519900  1
  N  287  1  0.00739700  0.95799900  0.30134400  1
  N  325  1  0.99833500  0.18765000  0.73612800  1
  N  326  1  0.85088900  0.14826000  0.66471500  1
  N  327  1  0.14574800  0.14822900  0.66474100  1
  N  328  1  0.00745300  0.06210100  0.67855200  1
  N  366  1  0.49831500  0.25882100  0.66605100  1
  N  367  1  0.64787700  0.18404700  0.63124600  1
  N  368  1  0.34881800  0.18408300  0.63123600  1
  N  369  1  0.49149200  0.19718000  0.54306900  1
  N  407  1  0.49842100  0.76130900  0.31384700  1
  N  408  1  0.64794600  0.83599800  0.34866600  1
  N  409  1  0.34887500  0.83598700  0.34866700  1
  N  410  1  0.49156800  0.82290200  0.43686000  1
  N  448  1  0.49824300  0.33391100  0.23862900  1
  N  449  1  0.64781100  0.36875000  0.16400100  1
  N  450  1  0.34874300  0.36876000  0.16400900  1
  N  451  1  0.49144500  0.45693600  0.17708700  1
  N  489  1  0.49835200  0.68619700  0.74133700  1
  N  490  1  0.64789900  0.65133500  0.81591400  1
  N  491  1  0.34888100  0.65131800  0.81595600  1
  N  492  1  0.49153600  0.56313800  0.80281300  1
  N  530  1  0.49829300  0.25622100  0.31235300  1
  N  531  1  0.34877800  0.18403300  0.34865600  1
  N  532  1  0.64778300  0.18408000  0.34866200  1
  N  533  1  0.50734700  0.19865900  0.43792600  1
  N  571  1  0.49837700  0.76386200  0.66756000  1
  N  572  1  0.34885600  0.83602100  0.63126100  1
  N  573  1  0.64789600  0.83604400  0.63124400  1
  N  574  1  0.50746000  0.82144100  0.54199100  1
  N  612  1  0.49833700  0.33244000  0.74378300  1
  N  613  1  0.34875300  0.36874100  0.81595600  1
  N  614  1  0.64785500  0.36875800  0.81593600  1
  N  615  1  0.50739800  0.45799900  0.80133500  1
  N  653  1  0.49842100  0.68764600  0.23613300  1
  N  654  1  0.34883100  0.65134700  0.16397700  1
  N  655  1  0.64793300  0.65132900  0.16395900  1
  N  656  1  0.50746000  0.56208800  0.17854900  1
  N  658  1  0.99839800  0.81048000  0.19693400  1
  N  660  1  0.99839800  0.79225500  0.22551000  1
  N  670  1  0.99831000  0.20960100  0.78298100  1
  N  672  1  0.99831000  0.22782000  0.75440600  1
  N  682  1  0.99835400  0.80309700  0.79041300  1
  N  684  1  0.99835400  0.77450500  0.77221800  1
  N  694  1  0.99826000  0.21700000  0.18950400  1
  N  696  1  0.99826000  0.24558700  0.20770600  1
  N  706  1  0.49832100  0.31048500  0.69693700  1
  N  708  1  0.49832100  0.29226100  0.72550900  1
  N  718  1  0.49840900  0.70959900  0.28298300  1
  N  720  1  0.49840900  0.72781800  0.25440700  1
  N  730  1  0.49826500  0.30308100  0.29040300  1
  N  732  1  0.49826500  0.27449900  0.27219400  1
  N  742  1  0.49835900  0.71699300  0.68950600  1
  N  744  1  0.49835900  0.74558200  0.70770600  1
  N  754  1  0.75146900  0.64456000  0.14636500  1
  N  756  1  0.71279600  0.67254900  0.15135900  1
  N  766  1  0.75138800  0.37552400  0.83353700  1
  N  768  1  0.71271700  0.34753900  0.82854400  1
  N  778  1  0.75143200  0.85363800  0.62448100  1
  N  780  1  0.71275800  0.84864300  0.65246500  1
  N  790  1  0.75136000  0.16646500  0.35544100  1
  N  792  1  0.71269600  0.17146200  0.32745200  1
  N  802  1  0.24529100  0.64455900  0.83356300  1
  N  804  1  0.28396600  0.67254600  0.82856800  1
  N  814  1  0.24519600  0.37553500  0.14637500  1
  N  816  1  0.28387000  0.34755000  0.15137400  1
  N  826  1  0.24532100  0.85362800  0.35544800  1
  N  828  1  0.28399600  0.84862700  0.32746700  1
  N  838  1  0.24524000  0.16646400  0.62447300  1
  N  840  1  0.28390800  0.17146200  0.65246000  1
  N  850  1  0.24523700  0.37552900  0.83353800  1
  N  852  1  0.28390700  0.34754300  0.82854500  1
  N  862  1  0.24532300  0.64456300  0.14639100  1
  N  864  1  0.28398500  0.67254800  0.15138500  1
  N  874  1  0.24518300  0.16645400  0.35543500  1
  N  876  1  0.28385100  0.17144700  0.32744400  1
  N  886  1  0.24526900  0.85361200  0.62447900  1
  N  888  1  0.28393900  0.84861800  0.65246800  1
  N  898  1  0.75137200  0.37553000  0.14637900  1
  N  900  1  0.71269900  0.34754900  0.15137700  1
  N  910  1  0.75146300  0.64455700  0.83352600  1
  N  912  1  0.71279000  0.67254400  0.82852900  1
  N  922  1  0.75140700  0.16646100  0.62447800  1
  N  924  1  0.71273600  0.17145600  0.65246300  1
  N  934  1  0.75150700  0.85361200  0.35543900  1
  N  936  1  0.71284000  0.84861400  0.32745400  1
  N  946  1  0.96499400  0.68523700  0.98306700  1
  N  948  1  0.02442700  0.70342600  0.97610800  1
  N  958  1  0.96492200  0.33486200  0.99685000  1
  N  960  1  0.02435800  0.31667300  0.00380900  1
  N  970  1  0.96494700  0.01693400  0.66514100  1
  N  972  1  0.02438100  0.02389300  0.68332900  1
  N  982  1  0.96486600  0.00315000  0.31477000  1
  N  984  1  0.02431800  0.99620300  0.29657500  1
  N  994  1  0.46490800  0.18523800  0.48306500  1
  N  996  1  0.52434100  0.20342800  0.47610500  1
  N  1006  1  0.46500500  0.83486000  0.49685300  1
  N  1008  1  0.52444100  0.81667000  0.50381300  1
  N  1018  1  0.46486800  0.51694000  0.16513800  1
  N  1020  1  0.52430600  0.52389300  0.18332500  1
  N  1030  1  0.46494300  0.50315300  0.81477200  1
  N  1032  1  0.52439100  0.49619900  0.79657800  1
  N  1078  1  0.24920400  0.51291100  0.41195100  1
  N  1079  1  0.39665100  0.43892100  0.37404300  1
  N  1080  1  0.10184600  0.43903100  0.37399600  1
  N  1081  1  0.24239400  0.45128700  0.28894900  1
  N  1119  1  0.24910700  0.01543900  0.05973500  1
  N  1120  1  0.39652600  0.08928500  0.09767000  1
  N  1121  1  0.10172400  0.08937900  0.09763800  1
  N  1122  1  0.24230600  0.07702000  0.18273700  1
  N  1160  1  0.24916000  0.58800700  0.98443200  1
  N  1161  1  0.39660400  0.62595000  0.91061600  1
  N  1162  1  0.10177100  0.62595800  0.91061600  1
  N  1163  1  0.24235700  0.71104800  0.92297000  1
  N  1201  1  0.24905000  0.94030460  0.48720400  1
  N  1202  1  0.39648800  0.90234260  0.56100300  1
  N  1203  1  0.10176800  0.90224860  0.56079600  1
  N  1204  1  0.24227200  0.81726100  0.54869600  1
  N  1242  1  0.24920100  0.51033700  0.05824200  1
  N  1243  1  0.10174200  0.43890800  0.09763200  1
  N  1244  1  0.39660500  0.43892200  0.09763500  1
  N  1245  1  0.25824900  0.45277100  0.18380800  1
  N  1283  1  0.24911300  0.01798300  0.41344200  1
  N  1284  1  0.10167000  0.08940400  0.37405700  1
  N  1285  1  0.39654100  0.08940200  0.37403500  1
  N  1286  1  0.25819100  0.07555800  0.28787800  1
  N  1324  1  0.24924200  0.58654000  0.48967700  1
  N  1325  1  0.10179300  0.62594000  0.56108600  1
  N  1326  1  0.39666400  0.62596100  0.56108300  1
  N  1327  1  0.25821900  0.71211400  0.54722800  1
  N  1365  1  0.24915700  0.94176460  0.98201200  1
  N  1366  1  0.10171100  0.90237460  0.91059900  1
  N  1367  1  0.39657000  0.90234360  0.91062500  1
  N  1368  1  0.25827500  0.81621600  0.92443600  1
  N  1406  1  0.74913700  0.01293600  0.91193500  1
  N  1407  1  0.89869900  0.93816160  0.87713000  1
  N  1408  1  0.59964000  0.93819760  0.87712000  1
  N  1409  1  0.74231400  0.95129460  0.78895300  1
  N  1447  1  0.74924300  0.51542400  0.55973100  1
  N  1448  1  0.89876800  0.59011300  0.59455000  1
  N  1449  1  0.59969700  0.59010200  0.59455100  1
  N  1450  1  0.74239000  0.57701700  0.68274400  1
  N  1488  1  0.74906500  0.08802600  0.48451300  1
  N  1489  1  0.89863300  0.12286500  0.40988500  1
  N  1490  1  0.59956500  0.12287500  0.40989300  1
  N  1491  1  0.74226700  0.21105100  0.42297100  1
  N  1529  1  0.74917400  0.44031200  0.98722100  1
  N  1530  1  0.89872100  0.40545000  0.06179800  1
  N  1531  1  0.59970300  0.40543300  0.06184000  1
  N  1532  1  0.74235800  0.31725300  0.04869700  1
  N  1570  1  0.74911500  0.01033600  0.55823700  1
  N  1571  1  0.59960000  0.93814760  0.59454000  1
  N  1572  1  0.89860500  0.93819460  0.59454600  1
  N  1573  1  0.75816900  0.95277360  0.68381000  1
  N  1611  1  0.74919900  0.51797700  0.91344400  1
  N  1612  1  0.59967800  0.59013600  0.87714500  1
  N  1613  1  0.89871800  0.59015900  0.87712800  1
  N  1614  1  0.75828200  0.57555600  0.78787500  1
  N  1652  1  0.74915900  0.08655500  0.98966700  1
  N  1653  1  0.59957500  0.12285600  0.06184000  1
  N  1654  1  0.89867700  0.12287300  0.06182000  1
  N  1655  1  0.75822000  0.21211400  0.04721900  1
  N  1693  1  0.74924300  0.44176100  0.48201700  1
  N  1694  1  0.59965300  0.40546200  0.40986100  1
  N  1695  1  0.89875500  0.40544400  0.40984300  1
  N  1696  1  0.75828200  0.31620300  0.42443300  1
  N  1698  1  0.24922000  0.56459500  0.44281800  1
  N  1700  1  0.24922000  0.54637000  0.47139400  1
  N  1710  1  0.24913200  0.96371560  0.02886500  1
  N  1712  1  0.24913200  0.98193460  0.00028997  1
  N  1722  1  0.24917600  0.55721200  0.03629700  1
  N  1724  1  0.24917600  0.52862000  0.01810200  1
  N  1734  1  0.24908200  0.97111460  0.43538800  1
  N  1736  1  0.24908200  0.99970160  0.45359000  1
  N  1746  1  0.74914300  0.06460000  0.94282100  1
  N  1748  1  0.74914300  0.04637600  0.97139300  1
  N  1758  1  0.74923100  0.46371400  0.52886700  1
  N  1760  1  0.74923100  0.48193300  0.50029100  1
  N  1770  1  0.74908700  0.05719600  0.53628700  1
  N  1772  1  0.74908700  0.02861400  0.51807800  1
  N  1782  1  0.74918100  0.47110800  0.93539000  1
  N  1784  1  0.74918100  0.49969700  0.95359000  1
  N  1794  1  0.00229123  0.39867500  0.39224900  1
  N  1796  1  0.96361800  0.42666400  0.39724300  1
  N  1806  1  0.00221023  0.12963900  0.07942100  1
  N  1808  1  0.96353900  0.10165400  0.07442800  1
  N  1818  1  0.00225423  0.60775300  0.87036500  1
  N  1820  1  0.96358000  0.60275800  0.89834900  1
  N  1830  1  0.00218223  0.92057960  0.60132500  1
  N  1832  1  0.96351800  0.92557660  0.57333600  1
  N  1842  1  0.49611300  0.39867400  0.07944700  1
  N  1844  1  0.53478800  0.42666100  0.07445200  1
  N  1854  1  0.49601800  0.12965000  0.39225900  1
  N  1856  1  0.53469200  0.10166500  0.39725800  1
  N  1866  1  0.49614300  0.60774300  0.60133200  1
  N  1868  1  0.53481800  0.60274200  0.57335100  1
  N  1878  1  0.49606200  0.92057860  0.87035700  1
  N  1880  1  0.53473000  0.92557660  0.89834400  1
  N  1890  1  0.49605900  0.12964400  0.07942200  1
  N  1892  1  0.53472900  0.10165800  0.07442900  1
  N  1902  1  0.49614500  0.39867800  0.39227500  1
  N  1904  1  0.53480700  0.42666300  0.39726900  1
  N  1914  1  0.49600500  0.92056860  0.60131900  1
  N  1916  1  0.53467300  0.92556160  0.57332800  1
  N  1926  1  0.49609100  0.60772700  0.87036300  1
  N  1928  1  0.53476100  0.60273300  0.89835200  1
  N  1938  1  0.00219423  0.12964500  0.39226300  1
  N  1940  1  0.96352100  0.10166400  0.39726100  1
  N  1950  1  0.00228523  0.39867200  0.07941000  1
  N  1952  1  0.96361200  0.42665900  0.07441300  1
  N  1962  1  0.00222923  0.92057560  0.87036200  1
  N  1964  1  0.96355800  0.92557060  0.89834700  1
  N  1974  1  0.00232923  0.60772700  0.60132300  1
  N  1976  1  0.96366200  0.60272900  0.57333800  1
  N  1986  1  0.21581600  0.43935200  0.22895100  1
  N  1988  1  0.27524900  0.45754100  0.22199200  1
  N  1998  1  0.21574400  0.08897700  0.24273400  1
  N  2000  1  0.27518000  0.07078800  0.24969300  1
  N  2010  1  0.21576900  0.77104900  0.91102500  1
  N  2012  1  0.27520300  0.77800800  0.92921300  1
  N  2022  1  0.21568800  0.75726500  0.56065400  1
  N  2024  1  0.27514000  0.75031800  0.54245900  1
  N  2034  1  0.71573000  0.93935260  0.72894900  1
  N  2036  1  0.77516300  0.95754260  0.72198900  1
  N  2046  1  0.71582700  0.58897500  0.74273700  1
  N  2048  1  0.77526300  0.57078500  0.74969700  1
  N  2058  1  0.71569000  0.27105500  0.41102200  1
  N  2060  1  0.77512800  0.27800800  0.42920900  1
  N  2070  1  0.71576500  0.25726800  0.06065600  1
  N  2072  1  0.77521300  0.25031400  0.04246200  1
