# generated using pymatgen
data_H14(C6N)3
_symmetry_space_group_name_H-M   'P 1'
_cell_length_a   48.98080000
_cell_length_b   49.17460000
_cell_length_c   82.91370000
_cell_angle_alpha   90.00000000
_cell_angle_beta   90.00000000
_cell_angle_gamma   90.00000000
_symmetry_Int_Tables_number   1
_chemical_formula_structural   H14(C6N)3
_chemical_formula_sum   'H896 C1152 N192'
_cell_volume   199706.87040677
_cell_formula_units_Z   64
loop_
 _symmetry_equiv_pos_site_id
 _symmetry_equiv_pos_as_xyz
  1  'x, y, z'
loop_
 _atom_site_type_symbol
 _atom_site_label
 _atom_site_symmetry_multiplicity
 _atom_site_fract_x
 _atom_site_fract_y
 _atom_site_fract_z
 _atom_site_occupancy
  H  7  1  0.20851200  0.07893600  0.09904800  1
  H  8  1  0.24550200  0.02492900  0.06654000  1
  H  15  1  0.12493100  0.16124700  0.08673600  1
  H  16  1  0.20534000  0.13482900  0.07955900  1
  H  19  1  0.17247300  0.10084100  0.04792300  1
  H  20  1  0.18730600  0.07993200  0.03517500  1
  H  21  1  0.11884500  0.06681700  0.07736000  1
  H  22  1  0.15050400  0.05617900  0.07580200  1
  H  29  1  0.35023100  0.92298000  0.59905900  1
  H  30  1  0.31325100  0.97700400  0.56655300  1
  H  37  1  0.43380400  0.84066500  0.58673100  1
  H  38  1  0.35339300  0.86709100  0.57956300  1
  H  41  1  0.38624700  0.90106200  0.54792900  1
  H  42  1  0.37142300  0.92198100  0.53518300  1
  H  43  1  0.43989500  0.93510000  0.57736100  1
  H  44  1  0.40823300  0.94574000  0.57581200  1
  H  51  1  0.20488600  0.93016000  0.35017600  1
  H  52  1  0.25804400  0.96678700  0.31696800  1
  H  59  1  0.12125900  0.84734300  0.33866600  1
  H  60  1  0.14880300  0.92713200  0.33156700  1
  H  63  1  0.18195300  0.89309900  0.29949500  1
  H  64  1  0.20249900  0.90777300  0.28646400  1
  H  65  1  0.21576600  0.83998800  0.32881900  1
  H  66  1  0.22684200  0.87137600  0.32706100  1
  H  73  1  0.35383600  0.07175800  0.85017200  1
  H  74  1  0.30073000  0.03510800  0.81694500  1
  H  81  1  0.43746300  0.15458500  0.83868100  1
  H  82  1  0.40994600  0.07479500  0.83156200  1
  H  85  1  0.37675800  0.10888700  0.79949700  1
  H  86  1  0.35624800  0.09417700  0.78646400  1
  H  87  1  0.34295300  0.16191900  0.82883900  1
  H  88  1  0.33189300  0.13052900  0.82705900  1
  H  95  1  0.34936100  0.08044300  0.40930700  1
  H  96  1  0.31560300  0.02179500  0.44016600  1
  H  103  1  0.43327600  0.16108300  0.42150600  1
  H  104  1  0.35302800  0.13451600  0.42914500  1
  H  107  1  0.38774800  0.09729800  0.46046900  1
  H  108  1  0.37529800  0.07374200  0.47245800  1
  H  109  1  0.43970100  0.06656100  0.43034800  1
  H  110  1  0.40811300  0.05580700  0.43200600  1
  H  117  1  0.20935700  0.92147300  0.90929400  1
  H  118  1  0.24310100  0.98013900  0.94015000  1
  H  125  1  0.12545000  0.84083400  0.92150800  1
  H  126  1  0.20570100  0.86740000  0.92914000  1
  H  129  1  0.17099000  0.90460900  0.96046300  1
  H  130  1  0.18342600  0.92817600  0.97244800  1
  H  131  1  0.11903000  0.93536000  0.93034400  1
  H  132  1  0.15061900  0.94611400  0.93199600  1
  H  139  1  0.35598000  0.93171600  0.15824900  1
  H  140  1  0.29788000  0.96491800  0.18979100  1
  H  147  1  0.43780200  0.84847600  0.16959700  1
  H  148  1  0.41037700  0.92818000  0.17722300  1
  H  151  1  0.37402400  0.89255000  0.20902000  1
  H  152  1  0.35066800  0.90474900  0.22127600  1
  H  153  1  0.34319800  0.84105800  0.17899300  1
  H  154  1  0.33210500  0.87239900  0.18086400  1
  H  161  1  0.20275200  0.07020100  0.65825200  1
  H  162  1  0.26082000  0.03697600  0.68980600  1
  H  169  1  0.12094100  0.15345100  0.66958700  1
  H  170  1  0.14834400  0.07374600  0.67722600  1
  H  173  1  0.18471300  0.10939100  0.70901800  1
  H  174  1  0.20804300  0.09716300  0.72128100  1
  H  175  1  0.21554600  0.16085000  0.67898500  1
  H  176  1  0.22662700  0.12950700  0.68087200  1
  H  183  1  0.84513300  0.92524100  0.90760600  1
  H  184  1  0.80944100  0.97867300  0.94096200  1
  H  191  1  0.93073400  0.84376400  0.91985000  1
  H  192  1  0.85057600  0.86892400  0.92900600  1
  H  195  1  0.88538100  0.90431400  0.95774200  1
  H  196  1  0.87086300  0.92471500  0.97089600  1
  H  197  1  0.93317500  0.93958200  0.91926500  1
  H  198  1  0.90211800  0.94934900  0.92400700  1
  H  205  1  0.71359100  0.07667400  0.40759200  1
  H  206  1  0.74926900  0.02322600  0.44094900  1
  H  213  1  0.62799700  0.15815700  0.41984400  1
  H  214  1  0.70815700  0.13299400  0.42899800  1
  H  217  1  0.67336800  0.09762500  0.45773300  1
  H  218  1  0.68787500  0.07721600  0.47088500  1
  H  219  1  0.62555300  0.06233700  0.41925500  1
  H  220  1  0.65661000  0.05256900  0.42399900  1
  H  227  1  0.85936900  0.07233300  0.65924700  1
  H  228  1  0.80433900  0.03494600  0.69107800  1
  H  235  1  0.94027000  0.15674500  0.67270700  1
  H  236  1  0.91485200  0.07664200  0.68109400  1
  H  239  1  0.87853300  0.10914100  0.71053800  1
  H  240  1  0.85733900  0.09409300  0.72304700  1
  H  241  1  0.84467900  0.16124500  0.67918900  1
  H  242  1  0.83452900  0.12956000  0.68092800  1
  H  249  1  0.69938400  0.92958300  0.15925000  1
  H  250  1  0.75435400  0.96699000  0.19110700  1
  H  257  1  0.61848300  0.84515900  0.17266200  1
  H  258  1  0.64386400  0.92525800  0.18108700  1
  H  261  1  0.68020900  0.89270600  0.21053000  1
  H  262  1  0.70136400  0.90779100  0.22304700  1
  H  263  1  0.71407100  0.84068300  0.17916100  1
  H  264  1  0.72420800  0.87236800  0.18093200  1
  H  271  1  0.71437700  0.92374500  0.59912100  1
  H  272  1  0.74678600  0.98221600  0.56761200  1
  H  279  1  0.62860500  0.84391300  0.58693400  1
  H  280  1  0.70861400  0.86931200  0.57749000  1
  H  283  1  0.67191800  0.90809000  0.54898700  1
  H  284  1  0.68398000  0.93146000  0.53673200  1
  H  285  1  0.62583100  0.93964300  0.58758600  1
  H  286  1  0.65677900  0.94958700  0.58275800  1
  H  293  1  0.84436900  0.07817600  0.09913500  1
  H  294  1  0.81197900  0.01968200  0.06762900  1
  H  301  1  0.93013500  0.15800500  0.08693700  1
  H  302  1  0.85012400  0.13261000  0.07749600  1
  H  305  1  0.88680800  0.09384600  0.04899500  1
  H  306  1  0.87476100  0.07046300  0.03674200  1
  H  307  1  0.93290400  0.06227300  0.08759300  1
  H  308  1  0.90195300  0.05233200  0.08276500  1
  H  315  1  0.69707100  0.07093100  0.84774900  1
  H  316  1  0.75657400  0.03640100  0.81763700  1
  H  323  1  0.61793800  0.15584400  0.83399100  1
  H  324  1  0.64345000  0.07581100  0.82543500  1
  H  327  1  0.68316100  0.11003400  0.79649700  1
  H  328  1  0.70701700  0.09723100  0.78481200  1
  H  329  1  0.71367100  0.16035600  0.82839900  1
  H  330  1  0.72386900  0.12870000  0.82667400  1
  H  337  1  0.86166400  0.93099000  0.34774600  1
  H  338  1  0.80219300  0.96553400  0.31761800  1
  H  345  1  0.94077800  0.84606000  0.33402700  1
  H  346  1  0.91530300  0.92609100  0.32544100  1
  H  349  1  0.87557900  0.89186000  0.29650200  1
  H  350  1  0.85174800  0.90468800  0.28480700  1
  H  351  1  0.84504900  0.84157400  0.32841600  1
  H  352  1  0.83486300  0.87322900  0.32666500  1
  H  359  1  0.71079400  0.58166000  0.59828400  1
  H  360  1  0.74812700  0.52629800  0.56670200  1
  H  367  1  0.62635500  0.66262200  0.58374600  1
  H  368  1  0.70659300  0.63685700  0.57523800  1
  H  371  1  0.67392700  0.60023600  0.54689300  1
  H  372  1  0.68901200  0.57894500  0.53448500  1
  H  373  1  0.62181300  0.56706700  0.57952900  1
  H  374  1  0.65358200  0.55687900  0.57764900  1
  H  381  1  0.84795000  0.42025900  0.09829500  1
  H  382  1  0.81062700  0.47564200  0.06671700  1
  H  389  1  0.93238500  0.33929900  0.08373400  1
  H  390  1  0.85214000  0.36507200  0.07524300  1
  H  393  1  0.88479500  0.40167700  0.04689900  1
  H  394  1  0.86972000  0.42298000  0.03449300  1
  H  395  1  0.93692400  0.43486000  0.07953200  1
  H  396  1  0.90515400  0.44504700  0.07766500  1
  H  403  1  0.70275200  0.43413000  0.84963200  1
  H  404  1  0.75650600  0.46968700  0.81634400  1
  H  411  1  0.62213100  0.34773400  0.83758300  1
  H  412  1  0.64609400  0.42753500  0.82722600  1
  H  415  1  0.68245900  0.39343900  0.79956700  1
  H  416  1  0.70293200  0.40792000  0.78641900  1
  H  417  1  0.71827300  0.34740100  0.83968400  1
  H  418  1  0.72767700  0.37823600  0.83444300  1
  H  425  1  0.85597200  0.56779300  0.34962600  1
  H  426  1  0.80227100  0.53220500  0.31632100  1
  H  433  1  0.93658700  0.65419300  0.33761600  1
  H  434  1  0.91266100  0.57440200  0.32721000  1
  H  437  1  0.87626100  0.60852900  0.29956800  1
  H  438  1  0.85582700  0.59400900  0.28641500  1
  H  439  1  0.84043700  0.65450200  0.33966800  1
  H  440  1  0.83103300  0.62368900  0.33438500  1
  H  447  1  0.84697400  0.58296100  0.91002000  1
  H  448  1  0.81281800  0.52310500  0.93993200  1
  H  455  1  0.93140100  0.66270100  0.92479700  1
  H  456  1  0.85137600  0.63645000  0.93352400  1
  H  459  1  0.88594000  0.59678900  0.96135300  1
  H  460  1  0.87326400  0.57282600  0.97295900  1
  H  461  1  0.93643000  0.56710100  0.92825700  1
  H  462  1  0.90475000  0.55671000  0.93015800  1
  H  469  1  0.71174800  0.41895800  0.41001000  1
  H  470  1  0.74588800  0.47883400  0.43991500  1
  H  477  1  0.62732700  0.33922000  0.42480600  1
  H  478  1  0.70736000  0.36547500  0.43352000  1
  H  481  1  0.67280000  0.40512300  0.46134700  1
  H  482  1  0.68546000  0.42909900  0.47295000  1
  H  483  1  0.62230500  0.43482400  0.42825300  1
  H  484  1  0.65398900  0.44521500  0.43014100  1
  H  491  1  0.85869500  0.43592200  0.65870300  1
  H  492  1  0.79967600  0.46803000  0.69007300  1
  H  499  1  0.93698900  0.34857200  0.67085100  1
  H  500  1  0.91322900  0.42840800  0.68134300  1
  H  503  1  0.87310300  0.39243200  0.70860600  1
  H  504  1  0.84952600  0.40440200  0.72080300  1
  H  505  1  0.84094700  0.34856600  0.66840300  1
  H  506  1  0.83153800  0.37938500  0.67364800  1
  H  513  1  0.70003700  0.56599700  0.15870800  1
  H  514  1  0.75901900  0.53385900  0.19009100  1
  H  521  1  0.62176000  0.65335100  0.17082100  1
  H  522  1  0.64548500  0.57352500  0.18135900  1
  H  525  1  0.68561900  0.60948700  0.20861000  1
  H  526  1  0.70916500  0.59748700  0.22081500  1
  H  527  1  0.71780900  0.65333700  0.16842600  1
  H  528  1  0.72722100  0.62254000  0.17370800  1
  H  535  1  0.34799700  0.42257600  0.40832400  1
  H  536  1  0.31232000  0.47707900  0.44107800  1
  H  543  1  0.43496200  0.34258700  0.42163400  1
  H  544  1  0.35534300  0.36686200  0.43307500  1
  H  547  1  0.38942000  0.40433400  0.45852000  1
  H  548  1  0.37478500  0.42502600  0.47146000  1
  H  549  1  0.43440900  0.43801600  0.41650900  1
  H  550  1  0.40359500  0.44765600  0.42186300  1
  H  557  1  0.21072700  0.57933900  0.90831200  1
  H  558  1  0.24639000  0.52481700  0.94106300  1
  H  565  1  0.12377200  0.65933400  0.92162600  1
  H  566  1  0.20339300  0.63504900  0.93306800  1
  H  569  1  0.16932400  0.59759300  0.95851400  1
  H  570  1  0.18394700  0.57688900  0.97145200  1
  H  571  1  0.12432000  0.56390300  0.91649800  1
  H  572  1  0.15513100  0.55425900  0.92185400  1
  H  579  1  0.35771300  0.56934800  0.15863100  1
  H  580  1  0.30281200  0.53223400  0.19066700  1
  H  587  1  0.43735700  0.65590700  0.17346500  1
  H  588  1  0.41310200  0.57629700  0.18432100  1
  H  591  1  0.37476500  0.60916200  0.20941500  1
  H  592  1  0.35395700  0.59392400  0.22205900  1
  H  593  1  0.34173000  0.65497800  0.16749200  1
  H  594  1  0.33207300  0.62407800  0.17245500  1
  H  601  1  0.20103400  0.43256400  0.65863300  1
  H  602  1  0.25588000  0.46970400  0.69069300  1
  H  609  1  0.12138300  0.34601200  0.67341400  1
  H  610  1  0.14560700  0.42560600  0.68432300  1
  H  613  1  0.18396100  0.39272300  0.70941000  1
  H  614  1  0.20472900  0.40799100  0.72206300  1
  H  615  1  0.21702600  0.34694900  0.66751500  1
  H  616  1  0.22668500  0.37782700  0.67251800  1
  H  623  1  0.21217300  0.42093000  0.09843900  1
  H  624  1  0.24431600  0.48034900  0.06744300  1
  H  631  1  0.12462800  0.34263800  0.08491800  1
  H  632  1  0.20419000  0.36712000  0.07341600  1
  H  635  1  0.16812600  0.40782200  0.04851800  1
  H  636  1  0.18022700  0.43146200  0.03646800  1
  H  637  1  0.12516100  0.43791700  0.09059800  1
  H  638  1  0.15591500  0.44770400  0.08524300  1
  H  645  1  0.34657400  0.58098400  0.59845000  1
  H  646  1  0.31445000  0.52154300  0.56745900  1
  H  653  1  0.43411100  0.65927900  0.58491600  1
  H  654  1  0.35454700  0.63479300  0.57341600  1
  H  657  1  0.39060800  0.59410100  0.54852400  1
  H  658  1  0.37852200  0.57044700  0.53647700  1
  H  659  1  0.43357400  0.56400000  0.59061100  1
  H  660  1  0.40282100  0.55421100  0.58525500  1
  H  667  1  0.19882600  0.56756500  0.34846600  1
  H  668  1  0.25807600  0.53370200  0.31788300  1
  H  675  1  0.12083100  0.65485600  0.33348100  1
  H  676  1  0.14502900  0.57521300  0.32259000  1
  H  679  1  0.18632800  0.60990000  0.29799900  1
  H  680  1  0.20988000  0.59707800  0.28611300  1
  H  681  1  0.21631500  0.65369500  0.33990500  1
  H  682  1  0.22600700  0.62280700  0.33496200  1
  H  689  1  0.35990800  0.43435400  0.84846300  1
  H  690  1  0.30069100  0.46823700  0.81786500  1
  H  697  1  0.43789800  0.34706300  0.83352600  1
  H  698  1  0.41372900  0.42669200  0.82258700  1
  H  701  1  0.37243600  0.39202700  0.79799600  1
  H  702  1  0.34890800  0.40487500  0.78610100  1
  H  703  1  0.34239700  0.34823200  0.83987600  1
  H  704  1  0.33270200  0.37909800  0.83489500  1
  H  711  1  0.20218900  0.22726400  0.05992100  1
  H  712  1  0.19611400  0.17924400  0.06188500  1
  H  719  1  0.21391600  0.27543900  0.09385200  1
  H  720  1  0.20711800  0.32352200  0.09312200  1
  H  721  1  0.13995000  0.31301500  0.06209000  1
  H  722  1  0.15467900  0.18922100  0.10595000  1
  H  724  1  0.14727100  0.23333600  0.11632400  1
  H  725  1  0.15783000  0.26120800  0.10707000  1
  H  727  1  0.14175600  0.24103900  0.06091600  1
  H  728  1  0.12604700  0.26884800  0.05462800  1
  H  735  1  0.35654800  0.77465300  0.55991700  1
  H  736  1  0.36262100  0.82267200  0.56188300  1
  H  743  1  0.34482700  0.72647200  0.59384700  1
  H  744  1  0.35162900  0.67839000  0.59311500  1
  H  745  1  0.41879400  0.68890800  0.56208500  1
  H  746  1  0.40405800  0.81269300  0.60594800  1
  H  748  1  0.41146700  0.76857700  0.61632000  1
  H  749  1  0.40091000  0.74070700  0.60706500  1
  H  751  1  0.41698400  0.76088400  0.56091200  1
  H  752  1  0.43269400  0.73307500  0.55462400  1
  H  759  1  0.05590500  0.92714700  0.31316000  1
  H  760  1  0.10397900  0.92037300  0.31488100  1
  H  767  1  0.00622100  0.93483000  0.34751900  1
  H  768  1  0.95808100  0.92716500  0.34590700  1
  H  769  1  0.97119000  0.86476900  0.31203800  1
  H  770  1  0.09362500  0.87603100  0.35785800  1
  H  772  1  0.04932900  0.86804100  0.36795400  1
  H  773  1  0.02142400  0.87943100  0.35899900  1
  H  775  1  0.04333000  0.86777900  0.31196200  1
  H  776  1  0.01591000  0.85261800  0.30461400  1
  H  783  1  0.50281100  0.07476700  0.81316000  1
  H  784  1  0.45473700  0.08155300  0.81488900  1
  H  791  1  0.55251200  0.06711400  0.84752400  1
  H  792  1  0.60065300  0.07476700  0.84589800  1
  H  793  1  0.58754000  0.13710800  0.81199800  1
  H  794  1  0.46512500  0.12591600  0.85786000  1
  H  796  1  0.50943200  0.13390500  0.86794400  1
  H  797  1  0.53732900  0.12250500  0.85898300  1
  H  799  1  0.51540000  0.13412200  0.81193900  1
  H  800  1  0.54282100  0.14926200  0.80457700  1
  H  807  1  0.35702900  0.22793100  0.44797400  1
  H  808  1  0.36278500  0.17980300  0.44653100  1
  H  815  1  0.34480800  0.27520700  0.41357200  1
  H  816  1  0.35205200  0.32324200  0.41377600  1
  H  817  1  0.41985000  0.31297600  0.44435900  1
  H  818  1  0.40293700  0.18805600  0.40193100  1
  H  820  1  0.41028100  0.23174100  0.39094600  1
  H  821  1  0.40018900  0.25999400  0.39997200  1
  H  823  1  0.41744900  0.24107100  0.44624400  1
  H  824  1  0.43357000  0.26890900  0.45210600  1
  H  831  1  0.20170200  0.77398600  0.94797400  1
  H  832  1  0.19594400  0.82211500  0.94652900  1
  H  839  1  0.21392500  0.72671200  0.91357300  1
  H  840  1  0.20668300  0.67867500  0.91377700  1
  H  841  1  0.13888100  0.68893900  0.94435700  1
  H  842  1  0.15578700  0.81385900  0.90193200  1
  H  844  1  0.14844500  0.77017100  0.89094700  1
  H  845  1  0.15853800  0.74192100  0.89997400  1
  H  847  1  0.14128200  0.76084300  0.94624500  1
  H  848  1  0.12516100  0.73300600  0.95210700  1
  H  855  1  0.50423000  0.92709000  0.19479200  1
  H  856  1  0.45602700  0.92078200  0.19359200  1
  H  863  1  0.55300800  0.93511800  0.15995000  1
  H  864  1  0.60108600  0.92682500  0.16105400  1
  H  865  1  0.58805900  0.86371800  0.19447100  1
  H  866  1  0.46450000  0.87766200  0.15004000  1
  H  868  1  0.50833800  0.86960100  0.13930900  1
  H  869  1  0.53665900  0.88045200  0.14803800  1
  H  871  1  0.51598600  0.86757900  0.19522100  1
  H  872  1  0.54340200  0.85187200  0.20215500  1
  H  879  1  0.05452200  0.07480800  0.69478800  1
  H  880  1  0.10272400  0.08113000  0.69358300  1
  H  887  1  0.00572100  0.06681900  0.65994600  1
  H  888  1  0.95764400  0.07510300  0.66106600  1
  H  889  1  0.97068400  0.13815400  0.69451800  1
  H  890  1  0.09421600  0.12428600  0.65004300  1
  H  892  1  0.05036600  0.13234600  0.63932300  1
  H  893  1  0.02205300  0.12148200  0.64805600  1
  H  895  1  0.04275700  0.13430900  0.69524600  1
  H  896  1  0.01534200  0.14999700  0.70219700  1
  H  903  1  0.85220500  0.77758600  0.94782600  1
  H  904  1  0.85899100  0.82548200  0.94562200  1
  H  911  1  0.84295200  0.72862000  0.91302600  1
  H  912  1  0.85009800  0.68055200  0.91381900  1
  H  913  1  0.91294100  0.69126500  0.94784200  1
  H  914  1  0.90192800  0.81401500  0.90217700  1
  H  916  1  0.90999100  0.76973800  0.89249800  1
  H  917  1  0.89894800  0.74213500  0.90181000  1
  H  919  1  0.91071800  0.76312900  0.94913400  1
  H  920  1  0.92563400  0.73531200  0.95602200  1
  H  927  1  0.70652300  0.22432900  0.44782500  1
  H  928  1  0.69973700  0.17643200  0.44561800  1
  H  935  1  0.71577400  0.27330400  0.41302700  1
  H  936  1  0.70862800  0.32136900  0.41382400  1
  H  937  1  0.64578900  0.31065000  0.44784700  1
  H  938  1  0.65680200  0.18790900  0.40217400  1
  H  940  1  0.64874000  0.23218700  0.39249700  1
  H  941  1  0.65978300  0.25979000  0.40181200  1
  H  943  1  0.64801100  0.23878600  0.44913500  1
  H  944  1  0.63309700  0.26660300  0.45602600  1
  H  951  1  0.70614800  0.77690900  0.55945900  1
  H  952  1  0.69971700  0.82494200  0.56112100  1
  H  959  1  0.71594900  0.72887200  0.59468400  1
  H  960  1  0.70827700  0.68086900  0.59441400  1
  H  961  1  0.64449500  0.69137900  0.56097900  1
  H  962  1  0.65804900  0.81529400  0.60514400  1
  H  964  1  0.65006500  0.77145100  0.61549800  1
  H  965  1  0.66063200  0.74343800  0.60642700  1
  H  967  1  0.64742100  0.76315800  0.55900100  1
  H  968  1  0.63196400  0.73532800  0.55256500  1
  H  975  1  0.85258700  0.22500600  0.05946000  1
  H  976  1  0.85902000  0.17697500  0.06112600  1
  H  983  1  0.84279100  0.27305300  0.09468100  1
  H  984  1  0.85046500  0.32105600  0.09440600  1
  H  985  1  0.91423900  0.31053800  0.06096800  1
  H  986  1  0.90069700  0.18663400  0.10514400  1
  H  988  1  0.90868000  0.23047900  0.11549400  1
  H  989  1  0.89811300  0.25848900  0.10642200  1
  H  991  1  0.91131200  0.23875700  0.05899500  1
  H  992  1  0.92676900  0.26658700  0.05255600  1
  H  999  1  0.55474600  0.42184100  0.80724000  1
  H  1000  1  0.60296200  0.41611500  0.80989600  1
  H  1007  1  0.50652300  0.43557200  0.84142000  1
  H  1008  1  0.45820200  0.42930700  0.84129100  1
  H  1009  1  0.46700100  0.36192200  0.81043000  1
  H  1010  1  0.59151900  0.37767800  0.85474300  1
  H  1012  1  0.54703000  0.37025800  0.86461200  1
  H  1013  1  0.51928500  0.37992600  0.85481600  1
  H  1015  1  0.53922900  0.36290300  0.80845700  1
  H  1016  1  0.51094700  0.34747400  0.80255200  1
  H  1023  1  0.00397900  0.58008400  0.30723800  1
  H  1024  1  0.95576400  0.58582200  0.30989800  1
  H  1031  1  0.05221300  0.56637500  0.34143000  1
  H  1032  1  0.10053400  0.57263100  0.34129000  1
  H  1033  1  0.09173800  0.63995800  0.31038900  1
  H  1034  1  0.96723600  0.62426500  0.35474500  1
  H  1036  1  0.01173000  0.63168300  0.36460300  1
  H  1037  1  0.03946900  0.62201000  0.35480400  1
  H  1039  1  0.01951300  0.63900200  0.30843100  1
  H  1040  1  0.04779700  0.65440900  0.30251100  1
  H  1047  1  0.00535700  0.42161800  0.70080700  1
  H  1048  1  0.95700500  0.41639100  0.69854000  1
  H  1055  1  0.05293400  0.43552500  0.66631100  1
  H  1056  1  0.10117300  0.42869700  0.66599200  1
  H  1057  1  0.09229900  0.36075900  0.69642000  1
  H  1058  1  0.96696600  0.37883600  0.65331100  1
  H  1060  1  0.01110600  0.37122200  0.64298200  1
  H  1061  1  0.03919600  0.38038500  0.65260200  1
  H  1063  1  0.02014900  0.36256100  0.69901800  1
  H  1064  1  0.04837800  0.34664600  0.70454300  1
  H  1071  1  0.55338600  0.58029100  0.20080800  1
  H  1072  1  0.60173700  0.58553200  0.19853700  1
  H  1079  1  0.50579400  0.56641600  0.16630200  1
  H  1080  1  0.45755500  0.57323900  0.16599400  1
  H  1081  1  0.46643100  0.64111500  0.19646600  1
  H  1082  1  0.59174800  0.62310600  0.15331300  1
  H  1084  1  0.54760000  0.63071700  0.14299300  1
  H  1085  1  0.51951800  0.62154600  0.15261500  1
  H  1087  1  0.53858200  0.63933200  0.19904600  1
  H  1088  1  0.51035100  0.65522800  0.20458600  1
  H  1095  1  0.00783100  0.08936500  0.06517800  1
  H  1096  1  0.95921000  0.09070800  0.06479000  1
  H  1103  1  0.04959400  0.08679500  0.10530800  1
  H  1104  1  0.09830700  0.09001000  0.10402000  1
  H  1105  1  0.09211500  0.14141700  0.06362000  1
  H  1106  1  0.95895300  0.13307300  0.10887700  1
  H  1108  1  0.00075000  0.14667700  0.12063400  1
  H  1109  1  0.03078800  0.13977700  0.11250400  1
  H  1111  1  0.01994700  0.14628100  0.06322600  1
  H  1112  1  0.04880200  0.15597500  0.05463600  1
  H  1119  1  0.55090300  0.91255000  0.56517500  1
  H  1120  1  0.59952400  0.91120800  0.56478300  1
  H  1127  1  0.50914200  0.91512000  0.60530700  1
  H  1128  1  0.46042900  0.91190300  0.60401800  1
  H  1129  1  0.46662500  0.86049400  0.56362000  1
  H  1130  1  0.59979000  0.86884800  0.60887400  1
  H  1132  1  0.55799400  0.85525000  0.62063500  1
  H  1133  1  0.52795300  0.86214600  0.61250600  1
  H  1135  1  0.53879200  0.85563200  0.56322700  1
  H  1136  1  0.50993800  0.84593400  0.55463700  1
  H  1143  1  0.19432400  0.73062900  0.31703200  1
  H  1144  1  0.19203200  0.68227500  0.31577300  1
  H  1151  1  0.19399200  0.77097700  0.35690900  1
  H  1152  1  0.19155800  0.81959700  0.35584500  1
  H  1153  1  0.14130300  0.81484300  0.31478300  1
  H  1154  1  0.14364600  0.68097900  0.35769700  1
  H  1156  1  0.12990300  0.72248000  0.36972000  1
  H  1157  1  0.13884800  0.75256700  0.36252700  1
  H  1159  1  0.13609600  0.74295200  0.31361500  1
  H  1160  1  0.12685100  0.77197500  0.30516000  1
  H  1167  1  0.36445900  0.27131300  0.81703100  1
  H  1168  1  0.36674800  0.31966700  0.81579000  1
  H  1175  1  0.36473900  0.23095600  0.85691700  1
  H  1176  1  0.36716000  0.18233500  0.85585900  1
  H  1177  1  0.41742000  0.18706300  0.81479800  1
  H  1178  1  0.41506000  0.32092800  0.85774200  1
  H  1180  1  0.42879800  0.27941800  0.86975300  1
  H  1181  1  0.41987400  0.24933600  0.86254300  1
  H  1183  1  0.42265300  0.25895100  0.81362500  1
  H  1184  1  0.43188700  0.22992300  0.80517100  1
  H  1191  1  0.55093800  0.08940000  0.44202300  1
  H  1192  1  0.59955300  0.09076600  0.44205100  1
  H  1199  1  0.50829300  0.08711700  0.40213000  1
  H  1200  1  0.45961200  0.09022700  0.40383300  1
  H  1201  1  0.46666200  0.14109900  0.44441900  1
  H  1202  1  0.59886100  0.13322600  0.39800100  1
  H  1204  1  0.55681800  0.14688400  0.38658300  1
  H  1205  1  0.52695900  0.13999500  0.39494300  1
  H  1207  1  0.53881500  0.14618500  0.44420100  1
  H  1208  1  0.51015100  0.15567900  0.45308500  1
  H  1215  1  0.00779300  0.91252700  0.94202500  1
  H  1216  1  0.95917700  0.91115700  0.94205800  1
  H  1223  1  0.05043600  0.91480900  0.90213100  1
  H  1224  1  0.09911600  0.91169400  0.90383300  1
  H  1225  1  0.09206500  0.86082000  0.94441700  1
  H  1226  1  0.95986100  0.86870000  0.89800500  1
  H  1228  1  0.00190500  0.85504900  0.88658300  1
  H  1229  1  0.03176400  0.86193800  0.89494100  1
  H  1231  1  0.01991200  0.85574000  0.94420000  1
  H  1232  1  0.04857600  0.84624300  0.95308400  1
  H  1239  1  0.36439800  0.73167400  0.19046200  1
  H  1240  1  0.36640300  0.68330300  0.19148100  1
  H  1247  1  0.36499800  0.77267100  0.15071100  1
  H  1248  1  0.36765600  0.82125300  0.15212500  1
  H  1249  1  0.41759000  0.81544100  0.19327500  1
  H  1250  1  0.41442100  0.68228900  0.14940800  1
  H  1252  1  0.42837800  0.72386100  0.13757100  1
  H  1253  1  0.41973400  0.75390300  0.14495600  1
  H  1255  1  0.42259000  0.74351900  0.19388600  1
  H  1256  1  0.43187500  0.77232500  0.20258300  1
  H  1263  1  0.19428600  0.27027100  0.69046300  1
  H  1264  1  0.19228400  0.31864200  0.69145900  1
  H  1271  1  0.19373900  0.22925600  0.65070600  1
  H  1272  1  0.19109400  0.18067600  0.65211800  1
  H  1273  1  0.14114700  0.18647000  0.69326200  1
  H  1274  1  0.14434000  0.31961200  0.64935900  1
  H  1276  1  0.13039000  0.27803000  0.63753400  1
  H  1277  1  0.13901100  0.24799600  0.64493800  1
  H  1279  1  0.13612400  0.25838900  0.69387400  1
  H  1280  1  0.12684600  0.22958200  0.70256900  1
  H  1287  1  0.86531200  0.27267300  0.69101300  1
  H  1288  1  0.86726400  0.32102900  0.69151300  1
  H  1295  1  0.86586900  0.22990100  0.65123200  1
  H  1296  1  0.86963400  0.18145800  0.65321000  1
  H  1297  1  0.91819800  0.18979500  0.69477700  1
  H  1298  1  0.91267100  0.32092600  0.64843400  1
  H  1300  1  0.92659900  0.27916600  0.63695200  1
  H  1301  1  0.91878400  0.24931100  0.64488200  1
  H  1303  1  0.92257500  0.26164100  0.69422100  1
  H  1304  1  0.93190900  0.23333800  0.70344000  1
  H  1311  1  0.69339400  0.72922600  0.19100600  1
  H  1312  1  0.69144600  0.68086700  0.19149200  1
  H  1319  1  0.69288300  0.77199600  0.15121500  1
  H  1320  1  0.68912700  0.82043900  0.15318300  1
  H  1321  1  0.64054900  0.81213600  0.19474700  1
  H  1322  1  0.64609400  0.68099700  0.14839500  1
  H  1324  1  0.63216800  0.72276100  0.13692100  1
  H  1325  1  0.63996500  0.75261200  0.14486200  1
  H  1327  1  0.63615700  0.74029200  0.19420400  1
  H  1328  1  0.62682700  0.76860200  0.20341800  1
  H  1335  1  0.69324900  0.27190000  0.81688500  1
  H  1336  1  0.69162600  0.32026300  0.81669800  1
  H  1343  1  0.69217900  0.22838400  0.85650700  1
  H  1344  1  0.68824500  0.18001100  0.85414500  1
  H  1345  1  0.64037900  0.18943000  0.81237800  1
  H  1346  1  0.64639600  0.31968700  0.85983800  1
  H  1348  1  0.63213900  0.27783000  0.87103600  1
  H  1349  1  0.63963600  0.24807300  0.86287800  1
  H  1351  1  0.63611000  0.26125700  0.81352700  1
  H  1352  1  0.62685500  0.23319500  0.80402400  1
  H  1359  1  0.86551400  0.72999200  0.31689200  1
  H  1360  1  0.86713100  0.68163200  0.31672200  1
  H  1367  1  0.86653700  0.77352100  0.35651900  1
  H  1368  1  0.87046100  0.82189300  0.35416200  1
  H  1369  1  0.91834500  0.81249600  0.31240100  1
  H  1370  1  0.91230600  0.68224400  0.35988000  1
  H  1372  1  0.92656200  0.72410500  0.37106900  1
  H  1373  1  0.91908200  0.75385800  0.36289700  1
  H  1375  1  0.92262800  0.74066800  0.31354400  1
  H  1376  1  0.93188100  0.76873400  0.30404500  1
  H  1383  1  0.51038500  0.58596500  0.56767400  1
  H  1384  1  0.46187500  0.58780700  0.56684600  1
  H  1391  1  0.55311600  0.59022900  0.60726300  1
  H  1392  1  0.60175400  0.59385500  0.60506100  1
  H  1393  1  0.59303600  0.63895700  0.56224300  1
  H  1394  1  0.46124800  0.63727000  0.60825000  1
  H  1396  1  0.50304000  0.65217600  0.61950500  1
  H  1397  1  0.53313100  0.64354500  0.61204400  1
  H  1399  1  0.52089600  0.64316900  0.56281000  1
  H  1400  1  0.54923900  0.65181000  0.55329100  1
  H  1407  1  0.04835200  0.41595000  0.06766800  1
  H  1408  1  0.09686400  0.41410400  0.06683900  1
  H  1415  1  0.00561700  0.41168800  0.10725900  1
  H  1416  1  0.95698300  0.40806400  0.10505500  1
  H  1417  1  0.96570600  0.36296600  0.06223600  1
  H  1418  1  0.09749000  0.36465300  0.10824900  1
  H  1420  1  0.05569800  0.34975300  0.11950700  1
  H  1421  1  0.02560700  0.35838400  0.11204400  1
  H  1423  1  0.03784700  0.35874800  0.06280800  1
  H  1424  1  0.00950400  0.35010900  0.05328700  1
  H  1431  1  0.04784200  0.58635900  0.93967600  1
  H  1432  1  0.09635900  0.58807800  0.94014900  1
  H  1439  1  0.00428500  0.59070900  0.90027900  1
  H  1440  1  0.95571500  0.59428200  0.90290300  1
  H  1441  1  0.96543900  0.63898400  0.94579100  1
  H  1442  1  0.09627000  0.63709300  0.89856000  1
  H  1444  1  0.05430400  0.65207800  0.88758600  1
  H  1445  1  0.02434700  0.64368300  0.89532300  1
  H  1447  1  0.03753700  0.64343700  0.94455300  1
  H  1448  1  0.00942700  0.65192300  0.95435700  1
  H  1455  1  0.51089000  0.41556800  0.43968000  1
  H  1456  1  0.46237300  0.41384300  0.44015600  1
  H  1463  1  0.55444800  0.41121400  0.40028000  1
  H  1464  1  0.60302000  0.40763500  0.40290500  1
  H  1465  1  0.59328900  0.36294300  0.44579600  1
  H  1466  1  0.46245800  0.36483200  0.39856400  1
  H  1468  1  0.50442600  0.34984900  0.38758800  1
  H  1469  1  0.53438300  0.35824600  0.39532500  1
  H  1471  1  0.52119200  0.35849200  0.44455500  1
  H  1472  1  0.54930100  0.35000600  0.45436100  1
  H  1479  1  0.18033600  0.99848200  0.01674800  1
  H  1480  1  0.17858500  0.02150500  0.04210600  1
  H  1487  1  0.24257400  0.96310400  0.00380500  1
  H  1488  1  0.24066100  0.93828300  0.97894300  1
  H  1489  1  0.19467300  0.00126200  0.95784700  1
  H  1490  1  0.25876700  0.05013200  0.03524100  1
  H  1492  1  0.28268800  0.03846800  0.01116300  1
  H  1493  1  0.26907100  0.01947000  0.99676200  1
  H  1495  1  0.19424800  0.04494100  0.99205000  1
  H  1496  1  0.18431300  0.04084000  0.97312200  1
  H  1503  1  0.37840300  0.00343300  0.51674800  1
  H  1504  1  0.38016300  0.98041600  0.54210900  1
  H  1511  1  0.31614600  0.03880700  0.50381700  1
  H  1512  1  0.31805100  0.06363400  0.47895700  1
  H  1513  1  0.36405100  0.00066900  0.45785500  1
  H  1514  1  0.29997700  0.95179400  0.53525900  1
  H  1516  1  0.27604500  0.96345400  0.51118200  1
  H  1517  1  0.28965800  0.98244600  0.49677800  1
  H  1519  1  0.36448700  0.95698300  0.49205400  1
  H  1520  1  0.37442200  0.96109100  0.47312600  1
  H  1527  1  0.28311700  0.90187600  0.26670600  1
  H  1528  1  0.26130400  0.89992500  0.29246500  1
  H  1535  1  0.31763700  0.96370400  0.25324900  1
  H  1536  1  0.34136000  0.96195900  0.22798100  1
  H  1537  1  0.27700200  0.91657400  0.20777800  1
  H  1538  1  0.23141900  0.97948300  0.28608100  1
  H  1540  1  0.24173300  0.00342700  0.26182200  1
  H  1541  1  0.26023700  0.99004700  0.24710400  1
  H  1543  1  0.23485900  0.91583600  0.24273200  1
  H  1544  1  0.23799700  0.90617000  0.22369500  1
  H  1551  1  0.27562000  0.10002400  0.76671900  1
  H  1552  1  0.29745900  0.10195800  0.79247000  1
  H  1559  1  0.24111100  0.03819400  0.75326100  1
  H  1560  1  0.21736500  0.03992900  0.72800000  1
  H  1561  1  0.28168400  0.08534300  0.70777600  1
  H  1562  1  0.32737300  0.02241900  0.78604900  1
  H  1564  1  0.31704400  0.99849400  0.76178500  1
  H  1565  1  0.29851900  0.01188000  0.74708000  1
  H  1567  1  0.32385500  0.08610500  0.74272000  1
  H  1568  1  0.32069500  0.09576800  0.72368300  1
  H  1575  1  0.87551600  0.00478000  0.99052800  1
  H  1576  1  0.87707200  0.98285000  0.96481100  1
  H  1583  1  0.81490000  0.03935700  0.00411000  1
  H  1584  1  0.81667700  0.06306300  0.02934900  1
  H  1585  1  0.86021600  0.99799000  0.05001300  1
  H  1586  1  0.79777500  0.95212100  0.97203300  1
  H  1588  1  0.77418500  0.96245100  0.99643800  1
  H  1589  1  0.78773100  0.98127800  0.01094400  1
  H  1591  1  0.86104900  0.95600900  0.01504300  1
  H  1592  1  0.87029100  0.95892100  0.03417400  1
  H  1599  1  0.68320800  0.99715000  0.49052800  1
  H  1600  1  0.68164200  0.01907300  0.46481000  1
  H  1607  1  0.74384600  0.96257100  0.50409700  1
  H  1608  1  0.74208000  0.93885800  0.52933400  1
  H  1609  1  0.69852400  0.00391400  0.55000500  1
  H  1610  1  0.76094900  0.04978700  0.47201300  1
  H  1612  1  0.78455200  0.03945700  0.49641500  1
  H  1613  1  0.77101000  0.02063800  0.51092400  1
  H  1615  1  0.69767700  0.04590400  0.51503900  1
  H  1616  1  0.68843700  0.04298600  0.53417000  1
  H  1623  1  0.77557100  0.09904400  0.74089000  1
  H  1624  1  0.79884500  0.10125000  0.71558900  1
  H  1631  1  0.74080000  0.03756300  0.75370100  1
  H  1632  1  0.71566400  0.03950200  0.77848500  1
  H  1633  1  0.77916200  0.08445500  0.79994900  1
  H  1634  1  0.82947300  0.02212900  0.72265500  1
  H  1636  1  0.81801800  0.99806300  0.74670700  1
  H  1637  1  0.79844100  0.01121200  0.76101000  1
  H  1639  1  0.82321000  0.08498100  0.76581600  1
  H  1640  1  0.81909400  0.09463900  0.78479000  1
  H  1647  1  0.78314100  0.90287800  0.24087800  1
  H  1648  1  0.75983800  0.90069200  0.21558600  1
  H  1655  1  0.81791400  0.96436300  0.25368800  1
  H  1656  1  0.84307900  0.96243700  0.27846200  1
  H  1657  1  0.77962700  0.91745300  0.29995100  1
  H  1658  1  0.72920400  0.97980000  0.22269200  1
  H  1660  1  0.74068200  0.00384500  0.24674500  1
  H  1661  1  0.76027700  0.99068800  0.26103500  1
  H  1663  1  0.73554300  0.91690200  0.26583300  1
  H  1664  1  0.73968500  0.90724600  0.28480700  1
  H  1671  1  0.68368800  0.49752900  0.51689300  1
  H  1672  1  0.68163200  0.52077700  0.54217900  1
  H  1679  1  0.74540000  0.46281600  0.50393500  1
  H  1680  1  0.74335400  0.43782500  0.47914100  1
  H  1681  1  0.69802200  0.50104700  0.45780200  1
  H  1682  1  0.76109600  0.55109900  0.53496900  1
  H  1684  1  0.78513200  0.53957900  0.51089700  1
  H  1685  1  0.77182400  0.52009500  0.49662100  1
  H  1687  1  0.69761800  0.54485600  0.49196400  1
  H  1688  1  0.68782800  0.54077700  0.47300500  1
  H  1695  1  0.87504800  0.50440000  0.01689800  1
  H  1696  1  0.87711500  0.48115900  0.04218400  1
  H  1703  1  0.81332000  0.53910500  0.00394800  1
  H  1704  1  0.81535800  0.56410000  0.97915500  1
  H  1705  1  0.86070400  0.50089200  0.95781100  1
  H  1706  1  0.79764900  0.45083000  0.03498700  1
  H  1708  1  0.77360300  0.46234400  0.01091600  1
  H  1709  1  0.78690600  0.48182600  0.99663800  1
  H  1711  1  0.86112100  0.45707700  0.99197100  1
  H  1712  1  0.87091000  0.46116300  0.97301200  1
  H  1719  1  0.78330400  0.40369600  0.76691000  1
  H  1720  1  0.76100000  0.40211000  0.79254100  1
  H  1727  1  0.81838800  0.46385500  0.75367900  1
  H  1728  1  0.84255600  0.46237700  0.72855900  1
  H  1729  1  0.77729200  0.41974700  0.70729500  1
  H  1730  1  0.73029400  0.48112600  0.78525900  1
  H  1732  1  0.74099800  0.50468900  0.76093000  1
  H  1733  1  0.76006700  0.49122300  0.74649200  1
  H  1735  1  0.73466500  0.41847400  0.74206100  1
  H  1736  1  0.73780100  0.40960800  0.72288500  1
  H  1743  1  0.77543400  0.59819300  0.26692500  1
  H  1744  1  0.79776900  0.59976400  0.29254800  1
  H  1751  1  0.74036500  0.53802100  0.25369200  1
  H  1752  1  0.71617200  0.53949000  0.22858000  1
  H  1753  1  0.78138100  0.58217400  0.20729600  1
  H  1754  1  0.82850400  0.52076800  0.28522600  1
  H  1756  1  0.81778300  0.49722600  0.26089200  1
  H  1757  1  0.79869200  0.51069400  0.24646700  1
  H  1759  1  0.82404300  0.58347000  0.24204700  1
  H  1760  1  0.82088000  0.59234000  0.22287300  1
  H  1767  1  0.37839100  0.50537000  0.49027900  1
  H  1768  1  0.37994500  0.48288500  0.46472300  1
  H  1775  1  0.31848000  0.53987400  0.50373000  1
  H  1776  1  0.32009500  0.56400800  0.52882500  1
  H  1777  1  0.36266800  0.49889900  0.55013700  1
  H  1778  1  0.30121800  0.45115900  0.47255100  1
  H  1780  1  0.27775200  0.46176900  0.49695400  1
  H  1781  1  0.29118300  0.48115000  0.51123800  1
  H  1783  1  0.36387300  0.45641000  0.51537600  1
  H  1784  1  0.37275600  0.45951700  0.53455700  1
  H  1791  1  0.18033700  0.49654100  0.99027700  1
  H  1792  1  0.17877400  0.51902200  0.96472100  1
  H  1799  1  0.24027600  0.46204500  0.00371800  1
  H  1800  1  0.23867100  0.43790700  0.02881300  1
  H  1801  1  0.19606800  0.50299100  0.05012900  1
  H  1802  1  0.25750500  0.55074500  0.97253200  1
  H  1804  1  0.28098100  0.54014000  0.99693400  1
  H  1805  1  0.26755400  0.52076200  0.01122100  1
  H  1807  1  0.19484700  0.54548900  0.01537100  1
  H  1808  1  0.18596500  0.54237300  0.03455200  1
  H  1815  1  0.27320500  0.59626700  0.24040600  1
  H  1816  1  0.29562200  0.59850000  0.21482500  1
  H  1823  1  0.23967100  0.53649800  0.25400200  1
  H  1824  1  0.21568000  0.53847500  0.27917100  1
  H  1825  1  0.28122400  0.58125700  0.30003700  1
  H  1826  1  0.32915700  0.52068900  0.22236500  1
  H  1828  1  0.31905300  0.49687000  0.24671800  1
  H  1829  1  0.29936800  0.50974000  0.26106200  1
  H  1831  1  0.32354300  0.58196100  0.26513000  1
  H  1832  1  0.32061100  0.59108100  0.28427600  1
  H  1839  1  0.28549700  0.40566200  0.74039800  1
  H  1840  1  0.26305000  0.40344600  0.71482600  1
  H  1847  1  0.31903300  0.46545700  0.75399300  1
  H  1848  1  0.34305300  0.46349100  0.77915300  1
  H  1849  1  0.27757200  0.42064200  0.80003700  1
  H  1850  1  0.22952700  0.48125200  0.72239600  1
  H  1852  1  0.23965900  0.50505500  0.74675000  1
  H  1853  1  0.25935700  0.49217700  0.76108500  1
  H  1855  1  0.23521200  0.41991600  0.76514700  1
  H  1856  1  0.23817700  0.41078900  0.78429100  1
  H  1863  1  0.29007100  0.02860300  0.15016200  1
  H  1864  1  0.31199100  0.00418500  0.17139000  1
  H  1871  1  0.23502900  0.00380600  0.13161400  1
  H  1872  1  0.21027600  0.02725300  0.11104300  1
  H  1873  1  0.28390300  0.04565300  0.08719600  1
  H  1874  1  0.31117500  0.93298100  0.14315400  1
  H  1876  1  0.29258200  0.93432100  0.11673800  1
  H  1877  1  0.27904000  0.96216700  0.10885800  1
  H  1879  1  0.32788300  0.01354000  0.11558900  1
  H  1880  1  0.32607700  0.03110600  0.09857600  1
  H  1887  1  0.26865800  0.97330500  0.65016800  1
  H  1888  1  0.24672100  0.99771200  0.67139400  1
  H  1895  1  0.32371800  0.99813200  0.63162700  1
  H  1896  1  0.34847900  0.97469200  0.61105500  1
  H  1897  1  0.27485900  0.95626500  0.58720800  1
  H  1898  1  0.24756800  0.06893300  0.64317300  1
  H  1900  1  0.26618200  0.06760600  0.61676100  1
  H  1901  1  0.27972600  0.03976200  0.60887900  1
  H  1903  1  0.23086800  0.98836300  0.61560100  1
  H  1904  1  0.23268100  0.97079700  0.59858900  1
  H  1911  1  0.25288100  0.01350800  0.40018500  1
  H  1912  1  0.27646500  0.03598900  0.42154100  1
  H  1919  1  0.27948700  0.95869100  0.38243600  1
  H  1920  1  0.25668200  0.93297700  0.36203100  1
  H  1921  1  0.23710700  0.00522400  0.33733400  1
  H  1922  1  0.34877300  0.03576000  0.39404400  1
  H  1924  1  0.34845100  0.01682400  0.36771300  1
  H  1925  1  0.32091900  0.00281200  0.35963300  1
  H  1927  1  0.26814600  0.05047700  0.36539600  1
  H  1928  1  0.25077600  0.04783500  0.34832500  1
  H  1935  1  0.30582400  0.98843200  0.90017300  1
  H  1936  1  0.28223900  0.96595300  0.92153000  1
  H  1943  1  0.27924600  0.04323400  0.88241900  1
  H  1944  1  0.30206500  0.06893500  0.86201600  1
  H  1945  1  0.32160300  0.99667800  0.83731900  1
  H  1946  1  0.20993700  0.96615900  0.89402600  1
  H  1948  1  0.21026000  0.98508700  0.86769300  1
  H  1949  1  0.23779100  0.99910500  0.85961500  1
  H  1951  1  0.29053600  0.95144200  0.86537700  1
  H  1952  1  0.30790600  0.95407500  0.84830800  1
  H  1959  1  0.76238000  0.97386200  0.85771500  1
  H  1960  1  0.74083900  0.99766700  0.83611100  1
  H  1967  1  0.81729700  0.99931600  0.87528900  1
  H  1968  1  0.84288500  0.97638300  0.89567800  1
  H  1969  1  0.77030300  0.95874600  0.92082400  1
  H  1970  1  0.74155300  0.06977300  0.86353200  1
  H  1972  1  0.75988700  0.06924100  0.89003000  1
  H  1973  1  0.77323100  0.04160700  0.89828000  1
  H  1975  1  0.72517100  0.99024200  0.89280000  1
  H  1976  1  0.72766200  0.97315400  0.90995500  1
  H  1983  1  0.79634600  0.02806300  0.35770500  1
  H  1984  1  0.81790800  0.00426900  0.33610300  1
  H  1991  1  0.74141300  0.00257800  0.37527600  1
  H  1992  1  0.71582100  0.02550200  0.39566600  1
  H  1993  1  0.78839800  0.04316900  0.42080800  1
  H  1994  1  0.81717100  0.93214900  0.36351200  1
  H  1996  1  0.79881900  0.93266800  0.39000300  1
  H  1997  1  0.78546600  0.96029800  0.39825500  1
  H  1999  1  0.83354000  0.01169100  0.39278100  1
  H  2000  1  0.83104300  0.02878000  0.40993500  1
  H  2007  1  0.81077000  0.99037400  0.60731900  1
  H  2008  1  0.78654900  0.96831200  0.58603100  1
  H  2015  1  0.78641600  0.04489500  0.62537100  1
  H  2016  1  0.80893300  0.06985800  0.64619400  1
  H  2017  1  0.82537800  0.99696900  0.67102800  1
  H  2018  1  0.71488800  0.96865000  0.61411600  1
  H  2020  1  0.71582300  0.98739500  0.64045400  1
  H  2021  1  0.74357700  0.00118900  0.64838900  1
  H  2023  1  0.79444300  0.95273700  0.64237700  1
  H  2024  1  0.81103000  0.95482200  0.65974200  1
  H  2031  1  0.74800100  0.01151100  0.10733600  1
  H  2032  1  0.77222000  0.03357200  0.08604600  1
  H  2039  1  0.77234100  0.95701200  0.12539700  1
  H  2040  1  0.74980400  0.93206200  0.14621700  1
  H  2041  1  0.73337900  0.00496300  0.17104400  1
  H  2042  1  0.84387700  0.03326900  0.11413400  1
  H  2044  1  0.84294600  0.01453200  0.14047500  1
  H  2045  1  0.81519600  0.00073200  0.14841100  1
  H  2047  1  0.76434800  0.04917700  0.14239600  1
  H  2048  1  0.74775400  0.04710200  0.15975900  1
  H  2055  1  0.79197900  0.53227200  0.65068200  1
  H  2056  1  0.81378600  0.50780000  0.67195300  1
  H  2063  1  0.73762300  0.50830700  0.63217100  1
  H  2064  1  0.71282400  0.53092600  0.61130600  1
  H  2065  1  0.78632200  0.54768900  0.58690600  1
  H  2066  1  0.81409200  0.43694500  0.64341300  1
  H  2068  1  0.79579700  0.43832800  0.61696000  1
  H  2069  1  0.78203700  0.46608400  0.60911200  1
  H  2071  1  0.83038000  0.51674800  0.61570200  1
  H  2072  1  0.82850800  0.53344000  0.59838600  1
  H  2079  1  0.76674500  0.46963400  0.15068800  1
  H  2080  1  0.74491800  0.49409200  0.17195600  1
  H  2087  1  0.82112700  0.49363100  0.13218600  1
  H  2088  1  0.84593500  0.47101900  0.11132100  1
  H  2089  1  0.77244300  0.45423600  0.08691900  1
  H  2090  1  0.74465500  0.56497000  0.14343600  1
  H  2092  1  0.76297600  0.56360600  0.11698900  1
  H  2093  1  0.77673900  0.53585100  0.10913800  1
  H  2095  1  0.72837300  0.48516500  0.11571600  1
  H  2096  1  0.73025100  0.46847300  0.09840000  1
  H  2103  1  0.75056700  0.51644900  0.89964000  1
  H  2104  1  0.77394400  0.53817800  0.92134500  1
  H  2111  1  0.77671400  0.46225700  0.88212400  1
  H  2112  1  0.75406600  0.43658300  0.86166900  1
  H  2113  1  0.73613700  0.50870900  0.83641400  1
  H  2114  1  0.84656000  0.53872500  0.89413900  1
  H  2116  1  0.84654100  0.52055300  0.86761900  1
  H  2117  1  0.81908600  0.50684500  0.85927100  1
  H  2119  1  0.76711400  0.55393000  0.86453900  1
  H  2120  1  0.75016700  0.55129600  0.84731900  1
  H  2127  1  0.80813700  0.48549600  0.39962800  1
  H  2128  1  0.78476200  0.46377000  0.42133400  1
  H  2135  1  0.78202000  0.53967100  0.38210700  1
  H  2136  1  0.80468600  0.56533200  0.36165300  1
  H  2137  1  0.82257500  0.49319300  0.33639900  1
  H  2138  1  0.71215000  0.46319800  0.39412200  1
  H  2140  1  0.71216800  0.48136400  0.36760100  1
  H  2141  1  0.73962400  0.49507600  0.35925300  1
  H  2143  1  0.79156300  0.44799300  0.36452000  1
  H  2144  1  0.80851200  0.45061600  0.34730100  1
  H  2151  1  0.26502800  0.47084000  0.35774200  1
  H  2152  1  0.24315400  0.49476900  0.33629100  1
  H  2159  1  0.31978400  0.49631300  0.37544400  1
  H  2160  1  0.34556600  0.47385200  0.39593700  1
  H  2161  1  0.27313700  0.45585300  0.42113700  1
  H  2162  1  0.24337700  0.56646500  0.36408500  1
  H  2164  1  0.26184900  0.56574300  0.39052300  1
  H  2165  1  0.27550800  0.53813300  0.39861700  1
  H  2167  1  0.22772400  0.48646600  0.39292400  1
  H  2168  1  0.23036800  0.46963600  0.41016200  1
  H  2175  1  0.29370500  0.53108100  0.85773600  1
  H  2176  1  0.31559700  0.50716600  0.83628700  1
  H  2183  1  0.23892800  0.50557000  0.87543500  1
  H  2184  1  0.21314100  0.52802600  0.89592800  1
  H  2185  1  0.28556700  0.54606600  0.92112000  1
  H  2186  1  0.31534600  0.43545400  0.86406400  1
  H  2188  1  0.29685100  0.43616000  0.89049800  1
  H  2189  1  0.28318800  0.46376600  0.89859400  1
  H  2191  1  0.33098900  0.51546500  0.89290600  1
  H  2192  1  0.32834300  0.53230300  0.91014100  1
  H  2199  1  0.30869800  0.48771900  0.10679300  1
  H  2200  1  0.28421900  0.46607400  0.08546400  1
  H  2207  1  0.28429700  0.54157800  0.12505300  1
  H  2208  1  0.30684900  0.56676600  0.14575600  1
  H  2209  1  0.32413100  0.49409400  0.17061000  1
  H  2210  1  0.21311200  0.46517100  0.11402300  1
  H  2212  1  0.21443100  0.48318600  0.14052800  1
  H  2213  1  0.24224000  0.49694900  0.14841100  1
  H  2215  1  0.29331500  0.44953700  0.14206800  1
  H  2216  1  0.31006200  0.45178200  0.15937400  1
  H  2223  1  0.25007100  0.51416500  0.60680700  1
  H  2224  1  0.27455000  0.53580900  0.58547700  1
  H  2231  1  0.27445200  0.46032700  0.62507400  1
  H  2232  1  0.25188000  0.43515300  0.64577700  1
  H  2233  1  0.23462600  0.50783700  0.67062400  1
  H  2234  1  0.34565200  0.53674200  0.61403900  1
  H  2236  1  0.34433500  0.51873500  0.64054600  1
  H  2237  1  0.31652800  0.50496800  0.64843000  1
  H  2239  1  0.26547900  0.55237400  0.64208700  1
  H  2240  1  0.24872600  0.55013900  0.65939100  1
  C  1  1  0.19553900  0.08347300  0.07484200  1
  C  2  1  0.21109100  0.07200700  0.08748000  1
  C  3  1  0.23012700  0.05110000  0.08450300  1
  C  4  1  0.23284400  0.04117500  0.06863500  1
  C  5  1  0.21707100  0.05181600  0.05584300  1
  C  6  1  0.19857500  0.07371100  0.05872600  1
  C  9  1  0.17572000  0.10342700  0.07906100  1
  C  10  1  0.14724600  0.09723400  0.08002900  1
  C  11  1  0.12854200  0.11892400  0.08301400  1
  C  12  1  0.13856500  0.14568900  0.08496900  1
  C  13  1  0.16659400  0.15197500  0.08382600  1
  C  14  1  0.18495800  0.13052900  0.08077200  1
  C  23  1  0.36320100  0.91844700  0.57485100  1
  C  24  1  0.34765800  0.92991600  0.58749300  1
  C  25  1  0.32863900  0.95084000  0.58451800  1
  C  26  1  0.32594200  0.96078400  0.56865200  1
  C  27  1  0.34168100  0.95011400  0.55585400  1
  C  28  1  0.36016700  0.92821000  0.55873500  1
  C  31  1  0.38301900  0.89849000  0.57907000  1
  C  32  1  0.41149200  0.90468400  0.58003500  1
  C  33  1  0.43019500  0.88299000  0.58301100  1
  C  34  1  0.42017100  0.85622400  0.58496600  1
  C  35  1  0.39214100  0.84994000  0.58382500  1
  C  36  1  0.37377700  0.87138600  0.58077200  1
  C  45  1  0.19996100  0.91662500  0.32611800  1
  C  46  1  0.21165400  0.93245000  0.33854900  1
  C  47  1  0.23242600  0.95150300  0.33526800  1
  C  48  1  0.24198400  0.95397800  0.31929800  1
  C  49  1  0.23109900  0.93795900  0.30670000  1
  C  50  1  0.20932900  0.91942900  0.30989600  1
  C  53  1  0.17982300  0.89716000  0.33060900  1
  C  54  1  0.18566700  0.86872000  0.33153600  1
  C  55  1  0.16369100  0.85041200  0.33467500  1
  C  56  1  0.13701500  0.86075300  0.33686700  1
  C  57  1  0.13108500  0.88878500  0.33591000  1
  C  58  1  0.15282200  0.90675400  0.33267500  1
  C  67  1  0.35878500  0.08528800  0.82611400  1
  C  68  1  0.34708700  0.06946000  0.83854100  1
  C  69  1  0.32632800  0.05039600  0.83525400  1
  C  70  1  0.31679500  0.04790500  0.81928000  1
  C  71  1  0.32769800  0.06391700  0.80668300  1
  C  72  1  0.34943700  0.08247800  0.80989000  1
  C  75  1  0.37891400  0.10475800  0.83061400  1
  C  76  1  0.37306200  0.13319400  0.83154800  1
  C  77  1  0.39502800  0.15150600  0.83470100  1
  C  78  1  0.42170800  0.14117300  0.83689200  1
  C  79  1  0.42764700  0.11314100  0.83592900  1
  C  80  1  0.40591600  0.09517000  0.83268300  1
  C  89  1  0.36295600  0.08295800  0.43346400  1
  C  90  1  0.34733600  0.07224000  0.42061300  1
  C  91  1  0.32942500  0.05009400  0.42289300  1
  C  92  1  0.32764700  0.03861600  0.43844600  1
  C  93  1  0.34298100  0.04887400  0.45153100  1
  C  94  1  0.36081300  0.07148600  0.44923800  1
  C  97  1  0.38272300  0.10316800  0.42952600  1
  C  98  1  0.41118700  0.09701000  0.42824400  1
  C  99  1  0.42981700  0.11875800  0.42525200  1
  C  100  1  0.41971100  0.14550300  0.42339600  1
  C  101  1  0.39168200  0.15171700  0.42465400  1
  C  102  1  0.37340900  0.13026500  0.42789000  1
  C  111  1  0.19577400  0.91896200  0.93345400  1
  C  112  1  0.21138500  0.92967600  0.92060100  1
  C  113  1  0.22927900  0.95183800  0.92287700  1
  C  114  1  0.23104300  0.96333000  0.93842900  1
  C  115  1  0.21573100  0.95305400  0.95151900  1
  C  116  1  0.19791400  0.93043100  0.94923000  1
  C  119  1  0.17600500  0.89874800  0.92951900  1
  C  120  1  0.14754100  0.90491000  0.92823800  1
  C  121  1  0.12891100  0.88315900  0.92525100  1
  C  122  1  0.13901600  0.85641300  0.92339600  1
  C  123  1  0.16704500  0.85020100  0.92465400  1
  C  124  1  0.18531800  0.87165300  0.92788700  1
  C  133  1  0.35897100  0.91767800  0.18228100  1
  C  134  1  0.34794600  0.93348300  0.16962100  1
  C  135  1  0.32578300  0.95129700  0.17218600  1
  C  136  1  0.31463100  0.95283100  0.18784600  1
  C  137  1  0.32524800  0.93734500  0.20075600  1
  C  138  1  0.34784600  0.91956600  0.19816300  1
  C  141  1  0.37932400  0.89821700  0.17806700  1
  C  142  1  0.37341800  0.86980800  0.17682000  1
  C  143  1  0.39539100  0.85151800  0.17364600  1
  C  144  1  0.42207100  0.86186100  0.17153600  1
  C  145  1  0.42801600  0.88987700  0.17261700  1
  C  146  1  0.40634300  0.90781600  0.17606100  1
  C  155  1  0.19975000  0.08423400  0.68228500  1
  C  156  1  0.21077600  0.06842700  0.66962700  1
  C  157  1  0.23292800  0.05059900  0.67219700  1
  C  158  1  0.24406500  0.04905500  0.68785900  1
  C  159  1  0.23344400  0.06453900  0.70076900  1
  C  160  1  0.21086400  0.08233700  0.69817000  1
  C  163  1  0.17940600  0.10370000  0.67806700  1
  C  164  1  0.18531800  0.13210600  0.67681600  1
  C  165  1  0.16335400  0.15040000  0.67363000  1
  C  166  1  0.13667000  0.14006200  0.67151900  1
  C  167  1  0.13071700  0.11204700  0.67260100  1
  C  168  1  0.15238500  0.09410800  0.67605800  1
  C  177  1  0.85963400  0.92086300  0.93150000  1
  C  178  1  0.84319700  0.93215700  0.91922000  1
  C  179  1  0.82423500  0.95294700  0.92260900  1
  C  180  1  0.82223000  0.96265100  0.93856600  1
  C  181  1  0.83885500  0.95211700  0.95101700  1
  C  182  1  0.85762700  0.93063400  0.94766800  1
  C  185  1  0.87920700  0.90097100  0.92687900  1
  C  186  1  0.90698700  0.90787300  0.92360900  1
  C  187  1  0.92610100  0.88641600  0.92094500  1
  C  188  1  0.91677100  0.85918300  0.92101600  1
  C  189  1  0.88910900  0.85226300  0.92345500  1
  C  190  1  0.87062000  0.87352100  0.92672100  1
  C  199  1  0.69909400  0.08105500  0.43148900  1
  C  200  1  0.71552300  0.06975200  0.41920600  1
  C  201  1  0.73446500  0.04894700  0.42259400  1
  C  202  1  0.73644900  0.03922400  0.43854700  1
  C  203  1  0.71986100  0.04979100  0.45100500  1
  C  204  1  0.70109900  0.07128300  0.44765600  1
  C  207  1  0.67952100  0.10095000  0.42686600  1
  C  208  1  0.65174100  0.09404500  0.42359900  1
  C  209  1  0.63263100  0.11550200  0.42093200  1
  C  210  1  0.64195900  0.14273800  0.42100800  1
  C  211  1  0.66962100  0.14965800  0.42344800  1
  C  212  1  0.68811000  0.12839700  0.42671300  1
  C  221  1  0.86272500  0.08544500  0.68347900  1
  C  222  1  0.85193300  0.06976000  0.67071000  1
  C  223  1  0.83103900  0.05057700  0.67342200  1
  C  224  1  0.82051700  0.04780400  0.68916500  1
  C  225  1  0.83052100  0.06367600  0.70207600  1
  C  226  1  0.85230900  0.08242900  0.69945700  1
  C  229  1  0.88270700  0.10535900  0.67951700  1
  C  230  1  0.87598400  0.13352800  0.67791200  1
  C  231  1  0.89761000  0.15250100  0.67536000  1
  C  232  1  0.92483700  0.14302800  0.67466900  1
  C  233  1  0.93168700  0.11544600  0.67697200  1
  C  234  1  0.91023800  0.09668600  0.67904300  1
  C  243  1  0.69599300  0.91647500  0.18347900  1
  C  244  1  0.70679900  0.93216600  0.17071600  1
  C  245  1  0.72767700  0.95135800  0.17343800  1
  C  246  1  0.73816600  0.95414600  0.18918800  1
  C  247  1  0.72814200  0.93827800  0.20209700  1
  C  248  1  0.70638500  0.91949600  0.19946200  1
  C  251  1  0.67602400  0.89655600  0.17950700  1
  C  252  1  0.68275700  0.86839100  0.17789500  1
  C  253  1  0.66114000  0.84941600  0.17531700  1
  C  254  1  0.63391100  0.85888200  0.17462400  1
  C  255  1  0.62704900  0.88645900  0.17693200  1
  C  256  1  0.64849200  0.90522500  0.17901200  1
  C  265  1  0.69941000  0.92139800  0.57525800  1
  C  266  1  0.71580000  0.93198300  0.58779000  1
  C  267  1  0.73350900  0.95418100  0.58518800  1
  C  268  1  0.73465300  0.96554000  0.56957900  1
  C  269  1  0.71855100  0.95534200  0.55679600  1
  C  270  1  0.70047400  0.93304400  0.55949800  1
  C  273  1  0.67983900  0.90126700  0.57954600  1
  C  274  1  0.65207600  0.90808000  0.58297200  1
  C  275  1  0.63305200  0.88656700  0.58567900  1
  C  276  1  0.64248400  0.85938000  0.58563300  1
  C  277  1  0.67016600  0.85257000  0.58318100  1
  C  278  1  0.68854500  0.87385100  0.57973900  1
  C  287  1  0.85932200  0.08052300  0.07526700  1
  C  288  1  0.84294000  0.06993800  0.08780300  1
  C  289  1  0.82525600  0.04772100  0.08520400  1
  C  290  1  0.82412900  0.03634700  0.06959900  1
  C  291  1  0.84020400  0.04656600  0.05681000  1
  C  292  1  0.85826400  0.06887800  0.05950700  1
  C  295  1  0.87889500  0.10065400  0.07955500  1
  C  296  1  0.90666100  0.09383900  0.08298000  1
  C  297  1  0.92568300  0.11535000  0.08569000  1
  C  298  1  0.91625400  0.14253900  0.08564000  1
  C  299  1  0.88857400  0.14935100  0.08318700  1
  C  300  1  0.87019100  0.12807100  0.07974900  1
  C  309  1  0.69575600  0.08458100  0.82358100  1
  C  310  1  0.70573100  0.06882600  0.83655800  1
  C  311  1  0.72778500  0.05067400  0.83455500  1
  C  312  1  0.73986500  0.04871900  0.81915500  1
  C  313  1  0.73031600  0.06419500  0.80595800  1
  C  314  1  0.70790800  0.08240900  0.80797900  1
  C  317  1  0.67558700  0.10451200  0.82723400  1
  C  318  1  0.68229800  0.13264900  0.82911700  1
  C  319  1  0.66063200  0.15161900  0.83156900  1
  C  320  1  0.63339500  0.14215500  0.83201600  1
  C  321  1  0.62658000  0.11459700  0.82958600  1
  C  322  1  0.64804500  0.09584800  0.82751900  1
  C  331  1  0.86299500  0.91734100  0.32357800  1
  C  332  1  0.85301300  0.93310100  0.33655300  1
  C  333  1  0.83097400  0.95126700  0.33454300  1
  C  334  1  0.81890800  0.95322700  0.31913800  1
  C  335  1  0.82846500  0.93775200  0.30594200  1
  C  336  1  0.85085700  0.91952100  0.30797300  1
  C  339  1  0.88315200  0.89740400  0.32723900  1
  C  340  1  0.87643300  0.86926900  0.32912600  1
  C  341  1  0.89808600  0.85029800  0.33160000  1
  C  342  1  0.92532700  0.85975400  0.33204900  1
  C  343  1  0.93215200  0.88730900  0.32961600  1
  C  344  1  0.91069500  0.90606500  0.32754400  1
  C  353  1  0.69773000  0.58481800  0.57402400  1
  C  354  1  0.71337300  0.57411900  0.58685300  1
  C  355  1  0.73252100  0.55317100  0.58423800  1
  C  356  1  0.73531000  0.54251100  0.56853700  1
  C  357  1  0.71943500  0.55238800  0.55557600  1
  C  358  1  0.70069900  0.57420700  0.55809600  1
  C  361  1  0.67786900  0.60492200  0.57785700  1
  C  362  1  0.64963600  0.59832100  0.57983900  1
  C  363  1  0.63062800  0.61999200  0.58208500  1
  C  364  1  0.64010800  0.64714300  0.58204400  1
  C  365  1  0.66772000  0.65383300  0.57932000  1
  C  366  1  0.68654600  0.63236900  0.57761100  1
  C  375  1  0.86101000  0.41710500  0.07403300  1
  C  376  1  0.84537800  0.42780800  0.08686500  1
  C  377  1  0.82624600  0.44877200  0.08425400  1
  C  378  1  0.82347500  0.45945400  0.06855700  1
  C  379  1  0.83931600  0.44954900  0.05558800  1
  C  380  1  0.85804400  0.42772100  0.05810600  1
  C  383  1  0.88086900  0.39699700  0.07786400  1
  C  384  1  0.90910300  0.40360400  0.07984400  1
  C  385  1  0.92811000  0.38192900  0.08207600  1
  C  386  1  0.91863100  0.35477800  0.08203500  1
  C  387  1  0.89101800  0.34808800  0.07931100  1
  C  388  1  0.87219400  0.36955200  0.07759600  1
  C  397  1  0.69857700  0.41953100  0.82575500  1
  C  398  1  0.70976500  0.43602800  0.83803000  1
  C  399  1  0.73061200  0.45495200  0.83466000  1
  C  400  1  0.74046500  0.45688400  0.81872300  1
  C  401  1  0.73005500  0.44020700  0.80627500  1
  C  402  1  0.70854500  0.42142900  0.80961600  1
  C  405  1  0.67878600  0.39986100  0.83039600  1
  C  406  1  0.68615200  0.37252900  0.83429200  1
  C  407  1  0.66490700  0.35316400  0.83697700  1
  C  408  1  0.63739000  0.36187800  0.83638500  1
  C  409  1  0.62999300  0.38911500  0.83330100  1
  C  410  1  0.65105300  0.40781400  0.82996700  1
  C  419  1  0.86017500  0.58237700  0.32575000  1
  C  420  1  0.84897700  0.56588500  0.33802200  1
  C  421  1  0.82814400  0.54694700  0.33464600  1
  C  422  1  0.81832200  0.54499200  0.31870400  1
  C  423  1  0.82874900  0.56166400  0.30625500  1
  C  424  1  0.85022900  0.58046800  0.30960600  1
  C  427  1  0.87995700  0.60205600  0.33039700  1
  C  428  1  0.87257800  0.62937500  0.33430900  1
  C  429  1  0.89380900  0.64874100  0.33702800  1
  C  430  1  0.92133200  0.64004300  0.33642100  1
  C  431  1  0.92874500  0.61281600  0.33333333  1
  C  432  1  0.90769400  0.59411500  0.32996400  1
  C  441  1  0.86047300  0.58429900  0.93422500  1
  C  442  1  0.84489600  0.57422700  0.92118400  1
  C  443  1  0.82694600  0.55201000  0.92309000  1
  C  444  1  0.82499400  0.53990000  0.93847300  1
  C  445  1  0.84031200  0.54952500  0.95173400  1
  C  446  1  0.85837500  0.57204700  0.94978900  1
  C  449  1  0.88024000  0.60468200  0.93069600  1
  C  450  1  0.90846800  0.59824300  0.92844200  1
  C  451  1  0.92735900  0.62003500  0.92626500  1
  C  452  1  0.91775700  0.64713400  0.92652700  1
  C  453  1  0.89014600  0.65364600  0.92939500  1
  C  454  1  0.87143500  0.63208000  0.93111900  1
  C  463  1  0.69825900  0.41762200  0.43421700  1
  C  464  1  0.71382800  0.42769400  0.42117200  1
  C  465  1  0.73176000  0.44992500  0.42307500  1
  C  466  1  0.73369500  0.46205100  0.43845500  1
  C  467  1  0.71840400  0.45240800  0.45172100  1
  C  468  1  0.70035200  0.42987600  0.44978100  1
  C  471  1  0.67849200  0.39723700  0.43068900  1
  C  472  1  0.65026500  0.40368200  0.42843700  1
  C  473  1  0.63137100  0.38188600  0.42627000  1
  C  474  1  0.64097300  0.35478700  0.42653400  1
  C  475  1  0.66858400  0.34827300  0.42940100  1
  C  476  1  0.68729300  0.36983900  0.43113200  1
  C  485  1  0.86055900  0.42059100  0.68248600  1
  C  486  1  0.85027300  0.43723800  0.67000100  1
  C  487  1  0.82802600  0.45494800  0.67257200  1
  C  488  1  0.81637200  0.45587500  0.68812400  1
  C  489  1  0.82628400  0.43953800  0.70086500  1
  C  490  1  0.84856300  0.42139400  0.69817100  1
  C  493  1  0.88046500  0.40081200  0.67814500  1
  C  494  1  0.87304400  0.37353800  0.67411100  1
  C  495  1  0.89423600  0.35411300  0.67146500  1
  C  496  1  0.92176500  0.36274000  0.67211400  1
  C  497  1  0.92921700  0.38995700  0.67521300  1
  C  498  1  0.90822100  0.40869400  0.67862200  1
  C  507  1  0.69815700  0.58131600  0.18249300  1
  C  508  1  0.70844700  0.56467100  0.17000800  1
  C  509  1  0.73067800  0.54694500  0.17258400  1
  C  510  1  0.74231700  0.54600300  0.18814000  1
  C  511  1  0.73239700  0.56233900  0.20088200  1
  C  512  1  0.71013700  0.58049800  0.19818100  1
  C  515  1  0.67826100  0.60110100  0.17814900  1
  C  516  1  0.68569300  0.62836500  0.17410000  1
  C  517  1  0.66451300  0.64779100  0.17142200  1
  C  518  1  0.63697800  0.63917900  0.17208300  1
  C  519  1  0.62951200  0.61197200  0.17520200  1
  C  520  1  0.65050100  0.59323300  0.17862900  1
  C  529  1  0.36279700  0.41923200  0.43221700  1
  C  530  1  0.34615000  0.42993700  0.41984800  1
  C  531  1  0.32712800  0.45076900  0.42301800  1
  C  532  1  0.32520700  0.46106300  0.43884900  1
  C  533  1  0.34204400  0.45114100  0.45138200  1
  C  534  1  0.36097000  0.42969700  0.44824300  1
  C  537  1  0.38242900  0.39925100  0.42781300  1
  C  538  1  0.40964200  0.40638800  0.42328900  1
  C  539  1  0.42918000  0.38515800  0.42108400  1
  C  540  1  0.42083800  0.35779800  0.42302200  1
  C  541  1  0.39385600  0.35057100  0.42716200  1
  C  542  1  0.37478700  0.37166300  0.42948400  1
  C  551  1  0.19593100  0.58268000  0.93220800  1
  C  552  1  0.21257100  0.57197200  0.91983500  1
  C  553  1  0.23157200  0.55112400  0.92300400  1
  C  554  1  0.23347300  0.54080700  0.93883100  1
  C  555  1  0.21667000  0.55076000  0.95136900  1
  C  556  1  0.19775300  0.57221200  0.94823300  1
  C  559  1  0.17630200  0.60266600  0.92780300  1
  C  560  1  0.14909000  0.59552700  0.92328000  1
  C  561  1  0.12955700  0.61675900  0.92107100  1
  C  562  1  0.13789500  0.64412100  0.92301600  1
  C  563  1  0.16487600  0.65134600  0.92716100  1
  C  564  1  0.18394100  0.63025200  0.92948900  1
  C  573  1  0.36056100  0.58330700  0.18271500  1
  C  574  1  0.35014300  0.56706300  0.17008400  1
  C  575  1  0.32935100  0.54781700  0.17291100  1
  C  576  1  0.31879600  0.54528900  0.18866300  1
  C  577  1  0.32844700  0.56169400  0.20143800  1
  C  578  1  0.34984100  0.58084200  0.19865700  1
  C  581  1  0.38061800  0.60310200  0.17870500  1
  C  582  1  0.37342000  0.63025000  0.17429200  1
  C  583  1  0.39470500  0.64983100  0.17241700  1
  C  584  1  0.42215300  0.64171500  0.17466600  1
  C  585  1  0.42942500  0.61486800  0.17886700  1
  C  586  1  0.40829600  0.59568500  0.18076300  1
  C  595  1  0.19815200  0.41862000  0.68271900  1
  C  596  1  0.20858400  0.43486000  0.67009100  1
  C  597  1  0.22936100  0.45411800  0.67292500  1
  C  598  1  0.23988400  0.45666400  0.68868400  1
  C  599  1  0.23021300  0.44026600  0.70145900  1
  C  600  1  0.20884700  0.42109500  0.69866500  1
  C  603  1  0.17810400  0.39881900  0.67870000  1
  C  604  1  0.18531200  0.37167900  0.67427500  1
  C  605  1  0.16403500  0.35210200  0.67236000  1
  C  606  1  0.13658400  0.36020600  0.67462000  1
  C  607  1  0.12930100  0.38704100  0.67883800  1
  C  608  1  0.15042300  0.40623200  0.68074300  1
  C  617  1  0.19669600  0.41958200  0.07466700  1
  C  618  1  0.21342000  0.42958900  0.08721100  1
  C  619  1  0.23117800  0.45181200  0.08477900  1
  C  620  1  0.23210500  0.46369400  0.06929600  1
  C  621  1  0.21570300  0.45404500  0.05649500  1
  C  622  1  0.19745900  0.43183800  0.05906400  1
  C  625  1  0.17706200  0.39942100  0.07879700  1
  C  626  1  0.14988400  0.40646600  0.08346700  1
  C  627  1  0.13037000  0.38519900  0.08559500  1
  C  628  1  0.13871900  0.35787800  0.08351800  1
  C  629  1  0.16569300  0.35073400  0.07930600  1
  C  630  1  0.18472900  0.37186400  0.07699500  1
  C  639  1  0.36204000  0.58233100  0.57467500  1
  C  640  1  0.34532300  0.57232600  0.58722300  1
  C  641  1  0.32758500  0.55008400  0.58479400  1
  C  642  1  0.32667500  0.53818600  0.56931500  1
  C  643  1  0.34305300  0.54785400  0.55650700  1
  C  644  1  0.36128600  0.57007200  0.55907200  1
  C  647  1  0.38167600  0.60249400  0.57880300  1
  C  648  1  0.40885200  0.59544900  0.58347400  1
  C  649  1  0.42836100  0.61671800  0.58560400  1
  C  650  1  0.42001900  0.64403900  0.58351800  1
  C  651  1  0.39304800  0.65118100  0.57930300  1
  C  652  1  0.37401400  0.63004800  0.57698700  1
  C  661  1  0.19766800  0.58213500  0.32449500  1
  C  662  1  0.20750800  0.56581600  0.33726100  1
  C  663  1  0.22958600  0.54775200  0.33505100  1
  C  664  1  0.24151100  0.54613500  0.31958800  1
  C  665  1  0.23202300  0.56212900  0.30658900  1
  C  666  1  0.20997800  0.58068400  0.30891400  1
  C  669  1  0.17751500  0.60196300  0.32830500  1
  C  670  1  0.18470900  0.62907400  0.33282600  1
  C  671  1  0.16345300  0.64869800  0.33462500  1
  C  672  1  0.13601900  0.64064500  0.33227700  1
  C  673  1  0.12874000  0.61382100  0.32802900  1
  C  674  1  0.14984700  0.59460100  0.32613900  1
  C  683  1  0.36108600  0.41979400  0.82449000  1
  C  684  1  0.35123900  0.43611100  0.83725400  1
  C  685  1  0.32917400  0.45418700  0.83504000  1
  C  686  1  0.31726500  0.45581400  0.81957200  1
  C  687  1  0.32675800  0.43982200  0.80657400  1
  C  688  1  0.34879200  0.42125600  0.80890700  1
  C  691  1  0.38122900  0.39995800  0.82830600  1
  C  692  1  0.37402800  0.37285500  0.83283600  1
  C  693  1  0.39527500  0.35323300  0.83467600  1
  C  694  1  0.42271200  0.36127600  0.83231500  1
  C  695  1  0.43000100  0.38809200  0.82805300  1
  C  696  1  0.40890100  0.40731600  0.82615500  1
  C  705  1  0.17510000  0.17971900  0.08428200  1
  C  706  1  0.16545500  0.19731800  0.09650800  1
  C  707  1  0.16834600  0.22590700  0.09548000  1
  C  708  1  0.18206900  0.23709000  0.08185000  1
  C  709  1  0.19318500  0.21949500  0.07007500  1
  C  710  1  0.18978600  0.19117300  0.07128700  1
  C  713  1  0.18081900  0.26539500  0.07841600  1
  C  714  1  0.19885900  0.28310700  0.08658700  1
  C  715  1  0.19496900  0.31143700  0.08608500  1
  C  716  1  0.17287300  0.32276600  0.07745000  1
  C  717  1  0.15596200  0.30501700  0.06847300  1
  C  718  1  0.15921200  0.27643100  0.06894600  1
  C  729  1  0.38363400  0.82219600  0.58428000  1
  C  730  1  0.39328000  0.80459800  0.59650600  1
  C  731  1  0.39039200  0.77600800  0.59547600  1
  C  732  1  0.37667000  0.76482500  0.58184600  1
  C  733  1  0.36555100  0.78242200  0.57007100  1
  C  734  1  0.36894800  0.81074300  0.57128600  1
  C  737  1  0.37792100  0.73652000  0.57841000  1
  C  738  1  0.35988400  0.71880600  0.58658100  1
  C  739  1  0.36377700  0.69047800  0.58607700  1
  C  740  1  0.38586900  0.67914700  0.57743900  1
  C  741  1  0.40278200  0.69690400  0.56846600  1
  C  742  1  0.39953000  0.72548800  0.56894100  1
  C  753  1  0.10337300  0.89773300  0.33668900  1
  C  754  1  0.08561600  0.88754700  0.34871000  1
  C  755  1  0.05694000  0.89071900  0.34775900  1
  C  756  1  0.04583200  0.90551200  0.33451400  1
  C  757  1  0.06361400  0.91742400  0.32309200  1
  C  758  1  0.09200100  0.91356900  0.32415700  1
  C  761  1  0.01752400  0.90411200  0.33079600  1
  C  762  1  0.99908100  0.92061300  0.33954000  1
  C  763  1  0.97074300  0.91621000  0.33854400  1
  C  764  1  0.96018200  0.89512800  0.32881700  1
  C  765  1  0.97865200  0.87993300  0.31928000  1
  C  766  1  0.00723700  0.88364300  0.32025400  1
  C  777  1  0.45537200  0.10422000  0.83668700  1
  C  778  1  0.47312800  0.11439800  0.84871100  1
  C  779  1  0.50180200  0.11122000  0.84775300  1
  C  780  1  0.51290100  0.09641700  0.83450900  1
  C  781  1  0.49510800  0.08450200  0.82309100  1
  C  782  1  0.46672300  0.08836200  0.82416000  1
  C  785  1  0.54120800  0.09780400  0.83078500  1
  C  786  1  0.55965400  0.08131500  0.83953400  1
  C  787  1  0.58799100  0.08571000  0.83853000  1
  C  788  1  0.59855700  0.10676700  0.82878400  1
  C  789  1  0.58007800  0.12195500  0.81924700  1
  C  790  1  0.55149300  0.11825600  0.82022900  1
  C  801  1  0.38312300  0.17942000  0.42392300  1
  C  802  1  0.39246000  0.19653400  0.41137400  1
  C  803  1  0.38977300  0.22516700  0.41208700  1
  C  804  1  0.37654500  0.23689200  0.42572600  1
  C  805  1  0.36565900  0.21976200  0.43781900  1
  C  806  1  0.36886300  0.19137900  0.43691800  1
  C  809  1  0.37818100  0.26528700  0.42882800  1
  C  810  1  0.36013300  0.28293700  0.42061600  1
  C  811  1  0.36430600  0.31123600  0.42079700  1
  C  812  1  0.38670400  0.32261100  0.42913700  1
  C  813  1  0.40366800  0.30495000  0.43814100  1
  C  814  1  0.40013600  0.27638800  0.43798900  1
  C  825  1  0.17560400  0.82249700  0.92392300  1
  C  826  1  0.16626700  0.80538100  0.91137500  1
  C  827  1  0.16895500  0.77675000  0.91208700  1
  C  828  1  0.18218500  0.76502400  0.92572700  1
  C  829  1  0.19306900  0.78215500  0.93781900  1
  C  830  1  0.18986500  0.81053800  0.93691800  1
  C  833  1  0.18055000  0.73662800  0.92882900  1
  C  834  1  0.19859800  0.71898000  0.92061700  1
  C  835  1  0.19442700  0.69068100  0.92079800  1
  C  836  1  0.17202900  0.67930500  0.92913700  1
  C  837  1  0.15506300  0.69696500  0.93814100  1
  C  838  1  0.15859600  0.72552600  0.93798900  1
  C  849  1  0.45570100  0.89879500  0.17155600  1
  C  850  1  0.47292800  0.88886300  0.15919600  1
  C  851  1  0.50165700  0.89174400  0.15982700  1
  C  852  1  0.51335800  0.90601400  0.17309300  1
  C  853  1  0.49608400  0.91776200  0.18484800  1
  C  854  1  0.46762600  0.91418900  0.18409600  1
  C  857  1  0.54175100  0.90410000  0.17648600  1
  C  858  1  0.56017400  0.92057000  0.16770700  1
  C  859  1  0.58847300  0.91577300  0.16839300  1
  C  860  1  0.59903000  0.89430900  0.17782700  1
  C  861  1  0.58060500  0.87909500  0.18738500  1
  C  862  1  0.55205100  0.88319700  0.18672200  1
  C  873  1  0.10302100  0.10315200  0.67155800  1
  C  874  1  0.08579300  0.11308000  0.65919700  1
  C  875  1  0.05706700  0.11019000  0.65983300  1
  C  876  1  0.04537700  0.09590600  0.67309900  1
  C  877  1  0.06266100  0.08415000  0.68484700  1
  C  878  1  0.09111700  0.08773200  0.68409400  1
  C  881  1  0.01698500  0.09781000  0.67650000  1
  C  882  1  0.99856000  0.08135200  0.66771500  1
  C  883  1  0.97026100  0.08614300  0.66841100  1
  C  884  1  0.95970400  0.10758300  0.67786400  1
  C  885  1  0.97813600  0.12278700  0.68742400  1
  C  886  1  0.00668900  0.11869300  0.68675100  1
  C  897  1  0.88110400  0.82430500  0.92360300  1
  C  898  1  0.89093800  0.80627700  0.91163900  1
  C  899  1  0.88780900  0.77774900  0.91286900  1
  C  900  1  0.87328700  0.76702300  0.92633600  1
  C  901  1  0.86185100  0.78502500  0.93779200  1
  C  902  1  0.86572600  0.81327500  0.93645100  1
  C  905  1  0.87392400  0.73874700  0.92992200  1
  C  906  1  0.85706600  0.72097300  0.92093300  1
  C  907  1  0.86116300  0.69266400  0.92143800  1
  C  908  1  0.88228000  0.68146500  0.93092800  1
  C  909  1  0.89771000  0.69921200  0.94079700  1
  C  910  1  0.89433200  0.72776500  0.94029600  1
  C  921  1  0.67762600  0.17761400  0.42360000  1
  C  922  1  0.66779200  0.19564500  0.41163700  1
  C  923  1  0.67092200  0.22417500  0.41286800  1
  C  924  1  0.68544400  0.23489500  0.42633600  1
  C  925  1  0.69687700  0.21689400  0.43779200  1
  C  926  1  0.69300400  0.18864200  0.43644900  1
  C  929  1  0.68480700  0.26317200  0.42992300  1
  C  930  1  0.70166200  0.28094800  0.42093600  1
  C  931  1  0.69756300  0.30925700  0.42144300  1
  C  932  1  0.67645000  0.32045600  0.43093600  1
  C  933  1  0.66102000  0.30270500  0.44080200  1
  C  934  1  0.66439900  0.27415200  0.44029900  1
  C  945  1  0.67827800  0.82465900  0.58337200  1
  C  946  1  0.66875100  0.80714600  0.59568800  1
  C  947  1  0.67166500  0.77856400  0.59479500  1
  C  948  1  0.68567200  0.76726300  0.58130400  1
  C  949  1  0.69689500  0.78477500  0.56950700  1
  C  950  1  0.69323900  0.81309800  0.57052200  1
  C  953  1  0.68455400  0.73889100  0.57804200  1
  C  954  1  0.70147000  0.72117500  0.58703100  1
  C  955  1  0.69703200  0.69290600  0.58684500  1
  C  956  1  0.67550100  0.68167500  0.57769700  1
  C  957  1  0.65995200  0.69934000  0.56783900  1
  C  958  1  0.66367200  0.72786100  0.56802000  1
  C  969  1  0.88046500  0.17726300  0.08337400  1
  C  970  1  0.88999100  0.19478000  0.09568800  1
  C  971  1  0.88707800  0.22336100  0.09479200  1
  C  972  1  0.87306600  0.23465800  0.08130100  1
  C  973  1  0.86184100  0.21714200  0.06950800  1
  C  974  1  0.86550000  0.18881900  0.07052500  1
  C  977  1  0.87418300  0.26303000  0.07803700  1
  C  978  1  0.85727000  0.28074800  0.08702600  1
  C  979  1  0.86170900  0.30901700  0.08683900  1
  C  980  1  0.88323900  0.32024600  0.07768800  1
  C  981  1  0.89878400  0.30257700  0.06783000  1
  C  982  1  0.89506200  0.27405600  0.06801300  1
  C  993  1  0.60179100  0.39644000  0.83267700  1
  C  994  1  0.58369200  0.38749400  0.84487100  1
  C  995  1  0.55502500  0.39011200  0.84344100  1
  C  996  1  0.54421700  0.40298600  0.82942900  1
  C  997  1  0.56224200  0.41330700  0.81760000  1
  C  998  1  0.59065400  0.41010200  0.81921000  1
  C  1001  1  0.51576700  0.40230700  0.82602100  1
  C  1002  1  0.49843600  0.42061100  0.83427400  1
  C  1003  1  0.46995100  0.41701600  0.83414200  1
  C  1004  1  0.45807100  0.39496600  0.82578700  1
  C  1005  1  0.47540400  0.37787400  0.81664000  1
  C  1006  1  0.50414800  0.38080200  0.81677000  1
  C  1017  1  0.95695600  0.60551500  0.33267400  1
  C  1018  1  0.97505700  0.61445100  0.34487000  1
  C  1019  1  0.00372100  0.61182800  0.34343600  1
  C  1020  1  0.01452100  0.59894700  0.32942200  1
  C  1021  1  0.99648800  0.58862700  0.31759800  1
  C  1022  1  0.96807900  0.59183800  0.31921000  1
  C  1025  1  0.04296900  0.59961400  0.32601000  1
  C  1026  1  0.06030200  0.58132000  0.33427300  1
  C  1027  1  0.08878700  0.58491100  0.33413400  1
  C  1028  1  0.10067600  0.60693300  0.32575900  1
  C  1029  1  0.08333600  0.62401700  0.31660900  1
  C  1030  1  0.05459100  0.62110100  0.31674600  1
  C  1041  1  0.95744200  0.39721100  0.67560900  1
  C  1042  1  0.97513700  0.38839700  0.66317500  1
  C  1043  1  0.00385600  0.39070100  0.66436800  1
  C  1044  1  0.01513800  0.40314900  0.67838500  1
  C  1045  1  0.99751300  0.41340000  0.69044600  1
  C  1046  1  0.96903000  0.41049800  0.68907000  1
  C  1049  1  0.04365700  0.40204500  0.68153900  1
  C  1050  1  0.06101000  0.42029800  0.67326200  1
  C  1051  1  0.08944500  0.41634900  0.67311800  1
  C  1052  1  0.10126700  0.39398600  0.68120500  1
  C  1053  1  0.08394200  0.37690000  0.69036300  1
  C  1054  1  0.05523700  0.38018600  0.69051000  1
  C  1065  1  0.60128000  0.60473900  0.17561300  1
  C  1066  1  0.58358100  0.61354400  0.16317800  1
  C  1067  1  0.55486400  0.61123200  0.16437600  1
  C  1068  1  0.54359000  0.59877400  0.17839200  1
  C  1069  1  0.56122400  0.58852100  0.19044900  1
  C  1070  1  0.58970600  0.59142900  0.18906900  1
  C  1073  1  0.51507300  0.59986800  0.18155000  1
  C  1074  1  0.49771900  0.58162700  0.17326500  1
  C  1075  1  0.46928400  0.58557200  0.17312800  1
  C  1076  1  0.45745400  0.60791300  0.18123600  1
  C  1077  1  0.47478800  0.62498700  0.19039800  1
  C  1078  1  0.50349300  0.62170900  0.19053800  1
  C  1089  1  0.95452200  0.11143000  0.08708300  1
  C  1090  1  0.96944300  0.12338200  0.09986100  1
  C  1091  1  0.99836400  0.12397500  0.10001200  1
  C  1092  1  0.01273500  0.11122300  0.08711600  1
  C  1093  1  0.99787200  0.09814600  0.07471500  1
  C  1094  1  0.96922400  0.09872000  0.07453300  1
  C  1097  1  0.04161900  0.11294000  0.08543700  1
  C  1098  1  0.05823500  0.09833400  0.09638100  1
  C  1099  1  0.08684400  0.10005700  0.09558900  1
  C  1100  1  0.09960500  0.11561100  0.08344400  1
  C  1101  1  0.08296400  0.12975600  0.07232400  1
  C  1102  1  0.05411800  0.12914200  0.07323000  1
  C  1113  1  0.60421200  0.89048300  0.58707700  1
  C  1114  1  0.58929800  0.87853800  0.59985900  1
  C  1115  1  0.56037800  0.87794700  0.60001200  1
  C  1116  1  0.54600300  0.89069500  0.58711400  1
  C  1117  1  0.56086400  0.90377100  0.57471100  1
  C  1118  1  0.58951200  0.90319700  0.57452700  1
  C  1121  1  0.51711900  0.88897500  0.58543700  1
  C  1122  1  0.50050200  0.90358200  0.59637900  1
  C  1123  1  0.47189300  0.90185500  0.59558800  1
  C  1124  1  0.45913100  0.88630200  0.58344200  1
  C  1125  1  0.47577400  0.87215500  0.57232400  1
  C  1126  1  0.50462200  0.87277100  0.57323000  1
  C  1137  1  0.16821900  0.67710500  0.33695200  1
  C  1138  1  0.15490600  0.69161100  0.34940800  1
  C  1139  1  0.15507700  0.72040600  0.35008000  1
  C  1140  1  0.16983500  0.73498300  0.33804800  1
  C  1141  1  0.18419100  0.72047300  0.32601000  1
  C  1142  1  0.18304000  0.69198100  0.32532200  1
  C  1145  1  0.16851500  0.76378800  0.33659600  1
  C  1146  1  0.18289300  0.77991600  0.34788100  1
  C  1147  1  0.18162200  0.80845100  0.34722600  1
  C  1148  1  0.16660200  0.82156200  0.33497000  1
  C  1149  1  0.15257400  0.80540500  0.32356700  1
  C  1150  1  0.15289500  0.77665200  0.32424900  1
  C  1161  1  0.39051400  0.32482400  0.83698800  1
  C  1162  1  0.40381500  0.31030200  0.84944200  1
  C  1163  1  0.40365000  0.28150700  0.85010200  1
  C  1164  1  0.38891300  0.26693800  0.83805700  1
  C  1165  1  0.37457700  0.28146000  0.82601600  1
  C  1166  1  0.37572700  0.30995500  0.82533900  1
  C  1169  1  0.39022000  0.23813300  0.83660500  1
  C  1170  1  0.37583500  0.22201300  0.84789100  1
  C  1171  1  0.37709900  0.19347700  0.84723900  1
  C  1172  1  0.39211300  0.18035600  0.83498300  1
  C  1173  1  0.40614700  0.19650600  0.82358000  1
  C  1174  1  0.40583600  0.22526000  0.82426000  1
  C  1185  1  0.60377100  0.11151000  0.41973100  1
  C  1186  1  0.58856900  0.12349700  0.40708100  1
  C  1187  1  0.55964500  0.12410500  0.40715500  1
  C  1188  1  0.54554800  0.11132500  0.42014900  1
  C  1189  1  0.56068700  0.09820400  0.43241700  1
  C  1190  1  0.58933700  0.09878100  0.43238400  1
  C  1193  1  0.51669800  0.11302000  0.42205000  1
  C  1194  1  0.49984700  0.09852800  0.41118000  1
  C  1195  1  0.47125400  0.10018400  0.41221600  1
  C  1196  1  0.45874900  0.11551100  0.42455500  1
  C  1197  1  0.47562900  0.12956800  0.43558800  1
  C  1198  1  0.50445200  0.12904400  0.43443000  1
  C  1209  1  0.95496100  0.89041000  0.91973800  1
  C  1210  1  0.97015700  0.87843100  0.90708500  1
  C  1211  1  0.99908100  0.87782500  0.90715600  1
  C  1212  1  0.01317900  0.89060300  0.92015000  1
  C  1213  1  0.99804400  0.90372200  0.93242100  1
  C  1214  1  0.96939400  0.90314400  0.93238900  1
  C  1217  1  0.04203000  0.88890500  0.92205100  1
  C  1218  1  0.05888300  0.90339700  0.91117900  1
  C  1219  1  0.08747400  0.90173700  0.91221500  1
  C  1220  1  0.09997900  0.88640800  0.92455300  1
  C  1221  1  0.08309900  0.87235200  0.93558700  1
  C  1222  1  0.05427500  0.87287900  0.93443000  1
  C  1233  1  0.38998700  0.67827200  0.17020100  1
  C  1234  1  0.40328200  0.69287100  0.15777600  1
  C  1235  1  0.40332100  0.72167700  0.15725800  1
  C  1236  1  0.38877000  0.73617800  0.16941100  1
  C  1237  1  0.37438500  0.72158700  0.18140200  1
  C  1238  1  0.37535500  0.69307900  0.18194600  1
  C  1241  1  0.39031600  0.76495100  0.17102500  1
  C  1242  1  0.37609800  0.78137200  0.15981900  1
  C  1243  1  0.37749900  0.80988500  0.16067900  1
  C  1244  1  0.39244100  0.82268200  0.17308500  1
  C  1245  1  0.40635100  0.80623300  0.18439100  1
  C  1246  1  0.40593000  0.77749600  0.18349100  1
  C  1257  1  0.16874800  0.32365700  0.67015900  1
  C  1258  1  0.15546400  0.30903700  0.65773700  1
  C  1259  1  0.15541900  0.28023200  0.65723300  1
  C  1260  1  0.16994800  0.26574300  0.66940000  1
  C  1261  1  0.18431300  0.28034800  0.68139300  1
  C  1262  1  0.18334500  0.30885800  0.68192300  1
  C  1265  1  0.16841400  0.23697000  0.67101700  1
  C  1266  1  0.18264200  0.22055100  0.65981300  1
  C  1267  1  0.18124700  0.19203800  0.66067300  1
  C  1268  1  0.16630800  0.17923600  0.67307700  1
  C  1269  1  0.15238900  0.19568200  0.68438200  1
  C  1270  1  0.15280100  0.22441900  0.68348200  1
  C  1281  1  0.88959100  0.32553600  0.66972200  1
  C  1282  1  0.90213900  0.31057500  0.65717000  1
  C  1283  1  0.90243300  0.28176100  0.65701100  1
  C  1284  1  0.88865600  0.26757300  0.66960300  1
  C  1285  1  0.87475200  0.28250100  0.68165300  1
  C  1286  1  0.87569600  0.31101800  0.68189900  1
  C  1289  1  0.89063600  0.23888100  0.67160100  1
  C  1290  1  0.87693100  0.22175700  0.66053400  1
  C  1291  1  0.87895800  0.19331100  0.66173300  1
  C  1292  1  0.89384600  0.18124600  0.67441800  1
  C  1293  1  0.90701800  0.19842100  0.68566400  1
  C  1294  1  0.90621200  0.22708900  0.68434000  1
  C  1305  1  0.66915800  0.67636900  0.16968700  1
  C  1306  1  0.65661400  0.69134200  0.15713800  1
  C  1307  1  0.65631600  0.72015600  0.15698600  1
  C  1308  1  0.67007600  0.73433800  0.16958600  1
  C  1309  1  0.68396600  0.71940100  0.18164000  1
  C  1310  1  0.68302400  0.69088300  0.18187700  1
  C  1313  1  0.66810800  0.76303000  0.17158300  1
  C  1314  1  0.68182200  0.78014600  0.16051500  1
  C  1315  1  0.67980100  0.80859400  0.16170900  1
  C  1316  1  0.66491300  0.82067100  0.17439100  1
  C  1317  1  0.65173000  0.80350400  0.18563800  1
  C  1318  1  0.65253300  0.77483400  0.18431800  1
  C  1329  1  0.66944600  0.32453700  0.83855800  1
  C  1330  1  0.65683200  0.30942600  0.85102500  1
  C  1331  1  0.65629100  0.28061200  0.85098200  1
  C  1332  1  0.66990500  0.26655600  0.83827500  1
  C  1333  1  0.68390800  0.28161500  0.82632100  1
  C  1334  1  0.68317500  0.31014200  0.82626600  1
  C  1337  1  0.66773900  0.23791100  0.83608800  1
  C  1338  1  0.68120500  0.22049000  0.84709300  1
  C  1339  1  0.67908400  0.19208100  0.84566700  1
  C  1340  1  0.66440100  0.18034000  0.83279000  1
  C  1341  1  0.65143400  0.19781300  0.82162300  1
  C  1342  1  0.65229600  0.22644600  0.82318500  1
  C  1353  1  0.88927200  0.67737000  0.33859800  1
  C  1354  1  0.90187900  0.69249700  0.35106000  1
  C  1355  1  0.90242700  0.72130900  0.35100700  1
  C  1356  1  0.88882900  0.73535700  0.33829000  1
  C  1357  1  0.87484200  0.72028600  0.32633600  1
  C  1358  1  0.87557100  0.69175900  0.32629100  1
  C  1361  1  0.89098500  0.76400200  0.33610100  1
  C  1362  1  0.87751100  0.78141900  0.34710700  1
  C  1363  1  0.87962600  0.80982800  0.34568300  1
  C  1364  1  0.89430900  0.82157600  0.33280900  1
  C  1365  1  0.90728600  0.80410800  0.32164300  1
  C  1366  1  0.90643000  0.77547300  0.32320300  1
  C  1377  1  0.45696400  0.61213300  0.58781200  1
  C  1378  1  0.47178300  0.62588400  0.59998100  1
  C  1379  1  0.50071200  0.62618900  0.60029600  1
  C  1380  1  0.51515900  0.61126000  0.58828200  1
  C  1381  1  0.50037100  0.59621800  0.57666000  1
  C  1382  1  0.47175200  0.59710900  0.57623000  1
  C  1385  1  0.54395200  0.61326300  0.58625600  1
  C  1386  1  0.56122600  0.60054100  0.59765900  1
  C  1387  1  0.58977800  0.60247700  0.59633100  1
  C  1388  1  0.60178400  0.61630600  0.58322000  1
  C  1389  1  0.58445300  0.62853900  0.57167500  1
  C  1390  1  0.55568300  0.62778900  0.57308100  1
  C  1401  1  0.10176900  0.38978400  0.08780700  1
  C  1402  1  0.08695400  0.37603900  0.09998000  1
  C  1403  1  0.05802500  0.37573600  0.10029500  1
  C  1404  1  0.04358000  0.39066100  0.08827900  1
  C  1405  1  0.05836600  0.40570100  0.07665500  1
  C  1406  1  0.08698600  0.40480800  0.07622300  1
  C  1409  1  0.01478800  0.38865800  0.08625200  1
  C  1410  1  0.99751100  0.40137800  0.09765500  1
  C  1411  1  0.96895900  0.39944200  0.09632500  1
  C  1412  1  0.95695400  0.38561500  0.08321200  1
  C  1413  1  0.97428900  0.37338200  0.07166900  1
  C  1414  1  0.00305700  0.37413200  0.07307600  1
  C  1425  1  0.10091600  0.61214500  0.91905000  1
  C  1426  1  0.08587600  0.62581200  0.90694100  1
  C  1427  1  0.05694300  0.62624400  0.90685300  1
  C  1428  1  0.04270200  0.61149800  0.91903200  1
  C  1429  1  0.05769200  0.59649500  0.93058000  1
  C  1430  1  0.08632100  0.59729400  0.93079700  1
  C  1433  1  0.01395500  0.61358700  0.92126700  1
  C  1434  1  0.99640800  0.60095400  0.90997300  1
  C  1435  1  0.96789100  0.60285800  0.91155100  1
  C  1436  1  0.95618800  0.61649900  0.92482800  1
  C  1437  1  0.97379700  0.62868200  0.93624500  1
  C  1438  1  0.00252700  0.62800700  0.93457700  1
  C  1449  1  0.45782000  0.38977600  0.41905600  1
  C  1450  1  0.47285400  0.37611300  0.40694400  1
  C  1451  1  0.50178800  0.37568400  0.40685600  1
  C  1452  1  0.51602800  0.39042900  0.41903500  1
  C  1453  1  0.50103900  0.40543300  0.43058400  1
  C  1454  1  0.47240900  0.40463100  0.43080200  1
  C  1457  1  0.54477600  0.38834000  0.42127000  1
  C  1458  1  0.56232400  0.40096900  0.40997600  1
  C  1459  1  0.59084100  0.39906300  0.41155300  1
  C  1460  1  0.60254400  0.38542400  0.42483200  1
  C  1461  1  0.58493300  0.37324300  0.43624900  1
  C  1462  1  0.55620100  0.37392000  0.43458100  1
  C  1473  1  0.21854900  0.03808400  0.04079200  1
  C  1474  1  0.24241300  0.03901700  0.03125300  1
  C  1475  1  0.24390800  0.02562100  0.01614300  1
  C  1476  1  0.22077800  0.01058700  0.01074600  1
  C  1477  1  0.19712800  0.00920100  0.02047400  1
  C  1478  1  0.19602900  0.02276600  0.03533800  1
  C  1481  1  0.21993300  0.99728700  0.99556200  1
  C  1482  1  0.23256900  0.97153900  0.99418000  1
  C  1483  1  0.23141700  0.95691800  0.97964200  1
  C  1484  1  0.21731800  0.96765300  0.96626300  1
  C  1485  1  0.20485600  0.99345100  0.96760300  1
  C  1486  1  0.20590300  0.00862600  0.98209500  1
  C  1497  1  0.34019600  0.96384000  0.54080200  1
  C  1498  1  0.31633000  0.96290500  0.53126700  1
  C  1499  1  0.31482700  0.97629800  0.51615600  1
  C  1500  1  0.33795700  0.99133000  0.51075400  1
  C  1501  1  0.36161100  0.99271500  0.52047900  1
  C  1502  1  0.36271500  0.97915300  0.53534400  1
  C  1505  1  0.33879400  0.00463100  0.49557100  1
  C  1506  1  0.32615200  0.03037600  0.49419100  1
  C  1507  1  0.32729900  0.04500200  0.47965400  1
  C  1508  1  0.34140100  0.03427100  0.46627400  1
  C  1509  1  0.35386900  0.00847600  0.46761200  1
  C  1510  1  0.35282600  0.99329900  0.48210300  1
  C  1521  1  0.24422000  0.93956800  0.29144300  1
  C  1522  1  0.24255600  0.96331000  0.28191100  1
  C  1523  1  0.25523500  0.96492400  0.26657500  1
  C  1524  1  0.27028100  0.94203400  0.26091700  1
  C  1525  1  0.27239000  0.91850000  0.27062100  1
  C  1526  1  0.25954600  0.91728800  0.28572300  1
  C  1529  1  0.28287600  0.94132500  0.24550700  1
  C  1530  1  0.30867400  0.95387200  0.24373200  1
  C  1531  1  0.32264700  0.95282900  0.22895100  1
  C  1532  1  0.31119300  0.93895600  0.21570500  1
  C  1533  1  0.28532200  0.92661800  0.21742900  1
  C  1534  1  0.27080400  0.92753500  0.23218300  1
  C  1545  1  0.31456000  0.06232500  0.79142900  1
  C  1546  1  0.31622600  0.03859400  0.78188900  1
  C  1547  1  0.30353100  0.03698700  0.76655700  1
  C  1548  1  0.28846800  0.05987600  0.76091300  1
  C  1549  1  0.28635900  0.08340100  0.77062600  1
  C  1550  1  0.29921900  0.08460300  0.78572300  1
  C  1553  1  0.27585300  0.06059100  0.74550800  1
  C  1554  1  0.25005900  0.04803300  0.74374100  1
  C  1555  1  0.23607200  0.04906900  0.72896400  1
  C  1556  1  0.24751100  0.06294500  0.71571400  1
  C  1557  1  0.27337400  0.07529800  0.71743100  1
  C  1558  1  0.28790700  0.07438700  0.73218000  1
  C  1569  1  0.83754200  0.96531500  0.96625300  1
  C  1570  1  0.81398600  0.96344800  0.97601500  1
  C  1571  1  0.81258300  0.97623700  0.99131200  1
  C  1572  1  0.83550900  0.99157600  0.99670700  1
  C  1573  1  0.85886700  0.99385400  0.98679400  1
  C  1574  1  0.85984700  0.98093900  0.97171800  1
  C  1577  1  0.83641500  0.00427700  0.01206900  1
  C  1578  1  0.82439600  0.03026800  0.01370700  1
  C  1579  1  0.82545400  0.04422600  0.02847500  1
  C  1580  1  0.83874200  0.03252700  0.04186300  1
  C  1581  1  0.85056900  0.00647500  0.04026700  1
  C  1582  1  0.84968500  0.99199900  0.02551400  1
  C  1593  1  0.72117800  0.03660000  0.46624300  1
  C  1594  1  0.74473800  0.03846400  0.47600000  1
  C  1595  1  0.74614700  0.02567800  0.49129800  1
  C  1596  1  0.72322200  0.01034700  0.49669900  1
  C  1597  1  0.69985700  0.00807200  0.48679100  1
  C  1598  1  0.69887300  0.02098400  0.47171400  1
  C  1601  1  0.72232300  0.99764200  0.51205900  1
  C  1602  1  0.73435100  0.97165500  0.51369500  1
  C  1603  1  0.73329700  0.95769300  0.52846200  1
  C  1604  1  0.72000600  0.96938600  0.54185000  1
  C  1605  1  0.70817100  0.99543400  0.54025700  1
  C  1606  1  0.70905100  0.00991400  0.52550600  1
  C  1617  1  0.81640500  0.06184600  0.71700300  1
  C  1618  1  0.81784600  0.03814000  0.72657400  1
  C  1619  1  0.80429600  0.03637400  0.74164100  1
  C  1620  1  0.78861900  0.05906800  0.74696100  1
  C  1621  1  0.78672400  0.08255100  0.73719900  1
  C  1622  1  0.80041700  0.08391100  0.72236800  1
  C  1625  1  0.77525400  0.05970100  0.76213600  1
  C  1626  1  0.74930300  0.04729900  0.76339900  1
  C  1627  1  0.73451200  0.04844600  0.77789400  1
  C  1628  1  0.74531200  0.06225700  0.79135200  1
  C  1629  1  0.77135100  0.07441300  0.79014900  1
  C  1630  1  0.78667500  0.07340900  0.77568800  1
  C  1641  1  0.74227200  0.94009000  0.21702000  1
  C  1642  1  0.74083700  0.96378800  0.22660000  1
  C  1643  1  0.75440500  0.96554200  0.24166200  1
  C  1644  1  0.77009300  0.94284600  0.24696800  1
  C  1645  1  0.77198000  0.91937200  0.23719900  1
  C  1646  1  0.75826800  0.91802200  0.22237200  1
  C  1649  1  0.78348200  0.94220500  0.26213500  1
  C  1650  1  0.80942700  0.95462000  0.26338800  1
  C  1651  1  0.82423500  0.95348100  0.27787800  1
  C  1652  1  0.81345500  0.93966700  0.29134200  1
  C  1653  1  0.78742200  0.92749400  0.29014800  1
  C  1654  1  0.77208400  0.92849100  0.27569200  1
  C  1665  1  0.72123100  0.53815800  0.54070200  1
  C  1666  1  0.74499100  0.53952200  0.53109200  1
  C  1667  1  0.74666600  0.52599500  0.51603000  1
  C  1668  1  0.72382200  0.51042600  0.51074900  1
  C  1669  1  0.70029400  0.50859600  0.52055400  1
  C  1670  1  0.69902400  0.52226300  0.53538100  1
  C  1673  1  0.72308100  0.49712000  0.49557000  1
  C  1674  1  0.73555700  0.47129000  0.49426400  1
  C  1675  1  0.73434900  0.45658500  0.47975900  1
  C  1676  1  0.72040200  0.46734500  0.46632900  1
  C  1677  1  0.70816900  0.49326200  0.46757700  1
  C  1678  1  0.70923100  0.50849800  0.48204800  1
  C  1689  1  0.83751500  0.46377600  0.04071400  1
  C  1690  1  0.81375300  0.46240700  0.03110700  1
  C  1691  1  0.81207100  0.47593200  0.01604400  1
  C  1692  1  0.83491200  0.49150100  0.01075900  1
  C  1693  1  0.85844400  0.49333400  0.02056200  1
  C  1694  1  0.85972000  0.47966800  0.03538900  1
  C  1697  1  0.83564700  0.50480700  0.99557900  1
  C  1698  1  0.82316500  0.53063300  0.99427500  1
  C  1699  1  0.82436700  0.54534200  0.97977100  1
  C  1700  1  0.83831600  0.53458700  0.96634000  1
  C  1701  1  0.85055700  0.50867300  0.96758600  1
  C  1702  1  0.84950000  0.49343500  0.98205800  1
  C  1713  1  0.74341500  0.44149000  0.79106300  1
  C  1714  1  0.74168000  0.46497100  0.78130700  1
  C  1715  1  0.75471000  0.46639900  0.76606400  1
  C  1716  1  0.77015600  0.44356800  0.76070900  1
  C  1717  1  0.77229000  0.42027400  0.77060900  1
  C  1718  1  0.75915000  0.41927500  0.78563500  1
  C  1721  1  0.78317400  0.44275100  0.74541900  1
  C  1722  1  0.80935700  0.45460000  0.74398200  1
  C  1723  1  0.82358500  0.45372200  0.72928200  1
  C  1724  1  0.81195600  0.44081100  0.71574600  1
  C  1725  1  0.78572000  0.42913600  0.71714200  1
  C  1726  1  0.77098100  0.42982900  0.73183000  1
  C  1737  1  0.81537000  0.56039500  0.29104700  1
  C  1738  1  0.81710500  0.53692300  0.28128300  1
  C  1739  1  0.80405700  0.53550400  0.26604700  1
  C  1740  1  0.78859400  0.55833100  0.26070500  1
  C  1741  1  0.78646300  0.58161700  0.27061300  1
  C  1742  1  0.79961900  0.58260500  0.28563500  1
  C  1745  1  0.77555600  0.55915600  0.24542000  1
  C  1746  1  0.74937900  0.54728800  0.24399400  1
  C  1747  1  0.73513500  0.54816100  0.22929800  1
  C  1748  1  0.74674100  0.56108000  0.21575800  1
  C  1749  1  0.77296800  0.57277700  0.21714600  1
  C  1750  1  0.78772500  0.57209200  0.23182800  1
  C  1761  1  0.34069200  0.46482500  0.46647200  1
  C  1762  1  0.31729800  0.46283400  0.47636100  1
  C  1763  1  0.31589700  0.47595300  0.49156000  1
  C  1764  1  0.33865700  0.49174100  0.49673600  1
  C  1765  1  0.36184800  0.49414100  0.48669800  1
  C  1766  1  0.36282200  0.48091100  0.47171400  1
  C  1769  1  0.33956100  0.50475000  0.51201200  1
  C  1770  1  0.32774900  0.53086900  0.51343100  1
  C  1771  1  0.32869600  0.54507000  0.52812100  1
  C  1772  1  0.34161900  0.53347400  0.54166600  1
  C  1773  1  0.35324200  0.50729400  0.54029000  1
  C  1774  1  0.35249900  0.49259100  0.52560800  1
  C  1785  1  0.21802800  0.53708000  0.96646200  1
  C  1786  1  0.24142500  0.53907300  0.97634600  1
  C  1787  1  0.24283200  0.52595600  0.99154600  1
  C  1788  1  0.22007400  0.51017000  0.99672700  1
  C  1789  1  0.19687800  0.50777000  0.98669300  1
  C  1790  1  0.19589800  0.52099800  0.97170700  1
  C  1793  1  0.21917800  0.49715900  0.01200300  1
  C  1794  1  0.23100300  0.47104400  0.01342000  1
  C  1795  1  0.23006100  0.45684100  0.02810900  1
  C  1796  1  0.21713200  0.46842800  0.04165500  1
  C  1797  1  0.20549900  0.49460500  0.04028000  1
  C  1798  1  0.20623600  0.50930900  0.02560000  1
  C  1809  1  0.31452300  0.55974600  0.21643000  1
  C  1810  1  0.31706100  0.53639000  0.22622600  1
  C  1811  1  0.30400100  0.53459900  0.24144300  1
  C  1812  1  0.28772900  0.55690900  0.24670800  1
  C  1813  1  0.28473600  0.58002100  0.23673700  1
  C  1814  1  0.29791000  0.58139100  0.22173600  1
  C  1817  1  0.27501200  0.55760300  0.26207600  1
  C  1818  1  0.24883800  0.54579000  0.26364200  1
  C  1819  1  0.23472900  0.54694100  0.27837300  1
  C  1820  1  0.24648200  0.56008100  0.29179300  1
  C  1821  1  0.27275400  0.57162600  0.29028400  1
  C  1822  1  0.28736500  0.57068000  0.27556000  1
  C  1833  1  0.24415100  0.44220000  0.71644700  1
  C  1834  1  0.24162700  0.46554700  0.72625000  1
  C  1835  1  0.25470600  0.46732800  0.74146200  1
  C  1836  1  0.27098200  0.44501600  0.74671500  1
  C  1837  1  0.27396000  0.42190900  0.73673800  1
  C  1838  1  0.26076700  0.42054800  0.72174200  1
  C  1841  1  0.28372100  0.44431600  0.76207700  1
  C  1842  1  0.30988700  0.45615000  0.76363400  1
  C  1843  1  0.32401200  0.45500500  0.77836000  1
  C  1844  1  0.31228500  0.44185200  0.79178300  1
  C  1845  1  0.28602400  0.43028100  0.79028200  1
  C  1846  1  0.27139400  0.43122000  0.77556500  1
  C  1857  1  0.31381100  0.96620300  0.15921500  1
  C  1858  1  0.30716300  0.95330000  0.14447200  1
  C  1859  1  0.29416400  0.96735400  0.13168500  1
  C  1860  1  0.28778000  0.99537100  0.13383300  1
  C  1861  1  0.29451100  0.00844800  0.14846000  1
  C  1862  1  0.30731600  0.99404500  0.16096900  1
  C  1865  1  0.27445400  0.01089700  0.12174400  1
  C  1866  1  0.24570200  0.01290000  0.12246000  1
  C  1867  1  0.23115000  0.02681400  0.11043100  1
  C  1868  1  0.24497100  0.03876500  0.09728700  1
  C  1869  1  0.27375600  0.03690100  0.09667400  1
  C  1870  1  0.28890700  0.02329400  0.10878400  1
  C  1881  1  0.24491400  0.03570100  0.65922700  1
  C  1882  1  0.25157800  0.04861100  0.64448900  1
  C  1883  1  0.26458500  0.03456400  0.63170200  1
  C  1884  1  0.27096500  0.00654500  0.63384600  1
  C  1885  1  0.26422200  0.99346100  0.64846900  1
  C  1886  1  0.25140900  0.00785800  0.66097600  1
  C  1889  1  0.28429500  0.99102500  0.62175600  1
  C  1890  1  0.31304700  0.98903400  0.62247200  1
  C  1891  1  0.32760600  0.97512300  0.61044400  1
  C  1892  1  0.31378600  0.96316300  0.59730200  1
  C  1893  1  0.28500300  0.96502000  0.59668700  1
  C  1894  1  0.26984800  0.97862200  0.60879700  1
  C  1905  1  0.31490900  0.03819200  0.40973700  1
  C  1906  1  0.32837700  0.03156400  0.39515800  1
  C  1907  1  0.31483100  0.01820300  0.38230600  1
  C  1908  1  0.28674500  0.01145300  0.38420800  1
  C  1909  1  0.27307800  0.01825100  0.39864700  1
  C  1910  1  0.28698800  0.03140400  0.41122700  1
  C  1913  1  0.27176600  0.99751600  0.37211100  1
  C  1914  1  0.27032800  0.96886700  0.37311000  1
  C  1915  1  0.25680000  0.95374800  0.36117600  1
  C  1916  1  0.24469600  0.96688700  0.34784100  1
  C  1917  1  0.24603300  0.99556400  0.34693000  1
  C  1918  1  0.25923000  0.01127700  0.35894200  1
  C  1929  1  0.24379900  0.96373700  0.90972200  1
  C  1930  1  0.23033100  0.97035800  0.89514200  1
  C  1931  1  0.24387700  0.98371900  0.88229000  1
  C  1932  1  0.27196400  0.99047400  0.88419200  1
  C  1933  1  0.28562600  0.98368400  0.89863500  1
  C  1934  1  0.27171700  0.97053300  0.91121400  1
  C  1937  1  0.28694500  0.00440300  0.87209400  1
  C  1938  1  0.28839900  0.03305200  0.87309300  1
  C  1939  1  0.30193400  0.04816500  0.86116000  1
  C  1940  1  0.31403700  0.03502100  0.84782700  1
  C  1941  1  0.31267900  0.00634300  0.84691400  1
  C  1942  1  0.29947400  0.99063900  0.85892500  1
  C  1953  1  0.73896700  0.03602100  0.84786000  1
  C  1954  1  0.74540000  0.04937300  0.86249500  1
  C  1955  1  0.75821300  0.03569900  0.87549000  1
  C  1956  1  0.76452800  0.00759700  0.87368700  1
  C  1957  1  0.75786600  0.99404900  0.85919900  1
  C  1958  1  0.74528100  0.00808500  0.84647200  1
  C  1961  1  0.77829800  0.99258700  0.88582900  1
  C  1962  1  0.80700800  0.99054500  0.88470600  1
  C  1963  1  0.82205000  0.97693500  0.89663500  1
  C  1964  1  0.80879200  0.96530900  0.91008300  1
  C  1965  1  0.78005200  0.96729500  0.91113800  1
  C  1966  1  0.76439900  0.98060700  0.89913100  1
  C  1977  1  0.81977400  0.96590900  0.34784600  1
  C  1978  1  0.81332400  0.95255000  0.36247600  1
  C  1979  1  0.80049900  0.96621800  0.37547000  1
  C  1980  1  0.79418600  0.99432000  0.37367100  1
  C  1981  1  0.80085800  0.00787400  0.35918700  1
  C  1982  1  0.81345500  0.99384600  0.34646000  1
  C  1985  1  0.78041100  0.00932300  0.38581200  1
  C  1986  1  0.75170200  0.01135300  0.38469200  1
  C  1987  1  0.73665400  0.02495800  0.39662200  1
  C  1988  1  0.74991200  0.03659100  0.41006800  1
  C  1989  1  0.77865200  0.03461700  0.41112200  1
  C  1990  1  0.79430900  0.02131100  0.39911400  1
  C  2001  1  0.74839900  0.96616500  0.59815700  1
  C  2002  1  0.73527700  0.97276600  0.61285000  1
  C  2003  1  0.74917500  0.98588800  0.62564700  1
  C  2004  1  0.77727800  0.99242200  0.62356600  1
  C  2005  1  0.79056200  0.98579300  0.60897200  1
  C  2006  1  0.77628900  0.97289000  0.59643900  1
  C  2009  1  0.79263100  0.00581500  0.63571100  1
  C  2010  1  0.79497200  0.03440800  0.63477600  1
  C  2011  1  0.80833300  0.04908700  0.64696500  1
  C  2012  1  0.81938200  0.03556100  0.66048600  1
  C  2013  1  0.81725900  0.00691900  0.66128800  1
  C  2014  1  0.80417000  0.99164300  0.64904400  1
  C  2025  1  0.81036600  0.03574000  0.09817400  1
  C  2026  1  0.82349000  0.02914500  0.11286800  1
  C  2027  1  0.80959400  0.01602500  0.12566700  1
  C  2028  1  0.78149300  0.00948200  0.12358600  1
  C  2029  1  0.76820900  0.01610000  0.10899000  1
  C  2030  1  0.78247800  0.02900100  0.09645500  1
  C  2033  1  0.76614100  0.99609700  0.13573300  1
  C  2034  1  0.76378900  0.96750300  0.13480000  1
  C  2035  1  0.75041600  0.95283300  0.14698800  1
  C  2036  1  0.73936300  0.96636400  0.16050700  1
  C  2037  1  0.74150200  0.99500700  0.16130800  1
  C  2038  1  0.75460300  0.01027400  0.14906400  1
  C  2049  1  0.81624800  0.47002300  0.65960800  1
  C  2050  1  0.80991700  0.45722600  0.64478400  1
  C  2051  1  0.79696100  0.47128200  0.63198800  1
  C  2052  1  0.79029700  0.49922100  0.63420200  1
  C  2053  1  0.79665900  0.51218700  0.64892600  1
  C  2054  1  0.80941300  0.49776300  0.66145100  1
  C  2057  1  0.77700200  0.51469800  0.62207100  1
  C  2058  1  0.74827600  0.51697200  0.62286100  1
  C  2059  1  0.73368900  0.53038700  0.61064700  1
  C  2060  1  0.74744100  0.54155200  0.59723500  1
  C  2061  1  0.77621200  0.53950400  0.59657400  1
  C  2062  1  0.79139500  0.52638100  0.60885600  1
  C  2073  1  0.74247400  0.53188000  0.15962100  1
  C  2074  1  0.74882600  0.54468900  0.14480200  1
  C  2075  1  0.76179400  0.53064100  0.13200800  1
  C  2076  1  0.76845200  0.50269800  0.13421700  1
  C  2077  1  0.76207200  0.48972400  0.14893400  1
  C  2078  1  0.74930700  0.50413800  0.16146000  1
  C  2081  1  0.78174900  0.48722700  0.12208600  1
  C  2082  1  0.81047600  0.48496300  0.12287600  1
  C  2083  1  0.82506800  0.47155200  0.11066200  1
  C  2084  1  0.81131700  0.46038000  0.09725100  1
  C  2085  1  0.78254900  0.46242100  0.09658800  1
  C  2086  1  0.76735900  0.47554000  0.10887000  1
  C  2097  1  0.81251600  0.54071200  0.90971800  1
  C  2098  1  0.82613500  0.53457000  0.89511200  1
  C  2099  1  0.81271800  0.52164300  0.88205600  1
  C  2100  1  0.78459300  0.51490000  0.88376000  1
  C  2101  1  0.77077500  0.52126100  0.89822200  1
  C  2102  1  0.78456200  0.53396000  0.91101000  1
  C  2105  1  0.76981500  0.50104300  0.87154000  1
  C  2106  1  0.76795400  0.47243300  0.87266500  1
  C  2107  1  0.75451200  0.45733500  0.86069400  1
  C  2108  1  0.74287600  0.47043600  0.84719700  1
  C  2109  1  0.74470200  0.49907200  0.84613100  1
  C  2110  1  0.75782900  0.51477400  0.85818200  1
  C  2121  1  0.74619200  0.46122200  0.40970300  1
  C  2122  1  0.73257400  0.46735900  0.39509500  1
  C  2123  1  0.74599200  0.48028400  0.38204000  1
  C  2124  1  0.77411500  0.48703400  0.38374500  1
  C  2125  1  0.78793100  0.48068100  0.39820900  1
  C  2126  1  0.77414400  0.46798100  0.41099700  1
  C  2129  1  0.78889400  0.50088200  0.37152300  1
  C  2130  1  0.79077500  0.52949000  0.37264700  1
  C  2131  1  0.80422700  0.54458000  0.36067600  1
  C  2132  1  0.81585800  0.53147300  0.34718200  1
  C  2133  1  0.81401200  0.50283900  0.34611400  1
  C  2134  1  0.80087500  0.48714300  0.35816400  1
  C  2145  1  0.24096000  0.53292500  0.34824300  1
  C  2146  1  0.24738500  0.54611300  0.36293200  1
  C  2147  1  0.26039200  0.53237200  0.37583400  1
  C  2148  1  0.26694900  0.50435100  0.37388500  1
  C  2149  1  0.26034500  0.49096700  0.35933300  1
  C  2150  1  0.24755800  0.50507500  0.34669700  1
  C  2153  1  0.28083200  0.48930100  0.38597500  1
  C  2154  1  0.30956200  0.48749700  0.38487000  1
  C  2155  1  0.32472500  0.47417500  0.39686700  1
  C  2156  1  0.31156500  0.46263100  0.41037400  1
  C  2157  1  0.28280700  0.46432500  0.41139900  1
  C  2158  1  0.26704100  0.47732500  0.39932100  1
  C  2169  1  0.31778100  0.46900400  0.84823100  1
  C  2170  1  0.31133800  0.45580600  0.86291500  1
  C  2171  1  0.29832100  0.46953900  0.87581600  1
  C  2172  1  0.29176700  0.49755900  0.87387200  1
  C  2173  1  0.29838400  0.51095400  0.85932400  1
  C  2174  1  0.31118100  0.49685400  0.84668800  1
  C  2177  1  0.27788000  0.51260600  0.88596100  1
  C  2178  1  0.24914800  0.51439300  0.88486000  1
  C  2179  1  0.23398300  0.52771300  0.89685600  1
  C  2180  1  0.24714200  0.53927000  0.91035900  1
  C  2181  1  0.27590000  0.53758800  0.91138200  1
  C  2182  1  0.29166900  0.52459200  0.89930500  1
  C  2193  1  0.24631500  0.46332400  0.09781200  1
  C  2194  1  0.23345900  0.46940300  0.11266800  1
  C  2195  1  0.24752100  0.48226300  0.12550000  1
  C  2196  1  0.27553800  0.48905700  0.12329900  1
  C  2197  1  0.28857400  0.48289300  0.10855500  1
  C  2198  1  0.27414200  0.47024200  0.09599300  1
  C  2201  1  0.29094400  0.50256400  0.13538800  1
  C  2202  1  0.29304900  0.53117600  0.13442800  1
  C  2203  1  0.30643000  0.54599100  0.14655000  1
  C  2204  1  0.31774700  0.53259800  0.16004000  1
  C  2205  1  0.31584400  0.50394500  0.16088300  1
  C  2206  1  0.30275500  0.48853000  0.14869200  1
  C  2217  1  0.31244900  0.53857600  0.59782700  1
  C  2218  1  0.32530500  0.53250600  0.61268400  1
  C  2219  1  0.31124400  0.51964600  0.62551700  1
  C  2220  1  0.28323100  0.51284400  0.62331700  1
  C  2221  1  0.27019600  0.51899500  0.60857000  1
  C  2222  1  0.28462600  0.53164600  0.59600700  1
  C  2225  1  0.26782300  0.49934500  0.63540800  1
  C  2226  1  0.26570400  0.47073500  0.63444900  1
  C  2227  1  0.25230900  0.45592800  0.64657000  1
  C  2228  1  0.24099400  0.46932700  0.66005800  1
  C  2229  1  0.24291500  0.49798000  0.66090100  1
  C  2230  1  0.25601600  0.51338700  0.64871000  1
  N  17  1  0.18430800  0.08523700  0.04631500  1
  N  18  1  0.13812100  0.07128100  0.07762400  1
  N  39  1  0.37442000  0.91667200  0.54632300  1
  N  40  1  0.42061800  0.93063600  0.57762900  1
  N  61  1  0.19745600  0.90500900  0.29766900  1
  N  62  1  0.21153800  0.85925400  0.32897200  1
  N  83  1  0.36131500  0.09690200  0.79766800  1
  N  84  1  0.34719100  0.14265500  0.82897800  1
  N  105  1  0.37605500  0.08149100  0.46170600  1
  N  106  1  0.42041500  0.07100700  0.43030700  1
  N  127  1  0.18267400  0.92042200  0.96169700  1
  N  128  1  0.13831400  0.93091300  0.93030000  1
  N  149  1  0.35821400  0.90420800  0.21046100  1
  N  150  1  0.34746900  0.86031300  0.17906200  1
  N  171  1  0.20049800  0.09770100  0.71046600  1
  N  172  1  0.21127000  0.14159600  0.67906200  1
  N  193  1  0.87306200  0.91943100  0.95969000  1
  N  194  1  0.91495600  0.93445900  0.92272300  1
  N  215  1  0.68567600  0.08250100  0.45967900  1
  N  216  1  0.64377200  0.06746000  0.42271300  1
  N  237  1  0.86313600  0.09694600  0.71197900  1
  N  238  1  0.84956100  0.14213800  0.67932200  1
  N  259  1  0.69554800  0.90497300  0.21197700  1
  N  260  1  0.70917900  0.85978900  0.17932000  1
  N  281  1  0.68407600  0.92346400  0.54743100  1
  N  282  1  0.64401900  0.93462800  0.58401700  1
  N  303  1  0.87465900  0.07846400  0.04744000  1
  N  304  1  0.91471500  0.06729000  0.08402500  1
  N  325  1  0.69873100  0.09794800  0.79543100  1
  N  326  1  0.70877500  0.14125900  0.82810100  1
  N  347  1  0.86003200  0.90397200  0.29542900  1
  N  348  1  0.84995300  0.86066700  0.32809600  1
  N  369  1  0.68613000  0.58485000  0.54552800  1
  N  370  1  0.64098100  0.57193300  0.57905400  1
  N  391  1  0.87260100  0.41706900  0.04553500  1
  N  392  1  0.91775700  0.42999400  0.07906200  1
  N  413  1  0.69750100  0.40586800  0.79761300  1
  N  414  1  0.71295400  0.36518200  0.83569200  1
  N  435  1  0.86127600  0.59603500  0.29760700  1
  N  436  1  0.84577200  0.63670200  0.33570600  1
  N  457  1  0.87387700  0.58121800  0.96237500  1
  N  458  1  0.91725300  0.57187000  0.92888000  1
  N  479  1  0.68485600  0.42070100  0.46236700  1
  N  480  1  0.64148400  0.43005500  0.42887000  1
  N  501  1  0.85777600  0.40468000  0.71016400  1
  N  502  1  0.84624300  0.36629300  0.67249200  1
  N  523  1  0.70092700  0.59721800  0.21017300  1
  N  524  1  0.71249700  0.63559200  0.17248500  1
  N  545  1  0.37678600  0.41923600  0.46033100  1
  N  546  1  0.41670400  0.43294900  0.42082600  1
  N  567  1  0.18195000  0.58268500  0.96032300  1
  N  568  1  0.14202600  0.56896800  0.92081600  1
  N  589  1  0.35998800  0.59627700  0.21099400  1
  N  590  1  0.34678500  0.63724300  0.17167900  1
  N  611  1  0.19869100  0.40565600  0.71099900  1
  N  612  1  0.21195200  0.36469800  0.67167300  1
  N  633  1  0.18058900  0.42296800  0.04703000  1
  N  634  1  0.14282600  0.43296300  0.08618000  1
  N  655  1  0.37815200  0.57894700  0.54703800  1
  N  656  1  0.41590800  0.56895400  0.58619200  1
  N  677  1  0.20132500  0.59718800  0.29666900  1
  N  678  1  0.21130700  0.63600100  0.33564200  1
  N  699  1  0.35744400  0.40474700  0.79666300  1
  N  700  1  0.34742400  0.36594300  0.83564200  1
  N  723  1  0.15679100  0.24149800  0.10722300  1
  N  726  1  0.14079900  0.26075200  0.06086400  1
  N  747  1  0.40194700  0.76041600  0.60721800  1
  N  750  1  0.41794100  0.74117100  0.56086100  1
  N  771  1  0.04120300  0.87831300  0.35913700  1
  N  774  1  0.02356600  0.86664400  0.31156000  1
  N  795  1  0.51754900  0.12362700  0.85912600  1
  N  798  1  0.53516400  0.13524800  0.81153200  1
  N  819  1  0.40108800  0.24027600  0.40004400  1
  N  822  1  0.41858400  0.26077300  0.44608700  1
  N  843  1  0.15763900  0.76163700  0.90004600  1
  N  846  1  0.14014700  0.74114200  0.94608700  1
  N  867  1  0.51687200  0.87952500  0.14813200  1
  N  870  1  0.53574200  0.86619000  0.19542400  1
  N  891  1  0.04184200  0.12241400  0.64814500  1
  N  894  1  0.02300100  0.13569100  0.69545600  1
  N  915  1  0.89988500  0.76183400  0.90145800  1
  N  918  1  0.91164800  0.74342200  0.94920200  1
  N  939  1  0.65884600  0.24008900  0.40145900  1
  N  942  1  0.64708200  0.25849500  0.44920500  1
  N  963  1  0.65982800  0.76315200  0.60653100  1
  N  966  1  0.64626700  0.74346500  0.55914000  1
  N  987  1  0.89891500  0.23877600  0.10652700  1
  N  990  1  0.91246700  0.25845200  0.05913300  1
  N  1011  1  0.53907000  0.37922800  0.85525800  1
  N  1014  1  0.51943200  0.36215800  0.80862900  1
  N  1035  1  0.01968300  0.62271100  0.35524900  1
  N  1038  1  0.03931100  0.63973600  0.30859800  1
  N  1059  1  0.01939500  0.37990500  0.65233200  1
  N  1062  1  0.03992800  0.36156900  0.69865600  1
  N  1083  1  0.53931700  0.62203000  0.15234200  1
  N  1086  1  0.51880100  0.64031800  0.19869000  1
  N  1107  1  0.01109300  0.13773600  0.11212300  1
  N  1110  1  0.03967400  0.14472000  0.06265300  1
  N  1131  1  0.54764900  0.86418700  0.61212400  1
  N  1134  1  0.51906600  0.85719200  0.56265400  1
  N  1155  1  0.14015100  0.73291200  0.36178500  1
  N  1158  1  0.13767300  0.76262100  0.31329800  1
  N  1179  1  0.41856400  0.26899200  0.86181000  1
  N  1182  1  0.42106700  0.23928400  0.81330900  1
  N  1203  1  0.54665900  0.13792000  0.39516200  1
  N  1206  1  0.51911100  0.14453900  0.44494700  1
  N  1227  1  0.01206600  0.86401000  0.89516100  1
  N  1230  1  0.03961600  0.85738500  0.94494700  1
  N  1251  1  0.41826600  0.73424800  0.14558600  1
  N  1254  1  0.42104800  0.76318200  0.19436200  1
  N  1275  1  0.14048800  0.26765000  0.64556000  1
  N  1278  1  0.13767400  0.23872900  0.69435100  1
  N  1299  1  0.91696900  0.26895200  0.64524800  1
  N  1302  1  0.92104200  0.24201700  0.69506300  1
  N  1323  1  0.64178800  0.73297100  0.14522200  1
  N  1326  1  0.63769400  0.75991400  0.19504300  1
  N  1347  1  0.64166300  0.26769700  0.86266300  1
  N  1350  1  0.63764500  0.24165700  0.81251500  1
  N  1371  1  0.91704900  0.73423200  0.36268900  1
  N  1374  1  0.92108900  0.76026800  0.31253400  1
  N  1395  1  0.51340900  0.64179800  0.61160100  1
  N  1398  1  0.54059900  0.64164400  0.56198000  1
  N  1419  1  0.04532800  0.36013100  0.11160200  1
  N  1422  1  0.01814300  0.36027500  0.06197700  1
  N  1443  1  0.04406500  0.64181700  0.89560200  1
  N  1446  1  0.01786600  0.64182100  0.94557300  1
  N  1467  1  0.51466700  0.36011200  0.39560300  1
  N  1470  1  0.54086300  0.36010600  0.44557700  1
  N  1491  1  0.26718000  0.02795700  0.00728100  1
  N  1494  1  0.19360800  0.03345100  0.98253100  1
  N  1515  1  0.29155300  0.97396100  0.50729800  1
  N  1518  1  0.36512700  0.96847500  0.48253600  1
  N  1539  1  0.25223300  0.98807600  0.25775900  1
  N  1542  1  0.24589600  0.91531700  0.23300500  1
  N  1563  1  0.30653400  0.01384300  0.75773200  1
  N  1566  1  0.31281000  0.08661600  0.73299500  1
  N  1587  1  0.78957800  0.97312000  0.00033100  1
  N  1590  1  0.86145700  0.96694600  0.02479500  1
  N  1611  1  0.76916000  0.02879400  0.50031100  1
  N  1614  1  0.69727300  0.03496500  0.52479100  1
  N  1635  1  0.80708900  0.01328400  0.75053900  1
  N  1638  1  0.81166400  0.08552500  0.77533600  1
  N  1659  1  0.75161900  0.98862400  0.25056800  1
  N  1662  1  0.74709800  0.91636300  0.27534900  1
  N  1683  1  0.76981100  0.52872200  0.50709300  1
  N  1686  1  0.69703600  0.53337500  0.48243900  1
  N  1707  1  0.78892300  0.47320100  0.00711000  1
  N  1710  1  0.86170000  0.46856300  0.98244600  1
  N  1731  1  0.75173300  0.48935400  0.75706600  1
  N  1734  1  0.74576300  0.41821400  0.73235500  1
  N  1755  1  0.80703600  0.51255700  0.25703700  1
  N  1758  1  0.81293400  0.58372400  0.23234500  1
  N  1779  1  0.29304100  0.47272700  0.50069700  1
  N  1782  1  0.36411600  0.46745200  0.52508800  1
  N  1803  1  0.26569400  0.52918100  0.00068000  1
  N  1806  1  0.19460700  0.53444200  0.02508200  1
  N  1827  1  0.30776900  0.51185100  0.25052300  1
  N  1830  1  0.31255500  0.58233300  0.27488000  1
  N  1851  1  0.25094500  0.49007200  0.75054700  1
  N  1854  1  0.24621300  0.41955000  0.77489200  1
  N  1875  1  0.28806800  0.95349600  0.11793300  1
  N  1878  1  0.31660100  0.02242200  0.10752000  1
  N  1899  1  0.27069400  0.04843000  0.61795400  1
  N  1902  1  0.24215400  0.97948500  0.60753300  1
  N  1923  1  0.32923700  0.01206600  0.36874100  1
  N  1926  1  0.25955100  0.03883300  0.35740800  1
  N  1947  1  0.22947300  0.98985000  0.86872400  1
  N  1950  1  0.29913700  0.96308200  0.85739000  1
  N  1971  1  0.76432800  0.05001200  0.88907600  1
  N  1974  1  0.73677000  0.98155500  0.90078500  1
  N  1995  1  0.79437600  0.95189700  0.38905200  1
  N  1998  1  0.82193800  0.02037500  0.40076600  1
  N  2019  1  0.73506100  0.99199100  0.63932500  1
  N  2022  1  0.80292600  0.96410500  0.65054300  1
  N  2043  1  0.82370800  0.00993100  0.13934600  1
  N  2046  1  0.75585500  0.03781200  0.15056100  1
  N  2067  1  0.79112000  0.45745700  0.61818200  1
  N  2070  1  0.81906700  0.52523600  0.60750100  1
  N  2091  1  0.76764900  0.54447400  0.11820700  1
  N  2094  1  0.73968700  0.47667900  0.10751500  1
  N  2115  1  0.82729900  0.51582900  0.86850700  1
  N  2118  1  0.75857600  0.54230000  0.85652200  1
  N  2139  1  0.73141100  0.48609200  0.36848900  1
  N  2142  1  0.80010900  0.45961900  0.35650500  1
  N  2163  1  0.26645300  0.54656400  0.38947400  1
  N  2166  1  0.23940400  0.47803300  0.40096500  1
  N  2187  1  0.29224900  0.45533800  0.88945100  1
  N  2190  1  0.31930900  0.52389800  0.90094700  1
  N  2211  1  0.23361600  0.48794100  0.13931700  1
  N  2214  1  0.30177300  0.46098600  0.15020600  1
  N  2235  1  0.32515000  0.51397600  0.63933600  1
  N  2238  1  0.25701300  0.54092900  0.65022200  1
