# generated using pymatgen
data_H6C13N5O
_symmetry_space_group_name_H-M   'P 1'
_cell_length_a   41.21420000
_cell_length_b   41.21430000
_cell_length_c   54.82090000
_cell_angle_alpha   90.00000000
_cell_angle_beta   90.00000000
_cell_angle_gamma   90.00000000
_symmetry_Int_Tables_number   1
_chemical_formula_structural   H6C13N5O
_chemical_formula_sum   'H192 C416 N160 O32'
_cell_volume   93119.57032871
_cell_formula_units_Z   32
loop_
 _symmetry_equiv_pos_site_id
 _symmetry_equiv_pos_as_xyz
  1  'x, y, z'
loop_
 _atom_site_type_symbol
 _atom_site_label
 _atom_site_symmetry_multiplicity
 _atom_site_fract_x
 _atom_site_fract_y
 _atom_site_fract_z
 _atom_site_occupancy
  H  7  1  0.17339100  0.43724600  0.90472600  1
  H  8  1  0.20097900  0.36001600  0.95048800  1
  H  15  1  0.13009400  0.42185400  0.80057800  1
  H  16  1  0.20939000  0.39852900  0.84552800  1
  H  19  1  0.20322100  0.33342300  0.86542200  1
  H  20  1  0.10690100  0.42984600  0.88626300  1
  H  31  1  0.33022400  0.51415700  0.40473100  1
  H  32  1  0.30263800  0.59139200  0.45048900  1
  H  39  1  0.37351900  0.52953000  0.30058400  1
  H  40  1  0.29422400  0.55286700  0.34553100  1
  H  43  1  0.30039400  0.61797500  0.36542100  1
  H  44  1  0.39671500  0.52156200  0.38626700  1
  H  55  1  0.79068600  0.90103700  0.15527700  1
  H  56  1  0.86793900  0.92934000  0.20078300  1
  H  63  1  0.80721700  0.85442200  0.05202500  1
  H  64  1  0.82680300  0.93569700  0.09588800  1
  H  67  1  0.89401700  0.93002900  0.11536600  1
  H  68  1  0.80367000  0.83321800  0.13908700  1
  H  79  1  0.71293200  0.05035900  0.65528300  1
  H  80  1  0.63567700  0.02205800  0.70078800  1
  H  87  1  0.69638600  0.09696700  0.55202500  1
  H  88  1  0.67680800  0.01569600  0.59589300  1
  H  91  1  0.60960100  0.02136800  0.61537100  1
  H  92  1  0.69995600  0.11817700  0.63908700  1
  H  103  1  0.32939600  0.43335500  0.59566900  1
  H  104  1  0.30473700  0.35445500  0.55072300  1
  H  111  1  0.36807000  0.42395000  0.70065400  1
  H  112  1  0.29040700  0.39773600  0.65485400  1
  H  115  1  0.29696800  0.33118100  0.63638500  1
  H  116  1  0.39453200  0.42630100  0.61554500  1
  H  127  1  0.17421400  0.51803900  0.09566800  1
  H  128  1  0.19886400  0.59694300  0.05072400  1
  H  135  1  0.13555300  0.52743100  0.20065700  1
  H  136  1  0.21321300  0.55364500  0.15485400  1
  H  139  1  0.20665800  0.62020500  0.13638700  1
  H  140  1  0.10908100  0.52509700  0.11554800  1
  H  151  1  0.70889700  0.90191100  0.34521900  1
  H  152  1  0.62998400  0.92733600  0.30053900  1
  H  159  1  0.69867200  0.86005600  0.44943600  1
  H  160  1  0.67596900  0.93969600  0.40457800  1
  H  163  1  0.60726400  0.93364000  0.38659700  1
  H  164  1  0.69638900  0.83556700  0.36307100  1
  H  175  1  0.79472100  0.04948900  0.84522000  1
  H  176  1  0.87363800  0.02405900  0.80054300  1
  H  183  1  0.80494100  0.09134900  0.94943700  1
  H  184  1  0.82764700  0.01170900  0.90457900  1
  H  187  1  0.89635600  0.01777000  0.88660400  1
  H  188  1  0.80723400  0.11583800  0.86307200  1
  H  199  1  0.82637300  0.51479000  0.09839800  1
  H  200  1  0.79910600  0.59221200  0.05269100  1
  H  207  1  0.87331600  0.53218400  0.20169900  1
  H  208  1  0.79190700  0.55076300  0.15771700  1
  H  211  1  0.79807500  0.61834100  0.13816100  1
  H  212  1  0.89452000  0.52835800  0.11458400  1
  H  223  1  0.67723500  0.43660100  0.59838700  1
  H  224  1  0.70450500  0.35917600  0.55268500  1
  H  231  1  0.63030700  0.41921400  0.70169200  1
  H  232  1  0.71171400  0.40062600  0.65771300  1
  H  235  1  0.70555600  0.33305900  0.63815600  1
  H  236  1  0.60910300  0.42305500  0.61458000  1
  H  247  1  0.21535900  0.04801400  0.84870800  1
  H  248  1  0.13593700  0.02420000  0.80393600  1
  H  255  1  0.19994600  0.09774800  0.95192200  1
  H  256  1  0.18072200  0.01633800  0.90812300  1
  H  259  1  0.11181400  0.02808100  0.89062400  1
  H  260  1  0.20214400  0.11839000  0.86442600  1
  H  271  1  0.28826000  0.90339500  0.34870600  1
  H  272  1  0.36768200  0.92719800  0.30393000  1
  H  279  1  0.30367700  0.85366300  0.45191900  1
  H  280  1  0.32290100  0.93507100  0.40812000  1
  H  283  1  0.39180900  0.92332300  0.39061800  1
  H  284  1  0.30147600  0.83301900  0.36442300  1
  H  295  1  0.67802400  0.51871600  0.40835900  1
  H  296  1  0.70231900  0.59779500  0.45322900  1
  H  303  1  0.63578100  0.52975600  0.30408500  1
  H  304  1  0.71556400  0.55153400  0.34907100  1
  H  307  1  0.70893800  0.62062200  0.36713000  1
  H  308  1  0.61133600  0.53177700  0.39051500  1
  H  319  1  0.82559200  0.43269000  0.90836000  1
  H  320  1  0.80129000  0.35360800  0.95322800  1
  H  327  1  0.86782700  0.42164500  0.80408200  1
  H  328  1  0.78804700  0.39988100  0.84907800  1
  H  331  1  0.79467800  0.33078800  0.86712700  1
  H  332  1  0.89228300  0.41961900  0.89051100  1
  H  343  1  0.29234800  0.04714600  0.65795400  1
  H  344  1  0.37340300  0.02655000  0.70177300  1
  H  351  1  0.30130600  0.09215200  0.55376700  1
  H  352  1  0.32368900  0.01233900  0.59856000  1
  H  355  1  0.39423100  0.02465700  0.61431700  1
  H  356  1  0.30509400  0.11605100  0.64051700  1
  H  367  1  0.21127000  0.90425200  0.15795000  1
  H  368  1  0.13021600  0.92485600  0.20176800  1
  H  375  1  0.20229500  0.85923600  0.05376200  1
  H  376  1  0.17991900  0.93905800  0.09854900  1
  H  379  1  0.10938800  0.92675100  0.11431200  1
  H  380  1  0.19853100  0.83535100  0.14051600  1
  H  391  1  0.22790100  0.37015600  0.72538600  1
  H  395  1  0.23376100  0.42900900  0.81049800  1
  H  397  1  0.26898300  0.38595100  0.69415900  1
  H  404  1  0.27569900  0.58125000  0.22539400  1
  H  408  1  0.26983900  0.52240900  0.31050200  1
  H  410  1  0.23462200  0.56545200  0.19416700  1
  H  417  1  0.85578500  0.95122400  0.97578000  1
  H  421  1  0.79596400  0.95814300  0.06047700  1
  H  423  1  0.84058900  0.99197400  0.94430200  1
  H  430  1  0.64784700  0.00019400  0.47577300  1
  H  434  1  0.70767900  0.99326500  0.56048000  1
  H  436  1  0.66303600  0.95943700  0.44429800  1
  H  443  1  0.77626200  0.57986200  0.27800900  1
  H  447  1  0.76958200  0.52017600  0.19321100  1
  H  449  1  0.73538000  0.56465100  0.30938400  1
  H  456  1  0.72733400  0.37156500  0.77802300  1
  H  460  1  0.73403100  0.43122900  0.69320700  1
  H  462  1  0.76820900  0.38678300  0.80939400  1
  H  469  1  0.15178700  0.99960500  0.02773100  1
  H  473  1  0.21237300  0.99419900  0.94329400  1
  H  475  1  0.16658800  0.95831600  0.05880000  1
  H  482  1  0.35182500  0.95179900  0.52773700  1
  H  486  1  0.29126900  0.95721900  0.44329100  1
  H  488  1  0.33701500  0.99307300  0.55880700  1
  H  495  1  0.72814700  0.87427900  0.22565100  1
  H  499  1  0.73354800  0.93342900  0.31058800  1
  H  501  1  0.76946300  0.88975500  0.19459000  1
  H  508  1  0.77545100  0.07714000  0.72566500  1
  H  512  1  0.77006000  0.01799000  0.81059200  1
  H  514  1  0.73413800  0.06166400  0.69460000  1
  H  521  1  0.35733600  0.45157600  0.47541700  1
  H  525  1  0.29904000  0.45819800  0.56068000  1
  H  527  1  0.34141900  0.49245800  0.44403500  1
  H  534  1  0.14627500  0.49982400  0.97541800  1
  H  538  1  0.20461600  0.49322000  0.06067400  1
  H  540  1  0.16220200  0.45895200  0.94403100  1
  H  547  1  0.27606800  0.07550500  0.77774900  1
  H  551  1  0.26968100  0.01565900  0.69308300  1
  H  553  1  0.23497200  0.06060900  0.80898000  1
  H  560  1  0.22754400  0.87590500  0.27775000  1
  H  564  1  0.23393600  0.93574300  0.19307800  1
  H  566  1  0.26863800  0.89080500  0.30898300  1
  H  573  1  0.65030000  0.49939200  0.52815800  1
  H  577  1  0.70923100  0.49416800  0.44308800  1
  H  579  1  0.66580700  0.45795300  0.55911900  1
  H  586  1  0.85330600  0.45200100  0.02816600  1
  H  590  1  0.79440400  0.45724400  0.94308900  1
  H  592  1  0.83780100  0.49343800  0.05912700  1
  H  599  1  0.14261500  0.23904700  0.90163400  1
  H  603  1  0.21925800  0.15419500  0.94453600  1
  H  605  1  0.15551500  0.29707400  0.90662000  1
  H  612  1  0.36098700  0.71235700  0.40161000  1
  H  616  1  0.28436800  0.79721100  0.44453500  1
  H  618  1  0.34810100  0.65433100  0.40661300  1
  H  625  1  0.98808200  0.86883200  0.15246900  1
  H  629  1  0.07414300  0.94516700  0.19427400  1
  H  631  1  0.93026900  0.88247300  0.15764900  1
  H  638  1  0.51553800  0.08258100  0.65248900  1
  H  642  1  0.42947300  0.00622800  0.69427500  1
  H  644  1  0.57334900  0.06892700  0.65765600  1
  H  651  1  0.35996300  0.23507000  0.60305500  1
  H  655  1  0.28445100  0.14932800  0.55986000  1
  H  657  1  0.34694100  0.29301200  0.59762300  1
  H  664  1  0.14367000  0.71632700  0.10309000  1
  H  668  1  0.21915900  0.80206700  0.05985900  1
  H  670  1  0.15668000  0.65838100  0.09764400  1
  H  677  1  0.51139400  0.87012100  0.35262100  1
  H  681  1  0.42452600  0.94497800  0.31006100  1
  H  683  1  0.56913700  0.88373200  0.34684000  1
  H  690  1  0.99222600  0.08127500  0.85263100  1
  H  694  1  0.07909300  0.00642300  0.81006500  1
  H  696  1  0.93448400  0.06767100  0.84684300  1
  H  703  1  0.86105800  0.71154200  0.10101600  1
  H  707  1  0.78556900  0.79889500  0.05982100  1
  H  709  1  0.84647300  0.65398200  0.09585900  1
  H  716  1  0.64257200  0.23985200  0.60103200  1
  H  720  1  0.71803900  0.15249800  0.55981800  1
  H  722  1  0.65714700  0.29741400  0.59586000  1
  H  729  1  0.64358900  0.71557500  0.40113700  1
  H  733  1  0.71763900  0.80373300  0.44301400  1
  H  735  1  0.65815700  0.65808200  0.40692000  1
  H  742  1  0.86003100  0.23582900  0.90114600  1
  H  746  1  0.78596500  0.14767100  0.94300900  1
  H  748  1  0.84545400  0.29332100  0.90691900  1
  H  755  1  0.48816900  0.36409200  0.65158900  1
  H  759  1  0.57423200  0.43968500  0.69420300  1
  H  761  1  0.43035700  0.37789300  0.65654400  1
  H  768  1  0.01545800  0.58732300  0.15162000  1
  H  772  1  0.92938600  0.51169400  0.19419400  1
  H  774  1  0.07326800  0.57350500  0.15655700  1
  H  781  1  0.01159400  0.36519100  0.85314900  1
  H  785  1  0.92462300  0.43967000  0.81029700  1
  H  787  1  0.06931900  0.37912100  0.84770800  1
  H  794  1  0.49201700  0.58621900  0.35312800  1
  H  798  1  0.57899000  0.51172100  0.31030500  1
  H  800  1  0.43429200  0.57228200  0.34769800  1
  C  1  1  0.17691000  0.39193400  0.88702500  1
  C  2  1  0.17877400  0.41324300  0.90718500  1
  C  3  1  0.18790700  0.40193300  0.93058300  1
  C  4  1  0.19504000  0.36866600  0.93354000  1
  C  5  1  0.19227900  0.34671000  0.91390500  1
  C  6  1  0.18406700  0.35862100  0.89043200  1
  C  9  1  0.16479700  0.40312700  0.86424400  1
  C  10  1  0.13125500  0.40958400  0.86129800  1
  C  11  1  0.11830900  0.41584100  0.83778600  1
  C  12  1  0.13944500  0.41743500  0.81757500  1
  C  13  1  0.17306500  0.41204900  0.82024600  1
  C  14  1  0.18536000  0.40427700  0.84362000  1
  C  25  1  0.32670500  0.55946900  0.38702800  1
  C  26  1  0.32484200  0.53816300  0.40718800  1
  C  27  1  0.31570900  0.54947200  0.43058600  1
  C  28  1  0.30857800  0.58274000  0.43354300  1
  C  29  1  0.31133900  0.60469600  0.41390600  1
  C  30  1  0.31955000  0.59278200  0.39043300  1
  C  33  1  0.33881800  0.54827300  0.36424600  1
  C  34  1  0.37236000  0.54181500  0.36130200  1
  C  35  1  0.38530400  0.53555200  0.33779100  1
  C  36  1  0.36416800  0.53395300  0.31758000  1
  C  37  1  0.33054900  0.53934000  0.32025000  1
  C  38  1  0.31825400  0.54711900  0.34362400  1
  C  49  1  0.83598400  0.90433200  0.13756300  1
  C  50  1  0.81467100  0.90655900  0.15767900  1
  C  51  1  0.82599000  0.91606300  0.18098700  1
  C  52  1  0.85926700  0.92320700  0.18388100  1
  C  53  1  0.88121400  0.92008400  0.16426300  1
  C  54  1  0.86930000  0.91148000  0.14087400  1
  C  57  1  0.82485400  0.89131000  0.11509100  1
  C  58  1  0.82036100  0.85740200  0.11256500  1
  C  59  1  0.81341200  0.84372700  0.08948300  1
  C  60  1  0.81087100  0.86430900  0.06892900  1
  C  61  1  0.81468100  0.89820800  0.07114900  1
  C  62  1  0.82207400  0.91140500  0.09431500  1
  C  73  1  0.66763400  0.04706600  0.63756700  1
  C  74  1  0.68894700  0.04483900  0.65768400  1
  C  75  1  0.67762800  0.03533500  0.68099200  1
  C  76  1  0.64434800  0.02819100  0.68388500  1
  C  77  1  0.62240500  0.03131600  0.66426700  1
  C  78  1  0.63431800  0.03991800  0.64087800  1
  C  81  1  0.67876600  0.06008500  0.61509600  1
  C  82  1  0.68326000  0.09399400  0.61256800  1
  C  83  1  0.69020400  0.10766600  0.58948300  1
  C  84  1  0.69273700  0.08708200  0.56892900  1
  C  85  1  0.68893000  0.05318300  0.57115300  1
  C  86  1  0.68154000  0.03998900  0.59431900  1
  C  97  1  0.32434000  0.38878300  0.61435300  1
  C  98  1  0.32336000  0.40939700  0.59375400  1
  C  99  1  0.31522200  0.39725500  0.57040300  1
  C  100  1  0.30937400  0.36371900  0.56771600  1
  C  101  1  0.31083700  0.34252400  0.58789300  1
  C  102  1  0.31741500  0.35533600  0.61139500  1
  C  105  1  0.33574600  0.40068600  0.63713700  1
  C  106  1  0.36916200  0.40735400  0.64054100  1
  C  107  1  0.38122300  0.41526100  0.66403200  1
  C  108  1  0.35933000  0.41818000  0.68370100  1
  C  109  1  0.32595300  0.41155600  0.68074400  1
  C  110  1  0.31449400  0.40274900  0.65731700  1
  C  121  1  0.17927600  0.56260800  0.11435600  1
  C  122  1  0.18025100  0.54199700  0.09375400  1
  C  123  1  0.18838600  0.55414000  0.07040300  1
  C  124  1  0.19423200  0.58767700  0.06771700  1
  C  125  1  0.19277600  0.60886900  0.08789600  1
  C  126  1  0.18620200  0.59605500  0.11139800  1
  C  129  1  0.16787200  0.55070200  0.13714000  1
  C  130  1  0.13445700  0.54403700  0.14054400  1
  C  131  1  0.12239800  0.53612700  0.16403500  1
  C  132  1  0.14429200  0.53320300  0.18370200  1
  C  133  1  0.17766900  0.53982500  0.18074400  1
  C  134  1  0.18912700  0.54863500  0.15731700  1
  C  145  1  0.66436600  0.90683100  0.36396500  1
  C  146  1  0.68497300  0.90813700  0.34338700  1
  C  147  1  0.67281900  0.91668900  0.32013000  1
  C  148  1  0.63927000  0.92252700  0.31749600  1
  C  149  1  0.61809500  0.92070500  0.33767200  1
  C  150  1  0.63091900  0.91375800  0.36110700  1
  C  153  1  0.67620900  0.89454900  0.38646800  1
  C  154  1  0.68099100  0.86076700  0.38952100  1
  C  155  1  0.68963600  0.84797800  0.41256200  1
  C  156  1  0.69351800  0.86932200  0.43255600  1
  C  157  1  0.68835300  0.90302200  0.43000200  1
  C  158  1  0.67991100  0.91536000  0.40675200  1
  C  169  1  0.83925200  0.04457300  0.86396800  1
  C  170  1  0.81864800  0.04326500  0.84338800  1
  C  171  1  0.83080100  0.03470900  0.82013400  1
  C  172  1  0.86435000  0.02886900  0.81750000  1
  C  173  1  0.88552500  0.03069700  0.83767700  1
  C  174  1  0.87269900  0.03764600  0.86111000  1
  C  177  1  0.82740900  0.05685500  0.88647000  1
  C  178  1  0.82262700  0.09063700  0.88952400  1
  C  179  1  0.81398200  0.10342800  0.91256500  1
  C  180  1  0.81009700  0.08208200  0.93255700  1
  C  181  1  0.81526000  0.04838200  0.93000300  1
  C  182  1  0.82370400  0.03604400  0.90675300  1
  C  193  1  0.82330600  0.56014100  0.11605700  1
  C  194  1  0.82103800  0.53881100  0.09595200  1
  C  195  1  0.81180300  0.55016100  0.07258700  1
  C  196  1  0.80501200  0.58351100  0.06962800  1
  C  197  1  0.80821900  0.60547200  0.08923300  1
  C  198  1  0.81651700  0.59351700  0.11267000  1
  C  201  1  0.83632100  0.54904700  0.13854400  1
  C  202  1  0.87026800  0.54492300  0.14111500  1
  C  203  1  0.88399200  0.53827400  0.16423000  1
  C  204  1  0.86340700  0.53563500  0.18477800  1
  C  205  1  0.82946400  0.53909500  0.18253100  1
  C  206  1  0.81623100  0.54622300  0.15932200  1
  C  217  1  0.68031400  0.39125500  0.61605200  1
  C  218  1  0.68257600  0.41258300  0.59594300  1
  C  219  1  0.69180800  0.40123000  0.57257700  1
  C  220  1  0.69860200  0.36788000  0.56962200  1
  C  221  1  0.69540100  0.34592100  0.58923000  1
  C  222  1  0.68710800  0.35788100  0.61266600  1
  C  225  1  0.66729900  0.40235100  0.63853800  1
  C  226  1  0.63335200  0.40648300  0.64111000  1
  C  227  1  0.61963100  0.41312900  0.66422300  1
  C  228  1  0.64021600  0.41576400  0.68477400  1
  C  229  1  0.67415900  0.41229900  0.68252500  1
  C  230  1  0.68738900  0.40517000  0.65931600  1
  C  241  1  0.17017500  0.04774700  0.86674100  1
  C  242  1  0.19107200  0.04377700  0.84654600  1
  C  243  1  0.17883900  0.03486000  0.82336300  1
  C  244  1  0.14516000  0.02953200  0.82079800  1
  C  245  1  0.12374300  0.03375400  0.84071100  1
  C  246  1  0.13642300  0.04285500  0.86368000  1
  C  249  1  0.18219000  0.06074100  0.88893300  1
  C  250  1  0.18626000  0.09469100  0.89145200  1
  C  251  1  0.19326400  0.10841700  0.91450400  1
  C  252  1  0.19632300  0.08783700  0.93502300  1
  C  253  1  0.19292900  0.05388600  0.93279200  1
  C  254  1  0.18541600  0.04064400  0.90966200  1
  C  265  1  0.33344600  0.90366000  0.36673600  1
  C  266  1  0.31254800  0.90762900  0.34654300  1
  C  267  1  0.32478100  0.91654400  0.32335800  1
  C  268  1  0.35845900  0.92187000  0.32079200  1
  C  269  1  0.37987600  0.91764500  0.34070400  1
  C  270  1  0.36719900  0.90854900  0.36367300  1
  C  273  1  0.32143100  0.89066700  0.38893000  1
  C  274  1  0.31736200  0.85671700  0.39145100  1
  C  275  1  0.31035700  0.84299200  0.41450100  1
  C  276  1  0.30730000  0.86357200  0.43502200  1
  C  277  1  0.31069400  0.89752400  0.43278900  1
  C  278  1  0.31820600  0.91076400  0.40966000  1
  C  289  1  0.68267500  0.56331700  0.38967600  1
  C  290  1  0.68404100  0.54268600  0.41024100  1
  C  291  1  0.69230500  0.55487100  0.43355200  1
  C  292  1  0.69775200  0.58848500  0.43624200  1
  C  293  1  0.69582300  0.60968900  0.41608400  1
  C  294  1  0.68920000  0.59683200  0.39260900  1
  C  297  1  0.67040500  0.55150500  0.36715900  1
  C  298  1  0.63658700  0.54706000  0.36405800  1
  C  299  1  0.62374400  0.53868900  0.34097800  1
  C  300  1  0.64508100  0.53472000  0.32098700  1
  C  301  1  0.67882900  0.53956800  0.32357700  1
  C  302  1  0.69120900  0.54776600  0.34687100  1
  C  313  1  0.82094100  0.38808900  0.88967700  1
  C  314  1  0.81957200  0.40872000  0.91024200  1
  C  315  1  0.81130800  0.39653200  0.93355300  1
  C  316  1  0.80586100  0.36292000  0.93624200  1
  C  317  1  0.80779000  0.34171600  0.91608300  1
  C  318  1  0.81441600  0.35457400  0.89261000  1
  C  321  1  0.83320800  0.39990300  0.86716000  1
  C  322  1  0.86702700  0.40434000  0.86405600  1
  C  323  1  0.87986900  0.41270900  0.84097500  1
  C  324  1  0.85853000  0.41668300  0.82098400  1
  C  325  1  0.82477700  0.41184300  0.82357800  1
  C  326  1  0.81240200  0.40364600  0.84687400  1
  C  337  1  0.33677700  0.04524200  0.63881500  1
  C  338  1  0.31659700  0.04217900  0.65951100  1
  C  339  1  0.32967500  0.03425400  0.68261600  1
  C  340  1  0.36357100  0.03038600  0.68487600  1
  C  341  1  0.38423400  0.03331400  0.66439600  1
  C  342  1  0.37066600  0.04069400  0.64136100  1
  C  345  1  0.32402200  0.05750200  0.61662100  1
  C  346  1  0.31965200  0.09132600  0.61356900  1
  C  347  1  0.31089300  0.10417400  0.59057600  1
  C  348  1  0.30648200  0.08284500  0.57062900  1
  C  349  1  0.31127400  0.04908100  0.57318800  1
  C  350  1  0.31982700  0.03669000  0.59640200  1
  C  361  1  0.16684200  0.90616100  0.13880900  1
  C  362  1  0.18702100  0.90922100  0.15950700  1
  C  363  1  0.17394200  0.91714800  0.18261100  1
  C  364  1  0.14004800  0.92102000  0.18486900  1
  C  365  1  0.11938400  0.91809400  0.16439000  1
  C  366  1  0.13295400  0.91071100  0.14135500  1
  C  369  1  0.17959700  0.89389600  0.11661600  1
  C  370  1  0.18396700  0.86007300  0.11356800  1
  C  371  1  0.19272300  0.84722100  0.09057600  1
  C  372  1  0.19712800  0.86854600  0.07062600  1
  C  373  1  0.19233200  0.90231100  0.07318200  1
  C  374  1  0.18378500  0.91470500  0.09639500  1
  C  385  1  0.23569800  0.41707400  0.77396800  1
  C  387  1  0.23767300  0.38803500  0.73601300  1
  C  388  1  0.26480700  0.40626400  0.72829900  1
  C  390  1  0.26284900  0.43563500  0.76617900  1
  C  392  1  0.27602900  0.45888200  0.77883100  1
  C  394  1  0.22097100  0.42007000  0.79666500  1
  C  396  1  0.27957800  0.40091200  0.70594300  1
  C  398  1  0.26793000  0.53430300  0.27396500  1
  C  400  1  0.26594500  0.56335100  0.23601400  1
  C  401  1  0.23881600  0.54511700  0.22829800  1
  C  403  1  0.24078500  0.51573400  0.26617200  1
  C  405  1  0.22760000  0.49249400  0.27882800  1
  C  407  1  0.28263800  0.53133000  0.29667000  1
  C  409  1  0.22404300  0.55046900  0.20594200  1
  C  411  1  0.80833600  0.95957300  0.02401100  1
  C  413  1  0.83774500  0.96108200  0.98620800  1
  C  414  1  0.81958200  0.98810600  0.97820200  1
  C  416  1  0.78982500  0.98660200  0.01591800  1
  C  418  1  0.76649800  0.99996400  0.02837300  1
  C  420  1  0.80531000  0.94525200  0.04685300  1
  C  422  1  0.82526200  0.00261700  0.95580000  1
  C  424  1  0.69525600  0.99180400  0.52402300  1
  C  426  1  0.66585800  0.99030900  0.48621600  1
  C  427  1  0.68402900  0.96329200  0.47820300  1
  C  429  1  0.71377800  0.96478400  0.51592400  1
  C  431  1  0.73710300  0.95141800  0.52837900  1
  C  433  1  0.69831000  0.00614300  0.54685700  1
  C  435  1  0.67835900  0.94879200  0.45579700  1
  C  437  1  0.76801200  0.53258500  0.22966800  1
  C  439  1  0.76639100  0.56189000  0.26752000  1
  C  440  1  0.73927700  0.54378000  0.27543900  1
  C  442  1  0.74089300  0.51412800  0.23767400  1
  C  444  1  0.72751400  0.49087600  0.22514800  1
  C  446  1  0.78242000  0.52958100  0.20683900  1
  C  448  1  0.72469700  0.54942800  0.29783000  1
  C  450  1  0.73561600  0.41879700  0.72966000  1
  C  452  1  0.73720700  0.38953000  0.76752900  1
  C  453  1  0.76432700  0.40763500  0.77544300  1
  C  455  1  0.76272800  0.43726300  0.73766600  1
  C  457  1  0.77610700  0.46051300  0.72514000  1
  C  459  1  0.72120300  0.42180800  0.70683500  1
  C  461  1  0.77889400  0.40200900  0.79784200  1
  C  463  1  0.19970900  0.99221200  0.97968100  1
  C  465  1  0.16994500  0.98996300  0.01730200  1
  C  466  1  0.18814200  0.96288200  0.02516500  1
  C  468  1  0.21825600  0.96512900  0.98763300  1
  C  470  1  0.24172200  0.95203400  0.97516700  1
  C  472  1  0.20283300  0.00686500  0.95696200  1
  C  474  1  0.18228100  0.94801100  0.04740700  1
  C  476  1  0.30390700  0.95918900  0.47968600  1
  C  478  1  0.33365000  0.96142100  0.51731600  1
  C  479  1  0.31545200  0.98850400  0.52517600  1
  C  481  1  0.28535300  0.98626500  0.48763900  1
  C  483  1  0.26188800  0.99936000  0.47516700  1
  C  485  1  0.30080900  0.94455100  0.45695900  1
  C  487  1  0.32129700  0.00336500  0.54742600  1
  C  489  1  0.73559100  0.92155700  0.27405800  1
  C  491  1  0.73781100  0.89226800  0.23623300  1
  C  492  1  0.76490400  0.91055300  0.22852100  1
  C  494  1  0.76270800  0.94016700  0.26627800  1
  C  496  1  0.77576000  0.96352300  0.27888800  1
  C  498  1  0.72077800  0.92461100  0.29670100  1
  C  500  1  0.77979200  0.90508400  0.20623900  1
  C  502  1  0.76803900  0.02982600  0.77405300  1
  C  504  1  0.76580700  0.05913000  0.73623800  1
  C  505  1  0.73871600  0.04084500  0.72852300  1
  C  507  1  0.74092700  0.01121400  0.76627400  1
  C  509  1  0.72787100  0.98786400  0.77888700  1
  C  511  1  0.78284000  0.02679300  0.79670200  1
  C  513  1  0.72381900  0.04632300  0.70624500  1
  C  515  1  0.31063100  0.45980700  0.52407600  1
  C  517  1  0.33949500  0.46143200  0.48603900  1
  C  518  1  0.32125600  0.48852000  0.47825000  1
  C  520  1  0.29206200  0.48691100  0.51621700  1
  C  522  1  0.26887600  0.50020300  0.52886600  1
  C  524  1  0.30770000  0.44524600  0.54683200  1
  C  526  1  0.32651900  0.50312600  0.45582300  1
  C  528  1  0.19297200  0.49158400  0.02408100  1
  C  530  1  0.16410200  0.48995400  0.98604600  1
  C  531  1  0.18235700  0.46288300  0.97824900  1
  C  533  1  0.21156200  0.46449700  0.01621200  1
  C  535  1  0.23475400  0.45121000  0.02885700  1
  C  537  1  0.19592400  0.50615700  0.04683000  1
  C  539  1  0.17710000  0.44828100  0.95581800  1
  C  541  1  0.26808200  0.02792200  0.72956100  1
  C  543  1  0.26628700  0.05743500  0.76730600  1
  C  544  1  0.23922200  0.03927100  0.77523600  1
  C  546  1  0.24100700  0.00941700  0.73757300  1
  C  548  1  0.22772900  0.98607600  0.72508100  1
  C  550  1  0.28253600  0.02489000  0.70677100  1
  C  552  1  0.22454500  0.04503200  0.79756300  1
  C  554  1  0.23553500  0.92347600  0.22955700  1
  C  556  1  0.23732000  0.89397600  0.26730900  1
  C  557  1  0.26439400  0.91213300  0.27523500  1
  C  559  1  0.26261300  0.94197700  0.23756500  1
  C  561  1  0.27588800  0.96532300  0.22507800  1
  C  563  1  0.22108000  0.92651100  0.20676600  1
  C  565  1  0.27906900  0.90637500  0.29756200  1
  C  567  1  0.69734500  0.49199900  0.47961500  1
  C  569  1  0.66820900  0.48970900  0.51751100  1
  C  570  1  0.68642100  0.46251200  0.52512500  1
  C  572  1  0.71589200  0.46478500  0.48730100  1
  C  574  1  0.73914100  0.45169000  0.47460600  1
  C  576  1  0.70035800  0.50688700  0.45698300  1
  C  578  1  0.68099600  0.44756100  0.54740100  1
  C  580  1  0.80626100  0.45939700  0.97962300  1
  C  582  1  0.83538200  0.46167200  0.01752600  1
  C  583  1  0.81717500  0.48887400  0.02513600  1
  C  585  1  0.78771400  0.48661000  0.98730800  1
  C  587  1  0.76447000  0.49970800  0.97460800  1
  C  589  1  0.80326200  0.44451800  0.95698600  1
  C  591  1  0.82259300  0.50381800  0.04741600  1
  C  593  1  0.20006700  0.19437200  0.92696400  1
  C  595  1  0.16387700  0.23449100  0.91060700  1
  C  596  1  0.18467900  0.25972800  0.91823400  1
  C  598  1  0.22102000  0.21970400  0.93473900  1
  C  600  1  0.24852100  0.21504300  0.94585100  1
  C  602  1  0.20555100  0.16149700  0.93068000  1
  C  604  1  0.17714100  0.29190400  0.91377400  1
  C  606  1  0.30355100  0.75703600  0.42695600  1
  C  608  1  0.33973300  0.71691400  0.41059000  1
  C  609  1  0.31893600  0.69168000  0.41822700  1
  C  611  1  0.28260200  0.73170300  0.43473800  1
  C  613  1  0.25512100  0.73636400  0.44587900  1
  C  615  1  0.29807700  0.78991100  0.43068100  1
  C  617  1  0.32647500  0.65950200  0.41377100  1
  C  619  1  0.03362100  0.92618100  0.17704200  1
  C  621  1  0.99296100  0.89019400  0.16120900  1
  C  622  1  0.96804000  0.91145100  0.16870700  1
  C  624  1  0.00860500  0.94758400  0.18469600  1
  C  626  1  0.01368000  0.97521800  0.19552000  1
  C  628  1  0.06657900  0.93131300  0.18058300  1
  C  630  1  0.93575300  0.90423500  0.16443500  1
  C  632  1  0.46999600  0.02522700  0.67705200  1
  C  634  1  0.51065700  0.06121400  0.66122100  1
  C  635  1  0.53557800  0.03994900  0.66871000  1
  C  637  1  0.49501200  0.00380900  0.68468800  1
  C  639  1  0.48993600  0.97617600  0.69551000  1
  C  641  1  0.43703900  0.02009100  0.68058900  1
  C  643  1  0.56786300  0.04716300  0.66443700  1
  C  645  1  0.30332000  0.18987600  0.57719100  1
  C  647  1  0.33899500  0.23033700  0.59375000  1
  C  648  1  0.31846800  0.25541600  0.58544800  1
  C  650  1  0.28264100  0.21505600  0.56875200  1
  C  652  1  0.25551200  0.21018800  0.55718400  1
  C  654  1  0.29797300  0.15691400  0.57372500  1
  C  656  1  0.32583700  0.28768400  0.58969900  1
  C  658  1  0.20028600  0.76151700  0.07718700  1
  C  660  1  0.16462700  0.72105800  0.09377000  1
  C  661  1  0.18514600  0.69598000  0.08545900  1
  C  663  1  0.22095400  0.73633700  0.06873500  1
  C  665  1  0.24808000  0.74120400  0.05716200  1
  C  667  1  0.20563500  0.79447900  0.07372500  1
  C  669  1  0.17777900  0.66371200  0.08971200  1
  C  671  1  0.46539100  0.92642400  0.32715100  1
  C  673  1  0.50636000  0.89110400  0.34342600  1
  C  674  1  0.53113700  0.91200200  0.33513900  1
  C  676  1  0.49027300  0.94747200  0.31872700  1
  C  678  1  0.48501500  0.97461800  0.30727900  1
  C  680  1  0.43235400  0.93140000  0.32381800  1
  C  682  1  0.56350500  0.90496800  0.33923700  1
  C  684  1  0.03822800  0.02497200  0.82716100  1
  C  686  1  0.99726100  0.06029400  0.84343400  1
  C  687  1  0.97248300  0.03939900  0.83514500  1
  C  689  1  0.01334800  0.00392700  0.81873200  1
  C  691  1  0.01860300  0.97678300  0.80728000  1
  C  693  1  0.07126500  0.01999600  0.82382800  1
  C  695  1  0.94011600  0.04643400  0.83924000  1
  C  697  1  0.80421800  0.75805000  0.07680800  1
  C  699  1  0.83971300  0.71677800  0.09237000  1
  C  700  1  0.81805100  0.69220200  0.08487300  1
  C  702  1  0.78239800  0.73338200  0.06916400  1
  C  704  1  0.75475900  0.73890900  0.05847400  1
  C  706  1  0.79952100  0.79109900  0.07338600  1
  C  708  1  0.82480100  0.65979100  0.08906100  1
  C  710  1  0.69940000  0.19334300  0.57681300  1
  C  712  1  0.66391200  0.23461600  0.59238000  1
  C  713  1  0.68557000  0.25919200  0.58487600  1
  C  715  1  0.72121800  0.21800900  0.56916300  1
  C  717  1  0.74883700  0.21248300  0.55844800  1
  C  719  1  0.70408500  0.16029200  0.57338200  1
  C  721  1  0.67882000  0.29160300  0.58906200  1
  C  723  1  0.69942200  0.76255100  0.42617900  1
  C  725  1  0.66456000  0.72097300  0.41023000  1
  C  726  1  0.68586600  0.69654200  0.41852100  1
  C  728  1  0.72087600  0.73802100  0.43461900  1
  C  730  1  0.74804800  0.74372800  0.44590800  1
  C  732  1  0.70397400  0.79567800  0.42937600  1
  C  734  1  0.67930200  0.66404400  0.41452800  1
  C  736  1  0.80419400  0.18885300  0.92618300  1
  C  738  1  0.83905600  0.23043200  0.91023300  1
  C  739  1  0.81774500  0.25486300  0.91851800  1
  C  741  1  0.78273000  0.21338200  0.93460500  1
  C  743  1  0.75555500  0.20767500  0.94589700  1
  C  745  1  0.79964000  0.15572700  0.92937700  1
  C  747  1  0.82430800  0.28735900  0.91452400  1
  C  749  1  0.53375300  0.42095400  0.67675500  1
  C  751  1  0.49305800  0.38530600  0.66052700  1
  C  752  1  0.46814000  0.40647800  0.66817600  1
  C  754  1  0.50874200  0.44228600  0.68454200  1
  C  756  1  0.51382500  0.46974500  0.69561300  1
  C  758  1  0.56672000  0.42599100  0.68040300  1
  C  760  1  0.43583800  0.39940300  0.66376700  1
  C  762  1  0.96986700  0.53044700  0.17676300  1
  C  764  1  0.01056600  0.56610500  0.16055000  1
  C  765  1  0.03548200  0.54492000  0.16818500  1
  C  767  1  0.99487800  0.50910700  0.18454500  1
  C  769  1  0.98979000  0.48163400  0.19559000  1
  C  771  1  0.93690100  0.52541000  0.18040800  1
  C  773  1  0.06778600  0.55199500  0.16378000  1
  C  775  1  0.96547800  0.42123500  0.82746700  1
  C  777  1  0.00652100  0.38610900  0.84388100  1
  C  778  1  0.03127600  0.40700700  0.83554800  1
  C  780  1  0.99033100  0.44229300  0.81900400  1
  C  782  1  0.98503700  0.46938600  0.80749100  1
  C  784  1  0.93242600  0.42614300  0.82409300  1
  C  786  1  0.06367100  0.40010600  0.83973100  1
  C  788  1  0.53813300  0.53015100  0.32747700  1
  C  790  1  0.49709100  0.56529400  0.34386900  1
  C  791  1  0.47233700  0.54438600  0.33554700  1
  C  793  1  0.51328000  0.50908600  0.31902100  1
  C  795  1  0.51857600  0.48198300  0.30752100  1
  C  797  1  0.57118400  0.52524000  0.32410500  1
  C  799  1  0.43994100  0.55129400  0.33972500  1
  N  21  1  0.19124500  0.41171400  0.80014800  1
  N  22  1  0.08662900  0.41986400  0.83398300  1
  N  23  1  0.19707300  0.31524000  0.91818100  1
  N  24  1  0.18982400  0.42069900  0.95036800  1
  N  45  1  0.31237100  0.53967000  0.30015200  1
  N  46  1  0.41698500  0.53152900  0.33398800  1
  N  47  1  0.30654500  0.63616500  0.41818000  1
  N  48  1  0.31379000  0.53070900  0.45037000  1
  N  69  1  0.81453300  0.91588600  0.05080500  1
  N  70  1  0.81282200  0.81156300  0.08796400  1
  N  71  1  0.91272200  0.92464800  0.16848400  1
  N  72  1  0.80718800  0.91817700  0.20073700  1
  N  93  1  0.68906400  0.03550100  0.55081000  1
  N  94  1  0.69079100  0.13983000  0.58796400  1
  N  95  1  0.59089600  0.02675000  0.66848800  1
  N  96  1  0.69643000  0.03321900  0.70074000  1
  N  117  1  0.30718300  0.41363100  0.70052300  1
  N  118  1  0.41277300  0.41960900  0.66828200  1
  N  119  1  0.30636300  0.31092100  0.58405300  1
  N  120  1  0.31565600  0.41541200  0.55030300  1
  N  141  1  0.19644300  0.53774300  0.20052200  1
  N  142  1  0.09084800  0.53178400  0.16828800  1
  N  143  1  0.19724900  0.64047200  0.08405600  1
  N  144  1  0.18794000  0.53598400  0.05030400  1
  N  165  1  0.69105600  0.92131200  0.44999600  1
  N  166  1  0.69071400  0.81587200  0.41457400  1
  N  167  1  0.58645300  0.92492900  0.33388600  1
  N  168  1  0.69100500  0.91634700  0.30005700  1
  N  189  1  0.81255800  0.03009200  0.94999700  1
  N  190  1  0.81290700  0.13553100  0.91457700  1
  N  191  1  0.91716700  0.02647300  0.83389200  1
  N  192  1  0.81261800  0.03504100  0.80006000  1
  N  213  1  0.81175400  0.53891000  0.20287500  1
  N  214  1  0.91616500  0.53806800  0.16572800  1
  N  215  1  0.80406800  0.63704400  0.08499200  1
  N  216  1  0.80966300  0.53132300  0.05284400  1
  N  237  1  0.69186900  0.41247300  0.70286900  1
  N  238  1  0.58745800  0.41334200  0.66572100  1
  N  239  1  0.69955300  0.31435000  0.58499100  1
  N  240  1  0.69393600  0.42006100  0.55283100  1
  N  261  1  0.19321800  0.03613200  0.95310400  1
  N  262  1  0.19319500  0.14057800  0.91600700  1
  N  263  1  0.09165800  0.03288400  0.83865500  1
  N  264  1  0.19719200  0.03208800  0.80340200  1
  N  285  1  0.31040500  0.91527700  0.45310100  1
  N  286  1  0.31042700  0.81083000  0.41600400  1
  N  287  1  0.41196200  0.91851200  0.33864600  1
  N  288  1  0.30642600  0.91931500  0.30339900  1
  N  309  1  0.69714100  0.53684100  0.30358000  1
  N  310  1  0.59162600  0.53797600  0.33897300  1
  N  311  1  0.69960600  0.64139400  0.41988400  1
  N  312  1  0.69200400  0.53663900  0.45361900  1
  N  333  1  0.80646300  0.41457200  0.80358400  1
  N  334  1  0.91198400  0.41341500  0.83896500  1
  N  335  1  0.80400700  0.31001100  0.91988100  1
  N  336  1  0.81160200  0.41476200  0.95362200  1
  N  357  1  0.30832100  0.03071800  0.55324000  1
  N  358  1  0.31043200  0.13628000  0.58857100  1
  N  359  1  0.41638300  0.03298300  0.66596500  1
  N  360  1  0.31194400  0.03405900  0.70292900  1
  N  381  1  0.19527300  0.92066600  0.05322700  1
  N  382  1  0.19317900  0.81511500  0.08857100  1
  N  383  1  0.08723600  0.91842700  0.16595800  1
  N  384  1  0.19167300  0.91734200  0.20292400  1
  N  386  1  0.22456100  0.39400200  0.75826900  1
  N  389  1  0.27596600  0.42940200  0.74391400  1
  N  393  1  0.28752000  0.47947900  0.78998200  1
  N  399  1  0.27905200  0.55739200  0.25827200  1
  N  402  1  0.22766300  0.52197400  0.24390900  1
  N  406  1  0.21610300  0.47190700  0.28998400  1
  N  412  1  0.83159000  0.94827800  0.00852900  1
  N  415  1  0.79628200  0.99945700  0.99359800  1
  N  419  1  0.74583800  0.01161900  0.03936200  1
  N  425  1  0.67201600  0.00311400  0.50853400  1
  N  428  1  0.70732700  0.95193700  0.49360000  1
  N  432  1  0.75775800  0.93975900  0.53936900  1
  N  438  1  0.77929000  0.55576100  0.24522200  1
  N  441  1  0.72794600  0.52055500  0.25997000  1
  N  445  1  0.71584300  0.47028600  0.21409500  1
  N  451  1  0.72432100  0.39564200  0.74522500  1
  N  454  1  0.77566500  0.43085100  0.75996900  1
  N  458  1  0.78777500  0.48110700  0.71408700  1
  N  464  1  0.17626500  0.00316100  0.99514100  1
  N  467  1  0.21163700  0.95187600  0.00979600  1
  N  471  1  0.26249900  0.94061100  0.96416300  1
  N  477  1  0.32735100  0.94824200  0.49514500  1
  N  480  1  0.29196000  0.99951000  0.50980600  1
  N  484  1  0.24111600  0.01078400  0.46416200  1
  N  490  1  0.72459300  0.89833400  0.25843100  1
  N  493  1  0.77593200  0.93383100  0.24406800  1
  N  497  1  0.78714400  0.98421000  0.29000800  1
  N  503  1  0.77902300  0.05306500  0.75843500  1
  N  506  1  0.72769600  0.01755900  0.74406700  1
  N  510  1  0.71648400  0.96718200  0.79000900  1
  N  516  1  0.33362500  0.44851700  0.50837200  1
  N  519  1  0.29820600  0.49983400  0.49387600  1
  N  523  1  0.24833200  0.51179100  0.54001500  1
  N  529  1  0.16997700  0.50287400  0.00837800  1
  N  532  1  0.20541700  0.45157900  0.99386900  1
  N  536  1  0.25530300  0.43962700  0.04000200  1
  N  542  1  0.27925300  0.05122700  0.74505000  1
  N  545  1  0.22798800  0.01592600  0.75982900  1
  N  549  1  0.21614800  0.96540500  0.71406000  1
  N  555  1  0.22435900  0.90017800  0.24504900  1
  N  558  1  0.27562800  0.93547400  0.25982400  1
  N  562  1  0.28746400  0.98599800  0.21405700  1
  N  568  1  0.67422900  0.50300300  0.49532900  1
  N  571  1  0.70959800  0.45147900  0.50949400  1
  N  575  1  0.75973800  0.44027000  0.46341100  1
  N  581  1  0.82937500  0.44838800  0.99533800  1
  N  584  1  0.79400300  0.49991200  0.00950300  1
  N  588  1  0.74388000  0.51113300  0.96341400  1
  N  594  1  0.17234700  0.20334700  0.91524100  1
  N  597  1  0.21246300  0.25094500  0.92995000  1
  N  601  1  0.27280400  0.21085500  0.95562700  1
  N  607  1  0.33126500  0.74805900  0.41522300  1
  N  610  1  0.29116200  0.70046100  0.42995500  1
  N  614  1  0.23085600  0.74055400  0.45567800  1
  N  620  1  0.02423300  0.89836100  0.16564000  1
  N  623  1  0.97723100  0.93933400  0.18010600  1
  N  627  1  0.01823300  0.99961200  0.20504200  1
  N  633  1  0.47938600  0.05305000  0.66565500  1
  N  636  1  0.52638400  0.01206100  0.68010000  1
  N  640  1  0.48538100  0.95177900  0.70503100  1
  N  646  1  0.33065800  0.19910800  0.58931200  1
  N  649  1  0.29106700  0.24638800  0.57333100  1
  N  653  1  0.23155100  0.20582500  0.54701000  1
  N  659  1  0.17296200  0.75228800  0.08932700  1
  N  662  1  0.21253400  0.70500600  0.07332400  1
  N  666  1  0.27204000  0.74556400  0.04698600  1
  N  672  1  0.47501100  0.89910300  0.33912300  1
  N  675  1  0.52172600  0.93938500  0.32316900  1
  N  679  1  0.48031000  0.99859100  0.29720800  1
  N  685  1  0.02860900  0.05229100  0.83913300  1
  N  688  1  0.98189200  0.01201600  0.82317200  1
  N  692  1  0.02330800  0.95281300  0.79720500  1
  N  698  1  0.83197300  0.74819700  0.08807300  1
  N  701  1  0.79022300  0.70186600  0.07362100  1
  N  705  1  0.73036000  0.74385600  0.04907100  1
  N  711  1  0.67165000  0.20319800  0.58808200  1
  N  714  1  0.71339300  0.24952800  0.57361700  1
  N  718  1  0.77322200  0.20753500  0.54902400  1
  N  724  1  0.67215000  0.75246500  0.41436900  1
  N  727  1  0.71320800  0.70642500  0.43032900  1
  N  731  1  0.77204500  0.74882800  0.45583900  1
  N  737  1  0.83147100  0.19893900  0.91437600  1
  N  740  1  0.79039800  0.24497800  0.93031900  1
  N  744  1  0.73156100  0.20257600  0.95582700  1
  N  750  1  0.52434100  0.39333900  0.66508600  1
  N  753  1  0.47736200  0.43416300  0.67983000  1
  N  757  1  0.51838500  0.49398900  0.70534600  1
  N  763  1  0.97928400  0.55806900  0.16510600  1
  N  766  1  0.02625700  0.51722800  0.17983000  1
  N  770  1  0.98523100  0.45737300  0.20530100  1
  N  776  1  0.97515200  0.39400700  0.83953200  1
  N  779  1  0.02180300  0.43430600  0.82349400  1
  N  783  1  0.98029800  0.49331400  0.79736900  1
  N  789  1  0.52845900  0.55739200  0.33952600  1
  N  792  1  0.48181000  0.51707800  0.32350600  1
  N  796  1  0.52331500  0.45804500  0.29741400  1
  O  17  1  0.18108300  0.33760600  0.87132700  1
  O  18  1  0.11099200  0.40744400  0.88091200  1
  O  41  1  0.32253200  0.61379400  0.37132600  1
  O  42  1  0.39262400  0.54396200  0.38091500  1
  O  65  1  0.89029300  0.90807300  0.12179900  1
  O  66  1  0.82524700  0.83748900  0.13213800  1
  O  89  1  0.61332800  0.04332500  0.62180300  1
  O  90  1  0.67837800  0.11390700  0.63214000  1
  O  113  1  0.31939200  0.33500000  0.63097800  1
  O  114  1  0.39009600  0.40419200  0.62140400  1
  O  137  1  0.18423100  0.61638800  0.13098400  1
  O  138  1  0.11351900  0.54720600  0.12141000  1
  O  161  1  0.61061500  0.91137100  0.38067800  1
  O  162  1  0.67516100  0.84017700  0.37049400  1
  O  185  1  0.89300300  0.04003900  0.88068300  1
  O  186  1  0.82846200  0.11122800  0.87049700  1
  O  209  1  0.82001600  0.61452700  0.13172600  1
  O  210  1  0.89015900  0.54991100  0.12154300  1
  O  233  1  0.68361200  0.33687300  0.63172500  1
  O  234  1  0.61346100  0.40149700  0.62153500  1
  O  257  1  0.11575300  0.04905000  0.88259400  1
  O  258  1  0.18082100  0.11456100  0.87193800  1
  O  281  1  0.38786900  0.90235200  0.38259000  1
  O  282  1  0.32279900  0.83684600  0.37193700  1
  O  305  1  0.68669100  0.61716500  0.37306200  1
  O  306  1  0.61601800  0.55298300  0.38308600  1
  O  329  1  0.81692500  0.33424300  0.87306100  1
  O  330  1  0.88759700  0.39841300  0.88308100  1
  O  353  1  0.39065900  0.04598600  0.62189400  1
  O  354  1  0.32604100  0.11187000  0.63252300  1
  O  377  1  0.11296100  0.90542100  0.12188700  1
  O  378  1  0.17758300  0.83953200  0.13252500  1
