# generated using pymatgen
data_H7C14(NO)4
_symmetry_space_group_name_H-M   'P 1'
_cell_length_a   39.96400000
_cell_length_b   68.11560000
_cell_length_c   68.11560000
_cell_angle_alpha   90.00000000
_cell_angle_beta   90.00000000
_cell_angle_gamma   90.00000000
_symmetry_Int_Tables_number   1
_chemical_formula_structural   H7C14(NO)4
_chemical_formula_sum   'H448 C896 N256 O256'
_cell_volume   185422.36807572
_cell_formula_units_Z   64
loop_
 _symmetry_equiv_pos_site_id
 _symmetry_equiv_pos_as_xyz
  1  'x, y, z'
loop_
 _atom_site_type_symbol
 _atom_site_label
 _atom_site_symmetry_multiplicity
 _atom_site_fract_x
 _atom_site_fract_y
 _atom_site_fract_z
 _atom_site_occupancy
  H  7  1  0.20594500  0.12130800  0.33696300  1
  H  8  1  0.11849300  0.09665600  0.31320600  1
  H  9  1  0.11461700  0.12606900  0.36751500  1
  H  16  1  0.18709600  0.13037300  0.29461100  1
  H  17  1  0.21805300  0.08580700  0.25586200  1
  H  18  1  0.17909700  0.07132200  0.31157800  1
  H  23  1  0.22055900  0.05197900  0.26804900  1
  H  24  1  0.06708200  0.09797500  0.33133500  1
  H  25  1  0.17024800  0.13227400  0.38354700  1
  H  26  1  0.22199000  0.13687900  0.26376900  1
  H  33  1  0.20595100  0.88165800  0.78880500  1
  H  34  1  0.11846200  0.90623600  0.81259700  1
  H  35  1  0.11464300  0.87693600  0.75822600  1
  H  42  1  0.18703600  0.87251100  0.83115400  1
  H  43  1  0.21802200  0.91701800  0.86996300  1
  H  44  1  0.17909800  0.93158000  0.81425700  1
  H  49  1  0.22054700  0.95086900  0.85781400  1
  H  50  1  0.06707900  0.90498100  0.79441000  1
  H  51  1  0.17030500  0.87080200  0.74219300  1
  H  52  1  0.22163900  0.86587000  0.86193800  1
  H  59  1  0.20604500  0.72718500  0.18264400  1
  H  60  1  0.11853300  0.75094700  0.15806800  1
  H  61  1  0.11477000  0.69656800  0.18735800  1
  H  68  1  0.18687500  0.76952800  0.19183300  1
  H  69  1  0.21779700  0.80844100  0.14739400  1
  H  70  1  0.17929300  0.75265800  0.13274400  1
  H  75  1  0.22058400  0.79628100  0.11353100  1
  H  76  1  0.06716700  0.73272800  0.15931200  1
  H  77  1  0.17048200  0.68056000  0.19348400  1
  H  78  1  0.22109000  0.80038500  0.19859900  1
  H  85  1  0.20601500  0.27536400  0.94297400  1
  H  86  1  0.11855800  0.25156100  0.96757500  1
  H  87  1  0.11463400  0.30584800  0.93812000  1
  H  94  1  0.18738800  0.23298500  0.93393900  1
  H  95  1  0.21836900  0.19436100  0.97860900  1
  H  96  1  0.17908800  0.25003700  0.99296100  1
  H  101  1  0.22066700  0.20657800  0.01240900  1
  H  102  1  0.06709900  0.26960200  0.96615500  1
  H  103  1  0.17027500  0.32191300  0.93198100  1
  H  104  1  0.22293900  0.20211500  0.92767900  1
  H  111  1  0.76687900  0.88149600  0.33696300  1
  H  112  1  0.85433300  0.90614800  0.31320600  1
  H  113  1  0.85820900  0.87673600  0.36751500  1
  H  120  1  0.78572900  0.87243200  0.29461100  1
  H  121  1  0.75477100  0.91699700  0.25586200  1
  H  122  1  0.79372800  0.93148200  0.31157800  1
  H  127  1  0.75226600  0.95082500  0.26804900  1
  H  128  1  0.90574400  0.90483000  0.33133500  1
  H  129  1  0.80257600  0.87053100  0.38354500  1
  H  130  1  0.75083500  0.86592500  0.26376900  1
  H  137  1  0.76687400  0.12114700  0.78880500  1
  H  138  1  0.85436300  0.09656800  0.81259700  1
  H  139  1  0.85818100  0.12586900  0.75822600  1
  H  146  1  0.78578900  0.13029400  0.83115400  1
  H  147  1  0.75480300  0.08578600  0.86996300  1
  H  148  1  0.79372600  0.07122400  0.81425700  1
  H  153  1  0.75227900  0.05193600  0.85781400  1
  H  154  1  0.90574700  0.09782300  0.79441000  1
  H  155  1  0.80251900  0.13200200  0.74219300  1
  H  156  1  0.75118500  0.13693500  0.86193800  1
  H  163  1  0.76677900  0.27562000  0.18264400  1
  H  164  1  0.85429300  0.25185700  0.15806800  1
  H  165  1  0.85805600  0.30623700  0.18735800  1
  H  172  1  0.78594900  0.23327700  0.19183300  1
  H  173  1  0.75502900  0.19436400  0.14739400  1
  H  174  1  0.79353100  0.25014700  0.13274400  1
  H  179  1  0.75224100  0.20652400  0.11353100  1
  H  180  1  0.90565900  0.27007600  0.15931200  1
  H  181  1  0.80234400  0.32224500  0.19348400  1
  H  182  1  0.75173600  0.20241900  0.19859900  1
  H  189  1  0.76680900  0.72744000  0.94297400  1
  H  190  1  0.85426500  0.75124400  0.96757500  1
  H  191  1  0.85819100  0.69695700  0.93812000  1
  H  198  1  0.78543600  0.76982000  0.93393900  1
  H  199  1  0.75445600  0.80844400  0.97860900  1
  H  200  1  0.79373600  0.75276800  0.99296100  1
  H  205  1  0.75215900  0.79622600  0.01240900  1
  H  206  1  0.90572700  0.73320200  0.96615500  1
  H  207  1  0.80254900  0.68089100  0.93198100  1
  H  208  1  0.74988400  0.80068900  0.92767900  1
  H  215  1  0.77176600  0.88165300  0.78758800  1
  H  216  1  0.86027600  0.90768100  0.80851600  1
  H  217  1  0.86012600  0.87898600  0.75383200  1
  H  224  1  0.79322000  0.87213300  0.82821500  1
  H  225  1  0.76695400  0.91509900  0.86987600  1
  H  226  1  0.80150000  0.93172500  0.81383300  1
  H  231  1  0.77547200  0.94946300  0.86223800  1
  H  232  1  0.90835100  0.91005300  0.78486800  1
  H  233  1  0.80390800  0.87163600  0.73964200  1
  H  234  1  0.77019500  0.86259700  0.85939100  1
  H  241  1  0.77166100  0.12108700  0.33822100  1
  H  242  1  0.86021800  0.09518600  0.31720400  1
  H  243  1  0.86009800  0.12385800  0.37190000  1
  H  250  1  0.79297500  0.13062700  0.29754300  1
  H  251  1  0.76676200  0.08759200  0.25594200  1
  H  252  1  0.80151000  0.07105600  0.31197100  1
  H  257  1  0.77548200  0.05324500  0.26359600  1
  H  258  1  0.90833900  0.09285700  0.34080500  1
  H  259  1  0.80383300  0.13107500  0.38614700  1
  H  260  1  0.76964900  0.14008300  0.26639400  1
  H  267  1  0.77165100  0.27676500  0.94329000  1
  H  268  1  0.86019800  0.25568800  0.96914600  1
  H  269  1  0.86014300  0.31039200  0.94048600  1
  H  276  1  0.79303800  0.23608300  0.93369700  1
  H  277  1  0.76679700  0.19442500  0.97667400  1
  H  278  1  0.80141500  0.25046300  0.99328400  1
  H  283  1  0.77537700  0.20206000  0.01103500  1
  H  284  1  0.90838900  0.27925200  0.97144200  1
  H  285  1  0.80384500  0.32467000  0.93331200  1
  H  286  1  0.76985700  0.20492800  0.92418500  1
  H  293  1  0.77175600  0.72610400  0.18266500  1
  H  294  1  0.86027100  0.74713500  0.15672900  1
  H  295  1  0.86024600  0.69247600  0.18547600  1
  H  302  1  0.79305800  0.76678500  0.19217900  1
  H  303  1  0.76672200  0.80834800  0.14913000  1
  H  304  1  0.80149000  0.75231600  0.13261000  1
  H  309  1  0.77536200  0.80066900  0.11478200  1
  H  310  1  0.90844900  0.72357500  0.15444600  1
  H  311  1  0.80400500  0.67821400  0.19273300  1
  H  312  1  0.76972400  0.79794000  0.20162800  1
  H  319  1  0.20105800  0.12115200  0.78758800  1
  H  320  1  0.11254800  0.09512300  0.80851600  1
  H  321  1  0.11269800  0.12381900  0.75383200  1
  H  328  1  0.17960500  0.13067200  0.82821500  1
  H  329  1  0.20587200  0.08770600  0.86987600  1
  H  330  1  0.17132400  0.07107900  0.81383300  1
  H  335  1  0.19735300  0.05334100  0.86223800  1
  H  336  1  0.06447500  0.09275100  0.78486800  1
  H  337  1  0.16891800  0.13116800  0.73964200  1
  H  338  1  0.20263100  0.14020700  0.85939100  1
  H  345  1  0.20116300  0.88171800  0.33822100  1
  H  346  1  0.11260700  0.90761900  0.31720400  1
  H  347  1  0.11272600  0.87894600  0.37190000  1
  H  354  1  0.17984900  0.87217800  0.29754300  1
  H  355  1  0.20606200  0.91521200  0.25594200  1
  H  356  1  0.17131400  0.93174900  0.31197100  1
  H  361  1  0.19734200  0.94956000  0.26359600  1
  H  362  1  0.06448500  0.90994800  0.34080500  1
  H  363  1  0.16899300  0.87172900  0.38614700  1
  H  364  1  0.20317400  0.86272200  0.26639400  1
  H  371  1  0.20117400  0.72604000  0.94329000  1
  H  372  1  0.11262500  0.74711700  0.96914600  1
  H  373  1  0.11268200  0.69241300  0.94048600  1
  H  380  1  0.17978600  0.76672200  0.93369700  1
  H  381  1  0.20602900  0.80837900  0.97667400  1
  H  382  1  0.17141000  0.75234200  0.99328400  1
  H  387  1  0.19744900  0.80074500  0.01103500  1
  H  388  1  0.06443500  0.72355300  0.97144200  1
  H  389  1  0.16898100  0.67813400  0.93331200  1
  H  390  1  0.20296800  0.79787600  0.92418500  1
  H  397  1  0.20106800  0.27670000  0.18266500  1
  H  398  1  0.11255500  0.25567000  0.15672900  1
  H  399  1  0.11257800  0.31032800  0.18547600  1
  H  406  1  0.17976700  0.23601900  0.19217900  1
  H  407  1  0.20610200  0.19445600  0.14913000  1
  H  408  1  0.17133600  0.25048900  0.13261000  1
  H  413  1  0.19746300  0.20213600  0.11478200  1
  H  414  1  0.06437500  0.27923000  0.15444600  1
  H  415  1  0.16881900  0.32459100  0.19273300  1
  H  416  1  0.20310000  0.20486500  0.20162800  1
  H  423  1  0.70528400  0.62295500  0.83563000  1
  H  424  1  0.61886900  0.59560100  0.81377600  1
  H  425  1  0.61407700  0.62801400  0.86626900  1
  H  432  1  0.68738500  0.63018300  0.79417800  1
  H  433  1  0.71813300  0.58523900  0.75584200  1
  H  434  1  0.67877000  0.57128200  0.81159900  1
  H  439  1  0.72028000  0.55154100  0.76823100  1
  H  440  1  0.56745800  0.59737400  0.83180600  1
  H  441  1  0.66534600  0.63982600  0.88083400  1
  H  442  1  0.72313200  0.63614200  0.76328100  1
  H  449  1  0.70531400  0.37997600  0.29016600  1
  H  450  1  0.61885900  0.40726400  0.31205200  1
  H  451  1  0.61412900  0.37494700  0.25949900  1
  H  458  1  0.68736300  0.37268300  0.33162000  1
  H  459  1  0.71810800  0.41758900  0.37000400  1
  H  460  1  0.67878000  0.43159600  0.31425000  1
  H  465  1  0.72026000  0.45130700  0.35763800  1
  H  466  1  0.56747500  0.40553600  0.29397500  1
  H  467  1  0.66540300  0.36317700  0.24492300  1
  H  468  1  0.72284000  0.36660800  0.36247500  1
  H  475  1  0.70537700  0.22851800  0.68430900  1
  H  476  1  0.61890600  0.25037600  0.65701700  1
  H  477  1  0.61421700  0.19781400  0.68932700  1
  H  484  1  0.68714800  0.26996000  0.69165400  1
  H  485  1  0.71784800  0.30846800  0.64683900  1
  H  486  1  0.67896500  0.25263700  0.63271300  1
  H  491  1  0.72028700  0.29610400  0.61310200  1
  H  492  1  0.56754300  0.23224800  0.65871100  1
  H  493  1  0.66552100  0.18325600  0.70109800  1
  H  494  1  0.72213400  0.30087700  0.69790700  1
  H  501  1  0.70540900  0.77402700  0.44134300  1
  H  502  1  0.61895900  0.75211200  0.46860700  1
  H  503  1  0.61415000  0.80460000  0.43618500  1
  H  510  1  0.68770600  0.73253200  0.43412500  1
  H  511  1  0.71848600  0.69433200  0.47918000  1
  H  512  1  0.67880500  0.75005000  0.49299300  1
  H  517  1  0.72044000  0.70676400  0.51284600  1
  H  518  1  0.56751000  0.77007200  0.46675700  1
  H  519  1  0.66543300  0.81920900  0.42445100  1
  H  520  1  0.72415300  0.70159000  0.42844500  1
  H  527  1  0.26754000  0.37985000  0.83563000  1
  H  528  1  0.35395600  0.40720400  0.81377600  1
  H  529  1  0.35874700  0.37479100  0.86626900  1
  H  536  1  0.28543900  0.37262100  0.79417800  1
  H  537  1  0.25469100  0.41756500  0.75584200  1
  H  538  1  0.29405400  0.43152300  0.81159900  1
  H  543  1  0.25254400  0.45126400  0.76823100  1
  H  544  1  0.40536900  0.40543000  0.83180600  1
  H  545  1  0.30748100  0.36297900  0.88083400  1
  H  546  1  0.24969200  0.36666200  0.76328100  1
  H  553  1  0.26751000  0.62282800  0.29016600  1
  H  554  1  0.35396600  0.59554100  0.31205200  1
  H  555  1  0.35869700  0.62785800  0.25949900  1
  H  562  1  0.28546200  0.63012200  0.33162000  1
  H  563  1  0.25471600  0.58521600  0.37000400  1
  H  564  1  0.29404700  0.57120900  0.31425000  1
  H  569  1  0.25256500  0.55149800  0.35763800  1
  H  570  1  0.40535200  0.59726900  0.29397500  1
  H  571  1  0.30742400  0.63962800  0.24492300  1
  H  572  1  0.24998500  0.63619700  0.36247500  1
  H  579  1  0.26745000  0.77428700  0.68430900  1
  H  580  1  0.35391800  0.75242900  0.65701700  1
  H  581  1  0.35860700  0.80499100  0.68932700  1
  H  588  1  0.28567700  0.73284400  0.69165400  1
  H  589  1  0.25497700  0.69433600  0.64683900  1
  H  590  1  0.29386200  0.75016800  0.63271300  1
  H  595  1  0.25253700  0.70670000  0.61310200  1
  H  596  1  0.40528200  0.77055700  0.65871100  1
  H  597  1  0.30730400  0.81954800  0.70109800  1
  H  598  1  0.25069300  0.70192800  0.69790700  1
  H  605  1  0.26741800  0.22877700  0.44134300  1
  H  606  1  0.35386600  0.25069500  0.46860700  1
  H  607  1  0.35867500  0.19820400  0.43618500  1
  H  614  1  0.28511900  0.27027300  0.43412500  1
  H  615  1  0.25434100  0.30847300  0.47918000  1
  H  616  1  0.29401900  0.25275400  0.49299300  1
  H  621  1  0.25238400  0.29604100  0.51284600  1
  H  622  1  0.40531400  0.23273200  0.46675700  1
  H  623  1  0.30739100  0.18359500  0.42444900  1
  H  624  1  0.24867000  0.30121500  0.42844500  1
  H  631  1  0.27255700  0.37916400  0.28909800  1
  H  632  1  0.35961800  0.40831100  0.30763900  1
  H  633  1  0.36042100  0.37629100  0.25490200  1
  H  640  1  0.29303800  0.37176100  0.32870200  1
  H  641  1  0.26724000  0.41517700  0.36996100  1
  H  642  1  0.30183400  0.43119800  0.31374800  1
  H  647  1  0.27627800  0.44942700  0.36204400  1
  H  648  1  0.40734600  0.41006200  0.28372100  1
  H  649  1  0.30960800  0.36214200  0.24276200  1
  H  650  1  0.26940200  0.36263700  0.35989300  1
  H  657  1  0.27239700  0.62357700  0.83671000  1
  H  658  1  0.35951800  0.59456700  0.81804700  1
  H  659  1  0.36037100  0.62655700  0.87080200  1
  H  666  1  0.29278800  0.63101000  0.79704000  1
  H  667  1  0.26701200  0.58753200  0.75583900  1
  H  668  1  0.30173900  0.57159300  0.81205100  1
  H  673  1  0.27617300  0.55329900  0.76378300  1
  H  674  1  0.40730600  0.59285400  0.84191200  1
  H  675  1  0.30950300  0.64057200  0.88303500  1
  H  676  1  0.26904700  0.64007700  0.76585600  1
  H  683  1  0.27239700  0.77526900  0.44081100  1
  H  684  1  0.35951800  0.75651600  0.46975600  1
  H  685  1  0.36045900  0.80927800  0.43777200  1
  H  692  1  0.29285600  0.73558400  0.43331800  1
  H  693  1  0.26704800  0.69433000  0.47674300  1
  H  694  1  0.30165900  0.75054700  0.49275100  1
  H  699  1  0.27608800  0.70225200  0.51098700  1
  H  700  1  0.40740400  0.78032400  0.47142500  1
  H  701  1  0.30955100  0.82157900  0.42383700  1
  H  702  1  0.26926500  0.70439000  0.42419500  1
  H  709  1  0.27246000  0.22761500  0.68512800  1
  H  710  1  0.35955800  0.24630900  0.65612200  1
  H  711  1  0.36049200  0.19357800  0.68815600  1
  H  718  1  0.29280100  0.26729100  0.69255700  1
  H  719  1  0.26691000  0.30845100  0.64905900  1
  H  720  1  0.30173900  0.25225200  0.63314200  1
  H  725  1  0.27605300  0.30049100  0.61482600  1
  H  726  1  0.40740100  0.22247900  0.65444400  1
  H  727  1  0.30962100  0.18132400  0.70216300  1
  H  728  1  0.26886700  0.29846500  0.70159300  1
  H  735  1  0.70026900  0.62364000  0.28909800  1
  H  736  1  0.61320600  0.59449400  0.30763900  1
  H  737  1  0.61240300  0.62651300  0.25490200  1
  H  744  1  0.67978600  0.63104400  0.32870200  1
  H  745  1  0.70558400  0.58762800  0.36996100  1
  H  746  1  0.67099100  0.57160500  0.31374800  1
  H  751  1  0.69654600  0.55337700  0.36204400  1
  H  752  1  0.56547800  0.59274300  0.28372100  1
  H  753  1  0.66321600  0.64066300  0.24276200  1
  H  754  1  0.70342200  0.64016800  0.35989300  1
  H  761  1  0.70043000  0.37922800  0.83671000  1
  H  762  1  0.61330900  0.40823700  0.81804700  1
  H  763  1  0.61245500  0.37624700  0.87080200  1
  H  770  1  0.68003600  0.37179500  0.79704000  1
  H  771  1  0.70581400  0.41527200  0.75583900  1
  H  772  1  0.67108600  0.43121100  0.81205100  1
  H  777  1  0.69665100  0.44950500  0.76378300  1
  H  778  1  0.56551800  0.40995000  0.84191200  1
  H  779  1  0.66332100  0.36223300  0.88303500  1
  H  780  1  0.70377800  0.36272800  0.76585600  1
  H  787  1  0.70043000  0.22753500  0.44081100  1
  H  788  1  0.61330600  0.24628900  0.46975600  1
  H  789  1  0.61236500  0.19352700  0.43777200  1
  H  796  1  0.67996900  0.26722100  0.43331800  1
  H  797  1  0.70577700  0.30847400  0.47674300  1
  H  798  1  0.67116600  0.25225800  0.49275100  1
  H  803  1  0.69673600  0.30055200  0.51098700  1
  H  804  1  0.56542300  0.22248100  0.47142500  1
  H  805  1  0.66327600  0.18122600  0.42383700  1
  H  806  1  0.70356000  0.29841500  0.42419500  1
  H  813  1  0.70036500  0.77519000  0.68512800  1
  H  814  1  0.61326600  0.75649500  0.65612200  1
  H  815  1  0.61233300  0.80922600  0.68815600  1
  H  822  1  0.68002400  0.73551300  0.69255700  1
  H  823  1  0.70591400  0.69435400  0.64905900  1
  H  824  1  0.67108600  0.75055200  0.63314200  1
  H  829  1  0.69677100  0.70231400  0.61482600  1
  H  830  1  0.56542300  0.78032500  0.65444400  1
  H  831  1  0.66320400  0.82148000  0.70216300  1
  H  832  1  0.70395800  0.70434000  0.70159300  1
  H  838  1  0.14617600  0.01956800  0.30394400  1
  H  840  1  0.23494300  0.01816400  0.27098100  1
  H  854  1  0.14619100  0.98328800  0.82189600  1
  H  856  1  0.23488300  0.98470900  0.85492500  1
  H  870  1  0.14622300  0.76039700  0.08107000  1
  H  872  1  0.23492800  0.79341600  0.07967700  1
  H  886  1  0.14622000  0.24245400  0.04477400  1
  H  888  1  0.23507400  0.20957300  0.04619800  1
  H  902  1  0.82664800  0.98323600  0.30394400  1
  H  904  1  0.73788100  0.98464000  0.27098200  1
  H  918  1  0.82663300  0.01951700  0.82189600  1
  H  920  1  0.73794300  0.01809500  0.85492500  1
  H  934  1  0.82660300  0.24240700  0.08107000  1
  H  936  1  0.73789600  0.20938800  0.07967700  1
  H  950  1  0.82660500  0.76035000  0.04477400  1
  H  952  1  0.73775100  0.79323100  0.04619800  1
  H  966  1  0.64579000  0.51929500  0.80411900  1
  H  968  1  0.73496300  0.51785400  0.77153300  1
  H  982  1  0.64576500  0.48353100  0.32172500  1
  H  984  1  0.73487800  0.48502000  0.35436400  1
  H  998  1  0.64584000  0.26021200  0.58080700  1
  H  1000  1  0.73493300  0.29287100  0.57937400  1
  H  1014  1  0.64585100  0.74261300  0.54503600  1
  H  1016  1  0.73513100  0.71012800  0.54650700  1
  H  1030  1  0.32703600  0.48350900  0.80411900  1
  H  1032  1  0.23786200  0.48495100  0.77153300  1
  H  1046  1  0.32705900  0.51927300  0.32172500  1
  H  1048  1  0.23794600  0.51778500  0.35436400  1
  H  1062  1  0.32698400  0.74259200  0.58080700  1
  H  1064  1  0.23789200  0.70993300  0.57937400  1
  H  1078  1  0.32697400  0.26019200  0.54503600  1
  H  1080  1  0.23769400  0.29267600  0.54650700  1
  H  1094  1  0.22415400  0.18211300  0.35826900  1
  H  1096  1  0.21444100  0.14205800  0.40484600  1
  H  1110  1  0.22420800  0.82089500  0.76738300  1
  H  1112  1  0.21438800  0.86100100  0.72085900  1
  H  1126  1  0.22420300  0.70582800  0.24344100  1
  H  1128  1  0.21452100  0.65924900  0.20338500  1
  H  1142  1  0.22430200  0.29673800  0.88214800  1
  H  1144  1  0.21452300  0.34322600  0.92230000  1
  H  1158  1  0.74867000  0.82069200  0.35826900  1
  H  1160  1  0.75838400  0.86074600  0.40484600  1
  H  1174  1  0.74861800  0.18191000  0.76738300  1
  H  1176  1  0.75843700  0.14180400  0.72085900  1
  H  1190  1  0.74862000  0.29697600  0.24344100  1
  H  1192  1  0.75830400  0.34355600  0.20338500  1
  H  1206  1  0.74852300  0.70606600  0.88214800  1
  H  1208  1  0.75830200  0.65957900  0.92230000  1
  H  1222  1  0.75155100  0.82175800  0.76550600  1
  H  1224  1  0.75758800  0.86275400  0.71953200  1
  H  1238  1  0.75145300  0.18101000  0.36035800  1
  H  1240  1  0.75762100  0.13999500  0.40630800  1
  H  1254  1  0.75159100  0.29886300  0.88332100  1
  H  1256  1  0.75768900  0.34483700  0.92431300  1
  H  1270  1  0.75156600  0.70399000  0.24261700  1
  H  1272  1  0.75763300  0.65809300  0.20153400  1
  H  1286  1  0.22127500  0.18104700  0.76550600  1
  H  1288  1  0.21523700  0.14005000  0.71953200  1
  H  1302  1  0.22137100  0.82179500  0.36035800  1
  H  1304  1  0.21520300  0.86281000  0.40630800  1
  H  1318  1  0.22123500  0.70394200  0.88332100  1
  H  1320  1  0.21513700  0.65796700  0.92431300  1
  H  1334  1  0.22126000  0.29881400  0.24261700  1
  H  1336  1  0.21519200  0.34471100  0.20153400  1
  H  1350  1  0.15544600  0.17796100  0.21502100  1
  H  1352  1  0.23867100  0.15196500  0.18776500  1
  H  1366  1  0.15633900  0.82447200  0.91031800  1
  H  1368  1  0.23799300  0.85121100  0.93847400  1
  H  1382  1  0.15625800  0.84889100  0.23982800  1
  H  1384  1  0.23795600  0.87698900  0.21307300  1
  H  1398  1  0.15495900  0.15336900  0.88651000  1
  H  1400  1  0.23899200  0.12656600  0.91208200  1
  H  1414  1  0.81738000  0.82484400  0.21502100  1
  H  1416  1  0.73415200  0.85083900  0.18776500  1
  H  1430  1  0.81648600  0.17833200  0.91031800  1
  H  1432  1  0.73483300  0.15159400  0.93847400  1
  H  1446  1  0.81656600  0.15391300  0.23982800  1
  H  1448  1  0.73486800  0.12581600  0.21307300  1
  H  1462  1  0.81786500  0.84943600  0.88651000  1
  H  1464  1  0.73383200  0.87623900  0.91208200  1
  H  1478  1  0.65493600  0.67754000  0.71488200  1
  H  1480  1  0.73828600  0.65161900  0.68768100  1
  H  1494  1  0.65549700  0.32507800  0.41067000  1
  H  1496  1  0.73796600  0.35140100  0.43840300  1
  H  1510  1  0.65554700  0.34916400  0.73927200  1
  H  1512  1  0.73781100  0.37698000  0.71281900  1
  H  1526  1  0.65442300  0.65325300  0.38690000  1
  H  1528  1  0.73850100  0.62645300  0.41242600  1
  H  1542  1  0.31789100  0.32526500  0.71488200  1
  H  1544  1  0.23453900  0.35118600  0.68768100  1
  H  1558  1  0.31732800  0.67772600  0.41067000  1
  H  1560  1  0.23486000  0.65140300  0.43840300  1
  H  1574  1  0.31728000  0.65364100  0.73927200  1
  H  1576  1  0.23501500  0.62582500  0.71281900  1
  H  1590  1  0.31840100  0.34955200  0.38690000  1
  H  1592  1  0.23432300  0.37635200  0.41242600  1
  H  1606  1  0.01751100  0.12106000  0.32027600  1
  H  1608  1  0.01901000  0.11605300  0.38175900  1
  H  1622  1  0.01750700  0.88188500  0.80550800  1
  H  1624  1  0.01905000  0.88679300  0.74401800  1
  H  1638  1  0.01773700  0.74392100  0.18256300  1
  H  1640  1  0.01903200  0.68244300  0.17750600  1
  H  1654  1  0.01747800  0.25871300  0.94311200  1
  H  1656  1  0.01908600  0.32017600  0.94833200  1
  H  1670  1  0.95531400  0.88174400  0.32027600  1
  H  1672  1  0.95381500  0.88675200  0.38175900  1
  H  1686  1  0.95531900  0.12091900  0.80550800  1
  H  1688  1  0.95377500  0.11601200  0.74401800  1
  H  1702  1  0.95508800  0.25888400  0.18256300  1
  H  1704  1  0.95379200  0.32036100  0.17750600  1
  H  1718  1  0.95534600  0.74409100  0.94311200  1
  H  1720  1  0.95374000  0.68262800  0.94833200  1
  H  1734  1  0.51737500  0.61963100  0.81970300  1
  H  1736  1  0.51891600  0.61750400  0.88134900  1
  H  1750  1  0.51737300  0.38326600  0.30607200  1
  H  1752  1  0.51900400  0.38537600  0.24442600  1
  H  1766  1  0.51758500  0.24451400  0.68109100  1
  H  1768  1  0.51892900  0.18286400  0.67901800  1
  H  1782  1  0.51738500  0.75811500  0.44454200  1
  H  1784  1  0.51902900  0.81975400  0.44682400  1
  H  1798  1  0.45545200  0.38317400  0.81970300  1
  H  1800  1  0.45390800  0.38530100  0.88134900  1
  H  1814  1  0.45545400  0.61953800  0.30607200  1
  H  1816  1  0.45382300  0.61742900  0.24442600  1
  H  1830  1  0.45524200  0.75829100  0.68109100  1
  H  1832  1  0.45389500  0.81994000  0.67901800  1
  H  1846  1  0.45543900  0.24469000  0.44454200  1
  H  1848  1  0.45379500  0.18305100  0.44682400  1
  C  1  1  0.16487700  0.10762500  0.32303000  1
  C  2  1  0.18081400  0.11852200  0.33800800  1
  C  3  1  0.16269400  0.12515400  0.35459600  1
  C  4  1  0.12798400  0.12111700  0.35566000  1
  C  5  1  0.11117300  0.11075700  0.34057600  1
  C  6  1  0.13022200  0.10389900  0.32447900  1
  C  10  1  0.18217800  0.10165400  0.30585100  1
  C  11  1  0.19147700  0.11580600  0.29175600  1
  C  12  1  0.20436600  0.11014700  0.27329000  1
  C  13  1  0.20869000  0.08992100  0.26925900  1
  C  14  1  0.19989500  0.07531400  0.28317800  1
  C  15  1  0.18624400  0.08153500  0.30136300  1
  C  19  1  0.20482900  0.05549600  0.27879200  1
  C  20  1  0.07671500  0.10779800  0.34060200  1
  C  21  1  0.17803000  0.13506100  0.36995700  1
  C  22  1  0.21081300  0.12453200  0.25943300  1
  C  27  1  0.16485500  0.89528400  0.80276800  1
  C  28  1  0.18081200  0.88442200  0.78777000  1
  C  29  1  0.16270900  0.87783000  0.77116000  1
  C  30  1  0.12799700  0.88185900  0.77009700  1
  C  31  1  0.11116900  0.89217600  0.78520400  1
  C  32  1  0.13020200  0.89901300  0.80131500  1
  C  36  1  0.18216000  0.90124500  0.81994900  1
  C  37  1  0.19143100  0.88707200  0.83403000  1
  C  38  1  0.20432700  0.89270100  0.85250700  1
  C  39  1  0.20865400  0.91292200  0.85656300  1
  C  40  1  0.19987800  0.92754900  0.84265900  1
  C  41  1  0.18623400  0.92135500  0.82446400  1
  C  45  1  0.20481700  0.94736200  0.84706600  1
  C  46  1  0.07671300  0.89514200  0.78516000  1
  C  47  1  0.17806200  0.86796900  0.75577700  1
  C  48  1  0.21074800  0.87828200  0.86633900  1
  C  53  1  0.16493600  0.74112900  0.16901300  1
  C  54  1  0.18091000  0.72613700  0.17987200  1
  C  55  1  0.16282500  0.70951800  0.18646000  1
  C  56  1  0.12811300  0.70844300  0.18243400  1
  C  57  1  0.11127200  0.72354100  0.17211200  1
  C  58  1  0.13028400  0.73966600  0.16529000  1
  C  62  1  0.18220300  0.75833500  0.16308600  1
  C  63  1  0.19130200  0.77243300  0.17728000  1
  C  64  1  0.20412700  0.79093800  0.17168600  1
  C  65  1  0.20850000  0.79501800  0.15147100  1
  C  66  1  0.19987400  0.78110300  0.13682400  1
  C  67  1  0.18632800  0.76287100  0.14298600  1
  C  71  1  0.20484300  0.78553400  0.11701900  1
  C  72  1  0.07681200  0.72351000  0.16917700  1
  C  73  1  0.17819200  0.69415000  0.19633500  1
  C  74  1  0.21033600  0.80476900  0.18613700  1
  C  79  1  0.16494100  0.26140700  0.95662600  1
  C  80  1  0.18087000  0.27638800  0.94572700  1
  C  81  1  0.16273100  0.29295900  0.93907500  1
  C  82  1  0.12800900  0.29400000  0.94308000  1
  C  83  1  0.11120500  0.27891100  0.95343800  1
  C  84  1  0.13027200  0.26283100  0.96031700  1
  C  88  1  0.18227000  0.24425300  0.96264200  1
  C  89  1  0.19165400  0.23014600  0.94852000  1
  C  90  1  0.20465400  0.21172400  0.95423000  1
  C  91  1  0.20892400  0.20772900  0.97446600  1
  C  92  1  0.20002000  0.22166000  0.98904000  1
  C  93  1  0.18630000  0.23981200  0.98277400  1
  C  97  1  0.20493700  0.21731500  0.00887000  1
  C  98  1  0.07674000  0.27891900  0.95638100  1
  C  99  1  0.17805000  0.30832700  0.92917100  1
  C  100  1  0.21128500  0.19785500  0.93989700  1
  C  105  1  0.80794900  0.89518000  0.32303000  1
  C  106  1  0.79201200  0.88428200  0.33800800  1
  C  107  1  0.81013100  0.87765100  0.35459600  1
  C  108  1  0.84484200  0.88168700  0.35566000  1
  C  109  1  0.86165200  0.89204700  0.34057600  1
  C  110  1  0.84260200  0.89890600  0.32447900  1
  C  114  1  0.79064800  0.90115100  0.30585100  1
  C  115  1  0.78134700  0.88699800  0.29175600  1
  C  116  1  0.76845800  0.89265800  0.27329000  1
  C  117  1  0.76413400  0.91288400  0.26925900  1
  C  118  1  0.77293000  0.92749000  0.28317800  1
  C  119  1  0.78658200  0.92127000  0.30136300  1
  C  123  1  0.76799500  0.94730900  0.27879200  1
  C  124  1  0.89611000  0.89500700  0.34060200  1
  C  125  1  0.79479400  0.86774400  0.36995700  1
  C  126  1  0.76201200  0.87827200  0.25943300  1
  C  131  1  0.80796900  0.10752000  0.80276800  1
  C  132  1  0.79201400  0.11838200  0.78777000  1
  C  133  1  0.81011600  0.12497400  0.77116000  1
  C  134  1  0.84482700  0.12094600  0.77009700  1
  C  135  1  0.86165700  0.11062800  0.78520400  1
  C  136  1  0.84262200  0.10379200  0.80131500  1
  C  140  1  0.79066300  0.10156000  0.81994900  1
  C  141  1  0.78139500  0.11573300  0.83403000  1
  C  142  1  0.76849800  0.11010500  0.85250700  1
  C  143  1  0.76417200  0.08988300  0.85656300  1
  C  144  1  0.77294700  0.07525500  0.84265900  1
  C  145  1  0.78659200  0.08144900  0.82446400  1
  C  149  1  0.76800800  0.05544200  0.84706600  1
  C  150  1  0.89611000  0.10766200  0.78516000  1
  C  151  1  0.79476200  0.13483600  0.75577700  1
  C  152  1  0.76207700  0.12452200  0.86633900  1
  C  157  1  0.80788900  0.26167600  0.16901300  1
  C  158  1  0.79191400  0.27666800  0.17987200  1
  C  159  1  0.81000100  0.29328700  0.18646000  1
  C  160  1  0.84471200  0.29436200  0.18243400  1
  C  161  1  0.86155200  0.27926400  0.17211200  1
  C  162  1  0.84254200  0.26313800  0.16529000  1
  C  166  1  0.79062100  0.24447000  0.16308600  1
  C  167  1  0.78152200  0.23037200  0.17728000  1
  C  168  1  0.76869800  0.21186600  0.17168600  1
  C  169  1  0.76432400  0.20778700  0.15147100  1
  C  170  1  0.77295200  0.22170100  0.13682400  1
  C  171  1  0.78649700  0.23993300  0.14298600  1
  C  175  1  0.76798300  0.21727000  0.11701900  1
  C  176  1  0.89601300  0.27929400  0.16917700  1
  C  177  1  0.79463200  0.30865500  0.19633500  1
  C  178  1  0.76248800  0.19803600  0.18613700  1
  C  183  1  0.80788400  0.74139700  0.95662600  1
  C  184  1  0.79195400  0.72641800  0.94572700  1
  C  185  1  0.81009300  0.70984500  0.93907500  1
  C  186  1  0.84481700  0.70880400  0.94308000  1
  C  187  1  0.86161900  0.72389300  0.95343800  1
  C  188  1  0.84255200  0.73997300  0.96031700  1
  C  192  1  0.79055600  0.75855200  0.96264200  1
  C  193  1  0.78117200  0.77265900  0.94852000  1
  C  194  1  0.76817000  0.79108100  0.95423000  1
  C  195  1  0.76390200  0.79507500  0.97446600  1
  C  196  1  0.77280500  0.78114500  0.98904000  1
  C  197  1  0.78652400  0.76299300  0.98277400  1
  C  201  1  0.76788800  0.78549000  0.00887000  1
  C  202  1  0.89608500  0.72388600  0.95638100  1
  C  203  1  0.79477400  0.69447700  0.92917100  1
  C  204  1  0.76153900  0.80495000  0.93989700  1
  C  209  1  0.81343100  0.89593300  0.80026400  1
  C  210  1  0.79658100  0.88492700  0.78569400  1
  C  211  1  0.81327100  0.87884300  0.76838400  1
  C  212  1  0.84758400  0.88351300  0.76616600  1
  C  213  1  0.86516800  0.89405300  0.78076700  1
  C  214  1  0.84763400  0.90040800  0.79760500  1
  C  218  1  0.79762700  0.90123800  0.81816400  1
  C  219  1  0.78928200  0.88655100  0.83191000  1
  C  220  1  0.77827000  0.89133800  0.85106700  1
  C  221  1  0.77481400  0.91145500  0.85602800  1
  C  222  1  0.78266100  0.92664700  0.84253300  1
  C  223  1  0.79449400  0.92113900  0.82369400  1
  C  227  1  0.78011900  0.94631800  0.84823800  1
  C  228  1  0.89920600  0.89756600  0.77943300  1
  C  229  1  0.79693900  0.86890400  0.75339600  1
  C  230  1  0.77335800  0.87619000  0.86452200  1
  C  235  1  0.81336100  0.10688500  0.32549200  1
  C  236  1  0.79650100  0.11786300  0.34008100  1
  C  237  1  0.81320800  0.12395100  0.35738500  1
  C  238  1  0.84754700  0.11932600  0.35957100  1
  C  239  1  0.86513500  0.10882000  0.34494800  1
  C  240  1  0.84758200  0.10244600  0.32812500  1
  C  244  1  0.79750700  0.10153300  0.30761700  1
  C  245  1  0.78908200  0.11620000  0.29386700  1
  C  246  1  0.77802400  0.11138100  0.27472400  1
  C  247  1  0.77465400  0.09125600  0.26977800  1
  C  248  1  0.78258100  0.07608600  0.28328300  1
  C  249  1  0.79443400  0.08162400  0.30210900  1
  C  253  1  0.78008400  0.05640800  0.27759700  1
  C  254  1  0.89918800  0.10533900  0.34625100  1
  C  255  1  0.79687100  0.13384800  0.37239800  1
  C  256  1  0.77301700  0.12650900  0.26126200  1
  C  261  1  0.81334400  0.26401200  0.95747400  1
  C  262  1  0.79649600  0.27861300  0.94650900  1
  C  263  1  0.81322600  0.29590700  0.94041800  1
  C  264  1  0.84757400  0.29807100  0.94502500  1
  C  265  1  0.86515000  0.28343900  0.95552600  1
  C  266  1  0.84757700  0.26661700  0.96189000  1
  C  270  1  0.79748400  0.24613200  0.96280200  1
  C  271  1  0.78913700  0.23238300  0.94811800  1
  C  272  1  0.77807400  0.21323500  0.95291000  1
  C  273  1  0.77467900  0.20827000  0.97302700  1
  C  274  1  0.78255600  0.22176300  0.98821600  1
  C  275  1  0.79437900  0.24060400  0.98270300  1
  C  279  1  0.78002400  0.21605900  0.00788800  1
  C  280  1  0.89921800  0.28469000  0.95896000  1
  C  281  1  0.79690400  0.31092300  0.93051700  1
  C  282  1  0.77314700  0.19978400  0.93776200  1
  C  287  1  0.81342400  0.73882500  0.16842800  1
  C  288  1  0.79659300  0.72424600  0.17943000  1
  C  289  1  0.81333400  0.70696300  0.18554600  1
  C  290  1  0.84767400  0.70479200  0.18092800  1
  C  291  1  0.86523800  0.71940700  0.17039600  1
  C  292  1  0.84765700  0.73621600  0.16401000  1
  C  296  1  0.79757200  0.75670400  0.16308800  1
  C  297  1  0.78919700  0.77046600  0.17775100  1
  C  298  1  0.77808200  0.78959500  0.17292500  1
  C  299  1  0.77465600  0.79452000  0.15279900  1
  C  300  1  0.78256300  0.78100700  0.13763200  1
  C  301  1  0.79444400  0.76218900  0.14317600  1
  C  305  1  0.78002100  0.78667600  0.11795100  1
  C  306  1  0.89929800  0.71813800  0.16693400  1
  C  307  1  0.79703400  0.69196400  0.19548500  1
  C  308  1  0.77307500  0.80306200  0.18804800  1
  C  313  1  0.15939300  0.10687100  0.80026400  1
  C  314  1  0.17624500  0.11787700  0.78569400  1
  C  315  1  0.15955300  0.12396200  0.76838400  1
  C  316  1  0.12524100  0.11929200  0.76616600  1
  C  317  1  0.10765700  0.10875300  0.78076700  1
  C  318  1  0.12519000  0.10239700  0.79760500  1
  C  322  1  0.17519800  0.10156700  0.81816400  1
  C  323  1  0.18354200  0.11625400  0.83191000  1
  C  324  1  0.19455600  0.11146600  0.85106700  1
  C  325  1  0.19801200  0.09135000  0.85602800  1
  C  326  1  0.19016500  0.07615700  0.84253300  1
  C  327  1  0.17833100  0.08166600  0.82369400  1
  C  331  1  0.19270700  0.05648600  0.84823800  1
  C  332  1  0.07361900  0.10523800  0.77943300  1
  C  333  1  0.17588500  0.13390000  0.75339600  1
  C  334  1  0.19946700  0.12661500  0.86452200  1
  C  339  1  0.15946500  0.89592000  0.32549200  1
  C  340  1  0.17632400  0.88494200  0.34008100  1
  C  341  1  0.15961500  0.87885300  0.35738500  1
  C  342  1  0.12527800  0.88347800  0.35957100  1
  C  343  1  0.10768900  0.89398500  0.34494800  1
  C  344  1  0.12524400  0.90035800  0.32812500  1
  C  348  1  0.17531800  0.90127100  0.30761700  1
  C  349  1  0.18374300  0.88660500  0.29386700  1
  C  350  1  0.19480000  0.89142300  0.27472400  1
  C  351  1  0.19817200  0.91154800  0.26977800  1
  C  352  1  0.19024300  0.92671900  0.28328300  1
  C  353  1  0.17839000  0.92118000  0.30210900  1
  C  357  1  0.19274000  0.94639600  0.27759700  1
  C  358  1  0.07363600  0.89746600  0.34625100  1
  C  359  1  0.17595300  0.86895700  0.37239800  1
  C  360  1  0.19980700  0.87629600  0.26126200  1
  C  365  1  0.15948200  0.73879300  0.95747400  1
  C  366  1  0.17633000  0.72419100  0.94650900  1
  C  367  1  0.15959800  0.70689600  0.94041800  1
  C  368  1  0.12525000  0.70473300  0.94502500  1
  C  369  1  0.10767600  0.71936600  0.95552600  1
  C  370  1  0.12524700  0.73618700  0.96189000  1
  C  374  1  0.17534000  0.75667300  0.96280200  1
  C  375  1  0.18368800  0.77042200  0.94811800  1
  C  376  1  0.19475200  0.78957000  0.95291000  1
  C  377  1  0.19814700  0.79453500  0.97302700  1
  C  378  1  0.19026800  0.78104200  0.98821600  1
  C  379  1  0.17844600  0.76220000  0.98270300  1
  C  383  1  0.19280100  0.78674500  0.00788800  1
  C  384  1  0.07360500  0.71811500  0.95896000  1
  C  385  1  0.17592100  0.69188200  0.93051700  1
  C  386  1  0.19967900  0.80302100  0.93776200  1
  C  391  1  0.15940200  0.26397900  0.16842800  1
  C  392  1  0.17623200  0.27855900  0.17943000  1
  C  393  1  0.15949200  0.29584100  0.18554600  1
  C  394  1  0.12515000  0.29801300  0.18092800  1
  C  395  1  0.10758800  0.28339800  0.17039600  1
  C  396  1  0.12516800  0.26658800  0.16401000  1
  C  400  1  0.17525300  0.24610100  0.16308800  1
  C  401  1  0.18362900  0.23233900  0.17775100  1
  C  402  1  0.19474200  0.21321000  0.17292500  1
  C  403  1  0.19817000  0.20828400  0.15279900  1
  C  404  1  0.19026200  0.22179800  0.13763200  1
  C  405  1  0.17838100  0.24061600  0.14317600  1
  C  409  1  0.19280300  0.21612800  0.11795100  1
  C  410  1  0.07352800  0.28466600  0.16693400  1
  C  411  1  0.17579100  0.31084100  0.19548500  1
  C  412  1  0.19975000  0.19974300  0.18804800  1
  C  417  1  0.66484300  0.60777700  0.82279000  1
  C  418  1  0.68036900  0.61974100  0.83709100  1
  C  419  1  0.66221300  0.62708400  0.85339400  1
  C  420  1  0.62768400  0.62253200  0.85475000  1
  C  421  1  0.61122200  0.61100900  0.84038900  1
  C  422  1  0.63041900  0.60354900  0.82463100  1
  C  426  1  0.68208100  0.60156700  0.80565000  1
  C  427  1  0.69163900  0.61557700  0.79146200  1
  C  428  1  0.70457300  0.60973400  0.77306900  1
  C  429  1  0.70873200  0.58947500  0.76919100  1
  C  430  1  0.69974400  0.57500200  0.78320900  1
  C  431  1  0.68601900  0.58140000  0.80131500  1
  C  435  1  0.70460800  0.55514500  0.77897600  1
  C  436  1  0.57684800  0.60768300  0.84061700  1
  C  437  1  0.67699300  0.63855700  0.86795600  1
  C  438  1  0.71121700  0.62397800  0.75911300  1
  C  443  1  0.66484000  0.39510200  0.30303600  1
  C  444  1  0.68039400  0.38317500  0.28871200  1
  C  445  1  0.66225300  0.37586100  0.27239000  1
  C  446  1  0.62772200  0.38040500  0.27103400  1
  C  447  1  0.61123900  0.39188800  0.28541800  1
  C  448  1  0.63041900  0.39933300  0.30119000  1
  C  452  1  0.68209100  0.40130900  0.32017400  1
  C  453  1  0.69162400  0.38728400  0.33435200  1
  C  454  1  0.70455800  0.39310500  0.35275300  1
  C  455  1  0.70871000  0.41336500  0.35665000  1
  C  456  1  0.69973600  0.42785100  0.34264300  1
  C  457  1  0.68602400  0.42147000  0.32452600  1
  C  461  1  0.70458800  0.44770500  0.34689100  1
  C  462  1  0.57687100  0.39522200  0.28517000  1
  C  463  1  0.67705400  0.36442600  0.25780300  1
  C  464  1  0.71117200  0.37883700  0.36669400  1
  C  469  1  0.66489500  0.24136900  0.66917600  1
  C  470  1  0.68046200  0.22704900  0.68110100  1
  C  471  1  0.66233500  0.21072000  0.68841400  1
  C  472  1  0.62780400  0.20935300  0.68386900  1
  C  473  1  0.61131700  0.22372700  0.67237600  1
  C  474  1  0.63047400  0.23951500  0.66494800  1
  C  478  1  0.68210600  0.25853400  0.66301000  1
  C  479  1  0.69145100  0.27272800  0.67706100  1
  C  480  1  0.70431100  0.29116300  0.67128600  1
  C  481  1  0.70852200  0.29509000  0.65103600  1
  C  482  1  0.69971100  0.28107400  0.63652100  1
  C  483  1  0.68609900  0.26291800  0.64286000  1
  C  487  1  0.70460800  0.28535300  0.61667800  1
  C  488  1  0.57694100  0.22349800  0.66907300  1
  C  489  1  0.67714100  0.19614600  0.69985900  1
  C  490  1  0.71069400  0.30509500  0.68560000  1
  C  495  1  0.66494300  0.76115100  0.45646500  1
  C  496  1  0.68047700  0.77546300  0.44451800  1
  C  497  1  0.66230500  0.79175400  0.43715700  1
  C  498  1  0.62775700  0.79308300  0.44166900  1
  C  499  1  0.61129200  0.77871000  0.45317500  1
  C  500  1  0.63049700  0.76296400  0.46065100  1
  C  504  1  0.68220800  0.74403700  0.46272200  1
  C  505  1  0.69184700  0.72983500  0.44874600  1
  C  506  1  0.70489400  0.71148900  0.45464400  1
  C  507  1  0.70900200  0.70765200  0.47491200  1
  C  508  1  0.69990900  0.72168200  0.48934900  1
  C  509  1  0.68611700  0.73975500  0.48290300  1
  C  513  1  0.70475800  0.71749400  0.50921700  1
  C  514  1  0.57691400  0.77892200  0.45648300  1
  C  515  1  0.67709400  0.80633400  0.42571000  1
  C  516  1  0.71172000  0.69751800  0.44045700  1
  C  521  1  0.30798200  0.39502700  0.82279000  1
  C  522  1  0.29245500  0.38306400  0.83709100  1
  C  523  1  0.31061400  0.37572000  0.85339400  1
  C  524  1  0.34514300  0.38027300  0.85475000  1
  C  525  1  0.36160300  0.39179600  0.84038900  1
  C  526  1  0.34240800  0.39925500  0.82463100  1
  C  530  1  0.29074400  0.40123700  0.80565000  1
  C  531  1  0.28118500  0.38722700  0.79146200  1
  C  532  1  0.26825100  0.39307000  0.77306900  1
  C  533  1  0.26409200  0.41333000  0.76919100  1
  C  534  1  0.27308000  0.42780200  0.78320900  1
  C  535  1  0.28680500  0.42140400  0.80131500  1
  C  539  1  0.26821900  0.44766000  0.77897600  1
  C  540  1  0.39597600  0.39512100  0.84061700  1
  C  541  1  0.29583100  0.36424700  0.86795600  1
  C  542  1  0.26160800  0.37882700  0.75911300  1
  C  547  1  0.30798400  0.60770300  0.30303600  1
  C  548  1  0.29243300  0.61962900  0.28871200  1
  C  549  1  0.31057200  0.62694300  0.27239000  1
  C  550  1  0.34510300  0.62240000  0.27103400  1
  C  551  1  0.36158500  0.61091600  0.28541800  1
  C  552  1  0.34240500  0.60347100  0.30119000  1
  C  556  1  0.29073400  0.60149500  0.32017400  1
  C  557  1  0.28120000  0.61552000  0.33435200  1
  C  558  1  0.26826600  0.60969900  0.35275300  1
  C  559  1  0.26411500  0.58943900  0.35665000  1
  C  560  1  0.27308800  0.57495400  0.34264300  1
  C  561  1  0.28680000  0.58133400  0.32452600  1
  C  565  1  0.26823600  0.55509900  0.34689100  1
  C  566  1  0.39595300  0.60758200  0.28517000  1
  C  567  1  0.29577300  0.63837800  0.25780300  1
  C  568  1  0.26165300  0.62396800  0.36669400  1
  C  573  1  0.30792900  0.76143500  0.66917600  1
  C  574  1  0.29236500  0.77575500  0.68110100  1
  C  575  1  0.31049200  0.79208500  0.68841400  1
  C  576  1  0.34502300  0.79345200  0.68386900  1
  C  577  1  0.36151000  0.77907700  0.67237600  1
  C  578  1  0.34235000  0.76329000  0.66494800  1
  C  582  1  0.29072100  0.74427000  0.66301000  1
  C  583  1  0.28137300  0.73007700  0.67706100  1
  C  584  1  0.26851400  0.71164200  0.67128600  1
  C  585  1  0.26430500  0.70771500  0.65103600  1
  C  586  1  0.27311300  0.72173100  0.63652100  1
  C  587  1  0.28672500  0.73988700  0.64286000  1
  C  591  1  0.26821600  0.71745100  0.61667800  1
  C  592  1  0.39588300  0.77930600  0.66907300  1
  C  593  1  0.29568300  0.80665900  0.69985900  1
  C  594  1  0.26213100  0.69771000  0.68560000  1
  C  599  1  0.30788400  0.24165400  0.45646500  1
  C  600  1  0.29235000  0.22734200  0.44451800  1
  C  601  1  0.31051900  0.21105000  0.43715700  1
  C  602  1  0.34506800  0.20972200  0.44166900  1
  C  603  1  0.36153200  0.22409400  0.45317500  1
  C  604  1  0.34232800  0.23984100  0.46065100  1
  C  608  1  0.29061600  0.25876800  0.46272200  1
  C  609  1  0.28097800  0.27297000  0.44874600  1
  C  610  1  0.26793100  0.29131500  0.45464400  1
  C  611  1  0.26382200  0.29515300  0.47491200  1
  C  612  1  0.27291500  0.28112200  0.48934900  1
  C  613  1  0.28670800  0.26305000  0.48290300  1
  C  617  1  0.26806800  0.28531100  0.50921700  1
  C  618  1  0.39591300  0.22388300  0.45648300  1
  C  619  1  0.29573100  0.19647100  0.42571000  1
  C  620  1  0.26110500  0.30528700  0.44045700  1
  C  625  1  0.31335400  0.39517700  0.30043400  1
  C  626  1  0.29699400  0.38297000  0.28664400  1
  C  627  1  0.31364700  0.37609600  0.26958500  1
  C  628  1  0.34764700  0.38138300  0.26692700  1
  C  629  1  0.36478300  0.39324100  0.28068000  1
  C  630  1  0.34717000  0.40024600  0.29722100  1
  C  634  1  0.29777300  0.40075400  0.31835000  1
  C  635  1  0.28925700  0.38623000  0.33224400  1
  C  636  1  0.27830500  0.39122500  0.35135600  1
  C  637  1  0.27507000  0.41138900  0.35614500  1
  C  638  1  0.28304400  0.42643000  0.34250600  1
  C  639  1  0.29480000  0.42071600  0.32371000  1
  C  643  1  0.28066000  0.44615400  0.34804100  1
  C  644  1  0.39866100  0.39716800  0.27903200  1
  C  645  1  0.29801500  0.36434800  0.25553500  1
  C  646  1  0.27319600  0.37621100  0.36492700  1
  C  651  1  0.31323700  0.60764700  0.82530500  1
  C  652  1  0.29686400  0.61981400  0.83912700  1
  C  653  1  0.31354400  0.62669700  0.85617400  1
  C  654  1  0.34758000  0.62145900  0.85878600  1
  C  655  1  0.36472000  0.60964000  0.84500200  1
  C  656  1  0.34707400  0.60261600  0.82848200  1
  C  660  1  0.29758700  0.60202800  0.80742000  1
  C  661  1  0.28902500  0.61653300  0.79351600  1
  C  662  1  0.27804000  0.61151100  0.77441600  1
  C  663  1  0.27486000  0.59133900  0.76964800  1
  C  664  1  0.28288400  0.57631900  0.78329800  1
  C  665  1  0.29465500  0.58206100  0.80208200  1
  C  669  1  0.28053500  0.55659100  0.77778400  1
  C  670  1  0.39861600  0.60574600  0.84661400  1
  C  671  1  0.29791000  0.63840200  0.87025800  1
  C  672  1  0.27289500  0.62650400  0.76083100  1
  C  677  1  0.31323700  0.76382500  0.45671400  1
  C  678  1  0.29687700  0.77766400  0.44456100  1
  C  679  1  0.31359200  0.79469500  0.43766800  1
  C  680  1  0.34764500  0.79727300  0.44288000  1
  C  681  1  0.36476800  0.78347700  0.45469300  1
  C  682  1  0.34709900  0.76696300  0.46171200  1
  C  686  1  0.29757200  0.74594000  0.46231000  1
  C  687  1  0.28908500  0.73203700  0.44778900  1
  C  688  1  0.27809000  0.71293300  0.45278500  1
  C  689  1  0.27488700  0.70814400  0.47295200  1
  C  690  1  0.28286700  0.72178500  0.48799000  1
  C  691  1  0.29461000  0.74058400  0.48227200  1
  C  695  1  0.28048500  0.71625200  0.50771400  1
  C  696  1  0.39868800  0.78502000  0.45853700  1
  C  697  1  0.29797300  0.80878900  0.42596900  1
  C  698  1  0.27302800  0.69935600  0.43777200  1
  C  703  1  0.31328200  0.23902300  0.66918800  1
  C  704  1  0.29693400  0.22520800  0.68137000  1
  C  705  1  0.31364400  0.20818000  0.68827400  1
  C  706  1  0.34768800  0.20558600  0.68305100  1
  C  707  1  0.36480500  0.21936700  0.67121700  1
  C  708  1  0.34714000  0.23587700  0.66418600  1
  C  712  1  0.29763800  0.25691000  0.66357700  1
  C  713  1  0.28908700  0.27082100  0.67807600  1
  C  714  1  0.27803000  0.28990100  0.67304400  1
  C  715  1  0.27481500  0.29465500  0.65287100  1
  C  716  1  0.28285200  0.28100000  0.63785700  1
  C  717  1  0.29466500  0.26222600  0.64360500  1
  C  721  1  0.28046500  0.28649700  0.61812500  1
  C  722  1  0.39871100  0.21779300  0.66734100  1
  C  723  1  0.29802300  0.19410100  0.69999000  1
  C  724  1  0.27283300  0.30348600  0.68803200  1
  C  729  1  0.65947000  0.60762800  0.30043400  1
  C  730  1  0.67583000  0.61983500  0.28664400  1
  C  731  1  0.65918000  0.62670800  0.26958500  1
  C  732  1  0.62517900  0.62142200  0.26692700  1
  C  733  1  0.60804200  0.60956400  0.28068000  1
  C  734  1  0.62565700  0.60255800  0.29722100  1
  C  738  1  0.67505200  0.60205000  0.31835000  1
  C  739  1  0.68356700  0.61657400  0.33224400  1
  C  740  1  0.69452200  0.61158000  0.35135600  1
  C  741  1  0.69775500  0.59141600  0.35614500  1
  C  742  1  0.68978000  0.57637500  0.34250600  1
  C  743  1  0.67802400  0.58208900  0.32371000  1
  C  747  1  0.69216500  0.55665100  0.34804100  1
  C  748  1  0.57416400  0.60563700  0.27903200  1
  C  749  1  0.67480900  0.63845600  0.25553500  1
  C  750  1  0.69962900  0.62659400  0.36492700  1
  C  755  1  0.65958800  0.39515800  0.82530500  1
  C  756  1  0.67596000  0.38299000  0.83912700  1
  C  757  1  0.65928000  0.37610800  0.85617400  1
  C  758  1  0.62524700  0.38134600  0.85878600  1
  C  759  1  0.60810400  0.39316400  0.84500200  1
  C  760  1  0.62575000  0.40018900  0.82848200  1
  C  764  1  0.67523700  0.40077600  0.80742000  1
  C  765  1  0.68380000  0.38627100  0.79351600  1
  C  766  1  0.69478700  0.39129400  0.77441600  1
  C  767  1  0.69796500  0.41146500  0.76964800  1
  C  768  1  0.68994000  0.42648600  0.78329800  1
  C  769  1  0.67817000  0.42074400  0.80208200  1
  C  773  1  0.69229000  0.44621400  0.77778400  1
  C  774  1  0.57420900  0.39705900  0.84661400  1
  C  775  1  0.67491700  0.36440300  0.87025800  1
  C  776  1  0.69993200  0.37630000  0.76083100  1
  C  781  1  0.65959000  0.23897900  0.45671400  1
  C  782  1  0.67594800  0.22514100  0.44456100  1
  C  783  1  0.65923300  0.20811000  0.43766800  1
  C  784  1  0.62517900  0.20553200  0.44288000  1
  C  785  1  0.60805700  0.21932700  0.45469300  1
  C  786  1  0.62572700  0.23584200  0.46171200  1
  C  790  1  0.67525200  0.25686500  0.46231000  1
  C  791  1  0.68374000  0.27076800  0.44778900  1
  C  792  1  0.69473400  0.28987200  0.45278500  1
  C  793  1  0.69793700  0.29466100  0.47295200  1
  C  794  1  0.68996000  0.28101900  0.48799000  1
  C  795  1  0.67821700  0.26222100  0.48227200  1
  C  799  1  0.69234000  0.28655300  0.50771400  1
  C  800  1  0.57413600  0.21778400  0.45853700  1
  C  801  1  0.67485200  0.19401600  0.42596900  1
  C  802  1  0.69979600  0.30344900  0.43777200  1
  C  807  1  0.65954500  0.76378100  0.66918800  1
  C  808  1  0.67589300  0.77759600  0.68137000  1
  C  809  1  0.65918200  0.79462500  0.68827400  1
  C  810  1  0.62513700  0.79721900  0.68305100  1
  C  811  1  0.60801900  0.78343800  0.67121700  1
  C  812  1  0.62568500  0.76692800  0.66418600  1
  C  816  1  0.67518700  0.74589400  0.66357700  1
  C  817  1  0.68373700  0.73198400  0.67807600  1
  C  818  1  0.69479700  0.71290300  0.67304400  1
  C  819  1  0.69801000  0.70814900  0.65287100  1
  C  820  1  0.68997300  0.72180400  0.63785700  1
  C  821  1  0.67816000  0.74057800  0.64360500  1
  C  825  1  0.69236000  0.71630800  0.61812500  1
  C  826  1  0.57411400  0.78501100  0.66734100  1
  C  827  1  0.67480200  0.80870400  0.69999000  1
  C  828  1  0.69999200  0.69931900  0.68803200  1
  C  833  1  0.19007900  0.02209100  0.28694200  1
  C  834  1  0.16452000  0.01184700  0.29682500  1
  C  835  1  0.16375400  0.99106900  0.29739000  1
  C  836  1  0.18910500  0.98016800  0.28772900  1
  C  837  1  0.21546100  0.99025800  0.27802600  1
  C  839  1  0.21547800  0.01107000  0.27764000  1
  C  849  1  0.19005700  0.98077400  0.83893200  1
  C  850  1  0.16451400  0.99101300  0.82902800  1
  C  851  1  0.16374000  0.01179000  0.82845800  1
  C  852  1  0.18906500  0.02269700  0.83813600  1
  C  853  1  0.21540400  0.01261200  0.84786100  1
  C  855  1  0.21543000  0.99180100  0.84825100  1
  C  865  1  0.19009500  0.77742700  0.08359600  1
  C  866  1  0.16455300  0.76752900  0.07335000  1
  C  867  1  0.16379200  0.76696600  0.05257400  1
  C  868  1  0.18913000  0.77664000  0.04167400  1
  C  869  1  0.21546500  0.78636100  0.05176800  1
  C  871  1  0.21547800  0.78674800  0.07257900  1
  C  881  1  0.19016900  0.22549200  0.04226000  1
  C  882  1  0.16458000  0.23535400  0.05249900  1
  C  883  1  0.16379900  0.23591700  0.07327600  1
  C  884  1  0.18916500  0.22627400  0.08418300  1
  C  885  1  0.21555400  0.21660000  0.07409700  1
  C  887  1  0.21558700  0.21621500  0.05328700  1
  C  897  1  0.78274600  0.98071400  0.28694200  1
  C  898  1  0.80830400  0.99095900  0.29682500  1
  C  899  1  0.80907000  0.01173600  0.29739000  1
  C  900  1  0.78371900  0.02263700  0.28772900  1
  C  901  1  0.75736300  0.01254600  0.27802800  1
  C  903  1  0.75734600  0.99173500  0.27764000  1
  C  913  1  0.78276900  0.02203000  0.83893200  1
  C  914  1  0.80831200  0.01179200  0.82902800  1
  C  915  1  0.80908500  0.99101400  0.82845800  1
  C  916  1  0.78375900  0.98010600  0.83813600  1
  C  917  1  0.75742100  0.99019200  0.84786100  1
  C  919  1  0.75739600  0.01100400  0.84825100  1
  C  929  1  0.78273100  0.22537700  0.08359600  1
  C  930  1  0.80827100  0.23527500  0.07335000  1
  C  931  1  0.80903200  0.23583900  0.05257400  1
  C  932  1  0.78369400  0.22616400  0.04167400  1
  C  933  1  0.75736100  0.21644400  0.05176800  1
  C  935  1  0.75734800  0.21605600  0.07257900  1
  C  945  1  0.78265600  0.77731300  0.04226000  1
  C  946  1  0.80824400  0.76745000  0.05249900  1
  C  947  1  0.80902500  0.76688800  0.07327600  1
  C  948  1  0.78365900  0.77653000  0.08418300  1
  C  949  1  0.75727100  0.78620500  0.07409700  1
  C  951  1  0.75723800  0.78659000  0.05328700  1
  C  961  1  0.68989500  0.52180300  0.78729400  1
  C  962  1  0.66422500  0.51156700  0.79709100  1
  C  963  1  0.66344600  0.49078900  0.79766800  1
  C  964  1  0.68890400  0.47988300  0.78811100  1
  C  965  1  0.71538600  0.48996300  0.77851800  1
  C  967  1  0.71541600  0.51077000  0.77811700  1
  C  977  1  0.68984500  0.48104900  0.33857800  1
  C  978  1  0.66417900  0.49127000  0.32876200  1
  C  979  1  0.66338100  0.51204700  0.32817600  1
  C  980  1  0.68880900  0.52296900  0.33774400  1
  C  981  1  0.71528500  0.51290200  0.34735500  1
  C  983  1  0.71533500  0.49209500  0.34776500  1
  C  993  1  0.68990500  0.27707200  0.58331600  1
  C  994  1  0.66426000  0.26725600  0.57308000  1
  C  995  1  0.66348600  0.26667800  0.55230300  1
  C  996  1  0.68892400  0.27625300  0.54139600  1
  C  997  1  0.71538100  0.28586900  0.55147900  1
  C  999  1  0.71540300  0.28627100  0.57228800  1
  C  1009  1  0.69001300  0.72583900  0.54254100  1
  C  1010  1  0.66430200  0.73560700  0.55276900  1
  C  1011  1  0.66350600  0.73618300  0.57354700  1
  C  1012  1  0.68898200  0.72665000  0.58446300  1
  C  1013  1  0.71550600  0.71709200  0.57439000  1
  C  1015  1  0.71555600  0.71669200  0.55358300  1
  C  1025  1  0.28292900  0.48100200  0.78729400  1
  C  1026  1  0.30860000  0.49123700  0.79709100  1
  C  1027  1  0.30937800  0.51201500  0.79766800  1
  C  1028  1  0.28392300  0.52292200  0.78811100  1
  C  1029  1  0.25743900  0.51284200  0.77851800  1
  C  1031  1  0.25741100  0.49203400  0.77811700  1
  C  1041  1  0.28298200  0.52175600  0.33857800  1
  C  1042  1  0.30864500  0.51153500  0.32876200  1
  C  1043  1  0.30944600  0.49075700  0.32817600  1
  C  1044  1  0.28401800  0.47983600  0.33774400  1
  C  1045  1  0.25754100  0.48990300  0.34735500  1
  C  1047  1  0.25748900  0.51071000  0.34776500  1
  C  1057  1  0.28291900  0.72573300  0.58331600  1
  C  1058  1  0.30856700  0.73554800  0.57308000  1
  C  1059  1  0.30933800  0.73612700  0.55230300  1
  C  1060  1  0.28390000  0.72655200  0.54139600  1
  C  1061  1  0.25744400  0.71693600  0.55147900  1
  C  1063  1  0.25742100  0.71653400  0.57228800  1
  C  1073  1  0.28281200  0.27696600  0.54254100  1
  C  1074  1  0.30852200  0.26719700  0.55276900  1
  C  1075  1  0.30931800  0.26662200  0.57354700  1
  C  1076  1  0.28384300  0.27615400  0.58446300  1
  C  1077  1  0.25731900  0.28571300  0.57439000  1
  C  1079  1  0.25726900  0.28611200  0.55358300  1
  C  1089  1  0.21637400  0.16014800  0.37962100  1
  C  1090  1  0.22843500  0.17826600  0.37258400  1
  C  1091  1  0.24588200  0.19148600  0.38495500  1
  C  1092  1  0.25206400  0.18627200  0.40476800  1
  C  1093  1  0.24004300  0.16809500  0.41213600  1
  C  1095  1  0.22261000  0.15520800  0.39943600  1
  C  1105  1  0.21637900  0.84288400  0.74606300  1
  C  1106  1  0.22846700  0.82476200  0.75307200  1
  C  1107  1  0.24591500  0.81156300  0.74067800  1
  C  1108  1  0.25206700  0.81680500  0.72086800  1
  C  1109  1  0.24001100  0.83498400  0.71352600  1
  C  1111  1  0.22258100  0.84784900  0.72625000  1
  C  1121  1  0.21644500  0.68447800  0.22147400  1
  C  1122  1  0.22848900  0.69151500  0.23959400  1
  C  1123  1  0.24593200  0.67914400  0.25281700  1
  C  1124  1  0.25211900  0.65933200  0.24760400  1
  C  1125  1  0.24010800  0.65196300  0.22942800  1
  C  1127  1  0.22268200  0.66466200  0.21653600  1
  C  1137  1  0.21649100  0.31804000  0.90415600  1
  C  1138  1  0.22857600  0.31104500  0.88603000  1
  C  1139  1  0.24603300  0.32344600  0.87284300  1
  C  1140  1  0.25219900  0.34324900  0.87810300  1
  C  1141  1  0.24015500  0.35057600  0.89629100  1
  C  1143  1  0.22271300  0.33784500  0.90914300  1
  C  1153  1  0.75645000  0.84265600  0.37962100  1
  C  1154  1  0.74438900  0.82453800  0.37258400  1
  C  1155  1  0.72694300  0.81131800  0.38495500  1
  C  1156  1  0.72076000  0.81653300  0.40476800  1
  C  1157  1  0.73278100  0.83470900  0.41213600  1
  C  1159  1  0.75021400  0.84759600  0.39943600  1
  C  1169  1  0.75644500  0.15992100  0.74606300  1
  C  1170  1  0.74435900  0.17804300  0.75307200  1
  C  1171  1  0.72691100  0.19124100  0.74067800  1
  C  1172  1  0.72075800  0.18600000  0.72086800  1
  C  1173  1  0.73281400  0.16782100  0.71352600  1
  C  1175  1  0.75024400  0.15495600  0.72625000  1
  C  1185  1  0.75638000  0.31832700  0.22147400  1
  C  1186  1  0.74433700  0.31129000  0.23959400  1
  C  1187  1  0.72689300  0.32366000  0.25281700  1
  C  1188  1  0.72070500  0.34347200  0.24760400  1
  C  1189  1  0.73271600  0.35084200  0.22942800  1
  C  1191  1  0.75014200  0.33814300  0.21653600  1
  C  1201  1  0.75633500  0.68476400  0.90415600  1
  C  1202  1  0.74424900  0.69176000  0.88603000  1
  C  1203  1  0.72679100  0.67935900  0.87284300  1
  C  1204  1  0.72062500  0.65955600  0.87810300  1
  C  1205  1  0.73267100  0.65222800  0.89629100  1
  C  1207  1  0.75011200  0.66496000  0.90914300  1
  C  1217  1  0.75766100  0.84414300  0.74440400  1
  C  1218  1  0.74620300  0.82587100  0.75139100  1
  C  1219  1  0.72791200  0.81286400  0.73921300  1
  C  1220  1  0.72027700  0.81846600  0.71968400  1
  C  1221  1  0.73165000  0.83680400  0.71237500  1
  C  1223  1  0.74992400  0.84947300  0.72487400  1
  C  1233  1  0.75762300  0.15861600  0.38144100  1
  C  1234  1  0.74613800  0.17688800  0.37447400  1
  C  1235  1  0.72785700  0.18988300  0.38666900  1
  C  1236  1  0.72026200  0.18427100  0.40620200  1
  C  1237  1  0.73166800  0.16593300  0.41349400  1
  C  1239  1  0.74993200  0.15327600  0.40097600  1
  C  1249  1  0.75772400  0.31996100  0.90570600  1
  C  1250  1  0.74626300  0.31298000  0.88743300  1
  C  1251  1  0.72799200  0.32516500  0.87442400  1
  C  1252  1  0.72038200  0.34469800  0.88002200  1
  C  1253  1  0.73176300  0.35200300  0.89836000  1
  C  1255  1  0.75001900  0.33949700  0.91103100  1
  C  1265  1  0.75768900  0.68293100  0.22019300  1
  C  1266  1  0.74622100  0.68988200  0.23847600  1
  C  1267  1  0.72792700  0.67768100  0.25145600  1
  C  1268  1  0.72029700  0.65816100  0.24581600  1
  C  1269  1  0.73168000  0.65088600  0.22746600  1
  C  1271  1  0.74995900  0.66341100  0.21482500  1
  C  1281  1  0.21516500  0.15866100  0.74440400  1
  C  1282  1  0.22662100  0.17693300  0.75139100  1
  C  1283  1  0.24491200  0.18994000  0.73921300  1
  C  1284  1  0.25254700  0.18433800  0.71968400  1
  C  1285  1  0.24117400  0.16600000  0.71237500  1
  C  1287  1  0.22290100  0.15333200  0.72487400  1
  C  1297  1  0.21520200  0.84418900  0.38144100  1
  C  1298  1  0.22668800  0.82591700  0.37447400  1
  C  1299  1  0.24496700  0.81292100  0.38666900  1
  C  1300  1  0.25256200  0.81853400  0.40620200  1
  C  1301  1  0.24115600  0.83687200  0.41349400  1
  C  1303  1  0.22289400  0.84952800  0.40097600  1
  C  1313  1  0.21510100  0.68284400  0.90570600  1
  C  1314  1  0.22656100  0.68982500  0.88743300  1
  C  1315  1  0.24483200  0.67764000  0.87442400  1
  C  1316  1  0.25244200  0.65810700  0.88002200  1
  C  1317  1  0.24106300  0.65080100  0.89836000  1
  C  1319  1  0.22280700  0.66330800  0.91103100  1
  C  1329  1  0.21513600  0.31987400  0.22019300  1
  C  1330  1  0.22660400  0.31292300  0.23847600  1
  C  1331  1  0.24489900  0.32512400  0.25145600  1
  C  1332  1  0.25252700  0.34464400  0.24581600  1
  C  1333  1  0.24114500  0.35191800  0.22746600  1
  C  1335  1  0.22286600  0.33939400  0.21482500  1
  C  1345  1  0.19761000  0.16741100  0.19958600  1
  C  1346  1  0.17342300  0.16726300  0.21467000  1
  C  1347  1  0.17327500  0.15246300  0.22922800  1
  C  1348  1  0.19803000  0.13756500  0.22867900  1
  C  1349  1  0.22200700  0.13723300  0.21334900  1
  C  1351  1  0.22137200  0.15215500  0.19884000  1
  C  1361  1  0.19776500  0.83537300  0.92619500  1
  C  1362  1  0.17403100  0.83532500  0.91086200  1
  C  1363  1  0.17391300  0.85014300  0.89632500  1
  C  1364  1  0.19824000  0.86527400  0.89714400  1
  C  1365  1  0.22170900  0.86581700  0.91273400  1
  C  1367  1  0.22105000  0.85086400  0.92721400  1
  C  1377  1  0.19770700  0.86473900  0.22891700  1
  C  1378  1  0.17394900  0.84942000  0.22897300  1
  C  1379  1  0.17381200  0.83487400  0.21416400  1
  C  1380  1  0.19814600  0.83566800  0.19903500  1
  C  1381  1  0.22163300  0.85124700  0.19848000  1
  C  1383  1  0.22099400  0.86573800  0.21342400  1
  C  1393  1  0.19750400  0.13815600  0.89685500  1
  C  1394  1  0.17309100  0.15311500  0.89712100  1
  C  1395  1  0.17294000  0.16767500  0.91191800  1
  C  1396  1  0.19791700  0.16725700  0.92668800  1
  C  1397  1  0.22215200  0.15206500  0.92689200  1
  C  1399  1  0.22151600  0.13754700  0.91198100  1
  C  1409  1  0.77521400  0.83539400  0.19958600  1
  C  1410  1  0.79940100  0.83554200  0.21467000  1
  C  1411  1  0.79954900  0.85034200  0.22922800  1
  C  1412  1  0.77479400  0.86524000  0.22867900  1
  C  1413  1  0.75081700  0.86557200  0.21334900  1
  C  1415  1  0.75145300  0.85065000  0.19884000  1
  C  1425  1  0.77505900  0.16743200  0.92619500  1
  C  1426  1  0.79879300  0.16748000  0.91086200  1
  C  1427  1  0.79891100  0.15266100  0.89632500  1
  C  1428  1  0.77458600  0.13753100  0.89714400  1
  C  1429  1  0.75111500  0.13698700  0.91273400  1
  C  1431  1  0.75177600  0.15194000  0.92721400  1
  C  1441  1  0.77511700  0.13806500  0.22891700  1
  C  1442  1  0.79887600  0.15338500  0.22897300  1
  C  1443  1  0.79901300  0.16793100  0.21416400  1
  C  1444  1  0.77467900  0.16713700  0.19903500  1
  C  1445  1  0.75119300  0.15155700  0.19848000  1
  C  1447  1  0.75183100  0.13706800  0.21342400  1
  C  1457  1  0.77532200  0.86464800  0.89685500  1
  C  1458  1  0.79973400  0.84969000  0.89712100  1
  C  1459  1  0.79988600  0.83512900  0.91191800  1
  C  1460  1  0.77490900  0.83554800  0.92668800  1
  C  1461  1  0.75067200  0.85073900  0.92689200  1
  C  1463  1  0.75131000  0.86525700  0.91198100  1
  C  1473  1  0.69712400  0.66700300  0.69946400  1
  C  1474  1  0.67291500  0.66684200  0.71453300  1
  C  1475  1  0.67278700  0.65204600  0.72909500  1
  C  1476  1  0.69758000  0.63717300  0.72855900  1
  C  1477  1  0.72160600  0.63686600  0.71325400  1
  C  1479  1  0.72095300  0.65178300  0.69874000  1
  C  1489  1  0.69727400  0.33579800  0.42634800  1
  C  1490  1  0.67331800  0.33586200  0.41113700  1
  C  1491  1  0.67320800  0.35067800  0.39659800  1
  C  1492  1  0.69776000  0.36568300  0.39729800  1
  C  1493  1  0.72149900  0.36610000  0.41275300  1
  C  1495  1  0.72083300  0.35115600  0.42723900  1
  C  1505  1  0.69722900  0.36488300  0.72848700  1
  C  1506  1  0.67332000  0.34964500  0.72846200  1
  C  1507  1  0.67319800  0.33510300  0.71365200  1
  C  1508  1  0.69768700  0.33582000  0.69861100  1
  C  1509  1  0.72136600  0.35130600  0.69815000  1
  C  1511  1  0.72071300  0.36579700  0.71309100  1
  C  1521  1  0.69695400  0.63803000  0.39724400  1
  C  1522  1  0.67255000  0.65299000  0.39751400  1
  C  1523  1  0.67243400  0.66756000  0.41230200  1
  C  1524  1  0.69743900  0.66714300  0.42705500  1
  C  1525  1  0.72168900  0.65195700  0.42724600  1
  C  1527  1  0.72101800  0.63743000  0.41234200  1
  C  1537  1  0.27570000  0.33580100  0.69946400  1
  C  1538  1  0.29991000  0.33596300  0.71453300  1
  C  1539  1  0.30004000  0.35075800  0.72909500  1
  C  1540  1  0.27524700  0.36563200  0.72855900  1
  C  1541  1  0.25121800  0.36593800  0.71325600  1
  C  1543  1  0.25187100  0.35102100  0.69874000  1
  C  1553  1  0.27555000  0.66700600  0.42634800  1
  C  1554  1  0.29950700  0.66694300  0.41113700  1
  C  1555  1  0.29961700  0.65212700  0.39659800  1
  C  1556  1  0.27506500  0.63712200  0.39729800  1
  C  1557  1  0.25132600  0.63670500  0.41275300  1
  C  1559  1  0.25199400  0.65164800  0.42723900  1
  C  1569  1  0.27559500  0.63792200  0.72848700  1
  C  1570  1  0.29950400  0.65315900  0.72846200  1
  C  1571  1  0.29962900  0.66770200  0.71365200  1
  C  1572  1  0.27513700  0.66698400  0.69861100  1
  C  1573  1  0.25146100  0.65149900  0.69815000  1
  C  1575  1  0.25211200  0.63700700  0.71309100  1
  C  1585  1  0.27587000  0.36477400  0.39724400  1
  C  1586  1  0.30027500  0.34981400  0.39751400  1
  C  1587  1  0.30039000  0.33524600  0.41230200  1
  C  1588  1  0.27538800  0.33566200  0.42705500  1
  C  1589  1  0.25113600  0.35084800  0.42724600  1
  C  1591  1  0.25180600  0.36537500  0.41234200  1
  C  1601  1  0.02336300  0.11783000  0.35094300  1
  C  1602  1  0.00505200  0.11967200  0.33333333  1
  C  1603  1  0.96970400  0.11999900  0.33338500  1
  C  1604  1  0.95244900  0.11833700  0.35150000  1
  C  1605  1  0.97047000  0.11710900  0.36936800  1
  C  1607  1  0.00590400  0.11697300  0.36888000  1
  C  1617  1  0.02337800  0.88506600  0.77483800  1
  C  1618  1  0.00505600  0.88324900  0.79244900  1
  C  1619  1  0.96970900  0.88291300  0.79238600  1
  C  1620  1  0.95246900  0.88454200  0.77426400  1
  C  1621  1  0.97050000  0.88574600  0.75639700  1
  C  1623  1  0.00593400  0.88589000  0.75689500  1
  C  1633  1  0.02348100  0.71325100  0.17930300  1
  C  1634  1  0.00523200  0.73088300  0.18117400  1
  C  1635  1  0.96988700  0.73086700  0.18153100  1
  C  1636  1  0.95256900  0.71277100  0.17986600  1
  C  1637  1  0.97053000  0.69488400  0.17861000  1
  C  1639  1  0.00596700  0.69533300  0.17844700  1
  C  1649  1  0.02338800  0.28936600  0.94644700  1
  C  1650  1  0.00504400  0.27176900  0.94455100  1
  C  1651  1  0.96969700  0.27184500  0.94423600  1
  C  1652  1  0.95247100  0.28996300  0.94596600  1
  C  1653  1  0.97052200  0.30781800  0.94724900  1
  C  1655  1  0.00595800  0.30730900  0.94737200  1
  C  1665  1  0.94946100  0.88497400  0.35094300  1
  C  1666  1  0.96777200  0.88313300  0.33333333  1
  C  1667  1  0.00312100  0.88280600  0.33338500  1
  C  1668  1  0.02037700  0.88446700  0.35150000  1
  C  1669  1  0.00235600  0.88569600  0.36936800  1
  C  1671  1  0.96692200  0.88583100  0.36888000  1
  C  1681  1  0.94944600  0.11773900  0.77483800  1
  C  1682  1  0.96777000  0.11955600  0.79244900  1
  C  1683  1  0.00311600  0.11989100  0.79238600  1
  C  1684  1  0.02035700  0.11826200  0.77426400  1
  C  1685  1  0.00232500  0.11705800  0.75639700  1
  C  1687  1  0.96689200  0.11691500  0.75689500  1
  C  1697  1  0.94934300  0.28955400  0.17930300  1
  C  1698  1  0.96759200  0.27192200  0.18117400  1
  C  1699  1  0.00293900  0.27193800  0.18153100  1
  C  1700  1  0.02025500  0.29003400  0.17986600  1
  C  1701  1  0.00229400  0.30792100  0.17861000  1
  C  1703  1  0.96685900  0.30747200  0.17844700  1
  C  1713  1  0.94943600  0.71343900  0.94644700  1
  C  1714  1  0.96778200  0.73103600  0.94455100  1
  C  1715  1  0.00312800  0.73095900  0.94423500  1
  C  1716  1  0.02035300  0.71284100  0.94596600  1
  C  1717  1  0.00230200  0.69498700  0.94724900  1
  C  1719  1  0.96686700  0.69549600  0.94737200  1
  C  1729  1  0.52324500  0.61780600  0.85048400  1
  C  1730  1  0.50492400  0.61881700  0.83280800  1
  C  1731  1  0.46957700  0.61922000  0.83285800  1
  C  1732  1  0.45233400  0.61846100  0.85103600  1
  C  1733  1  0.47036500  0.61800300  0.86893800  1
  C  1735  1  0.50580000  0.61778500  0.86844500  1
  C  1745  1  0.52328500  0.38508100  0.27529400  1
  C  1746  1  0.50493900  0.38407400  0.29296100  1
  C  1747  1  0.46959200  0.38367000  0.29289200  1
  C  1748  1  0.45237900  0.38442200  0.27470700  1
  C  1749  1  0.47043300  0.38487700  0.25681400  1
  C  1751  1  0.50586700  0.38509700  0.25732300  1
  C  1761  1  0.52335000  0.21372500  0.67928700  1
  C  1762  1  0.50508900  0.23142300  0.68029800  1
  C  1763  1  0.46974200  0.23141000  0.68072700  1
  C  1764  1  0.45244400  0.21324900  0.67999600  1
  C  1765  1  0.47041500  0.19532800  0.67954200  1
  C  1767  1  0.50585200  0.19578200  0.67929700  1
  C  1777  1  0.52331300  0.78888700  0.44644300  1
  C  1778  1  0.50495900  0.77122300  0.44539500  1
  C  1779  1  0.46961200  0.77129500  0.44500800  1
  C  1780  1  0.45239900  0.78947900  0.44582000  1
  C  1781  1  0.47045800  0.80736900  0.44631200  1
  C  1783  1  0.50589200  0.80685700  0.44651600  1
  C  1793  1  0.44957900  0.38499900  0.85048400  1
  C  1794  1  0.46790100  0.38398700  0.83280800  1
  C  1795  1  0.50325000  0.38358500  0.83285800  1
  C  1796  1  0.52049000  0.38434400  0.85103600  1
  C  1797  1  0.50245900  0.38480200  0.86893800  1
  C  1799  1  0.46702500  0.38501900  0.86844500  1
  C  1809  1  0.44953900  0.61772400  0.27529400  1
  C  1810  1  0.46788600  0.61873100  0.29296100  1
  C  1811  1  0.50323200  0.61913500  0.29289200  1
  C  1812  1  0.52044500  0.61838300  0.27470700  1
  C  1813  1  0.50239200  0.61792800  0.25681400  1
  C  1815  1  0.46695700  0.61770800  0.25732300  1
  C  1825  1  0.44947400  0.78908000  0.67928700  1
  C  1826  1  0.46773500  0.77138200  0.68029800  1
  C  1827  1  0.50308200  0.77139500  0.68072700  1
  C  1828  1  0.52038300  0.78955500  0.67999600  1
  C  1829  1  0.50240900  0.80747600  0.67954200  1
  C  1831  1  0.46697500  0.80702300  0.67929700  1
  C  1841  1  0.44951400  0.21391700  0.44644300  1
  C  1842  1  0.46786600  0.23158100  0.44539500  1
  C  1843  1  0.50321200  0.23151000  0.44500800  1
  C  1844  1  0.52042800  0.21332600  0.44582000  1
  C  1845  1  0.50236700  0.19543600  0.44631200  1
  C  1847  1  0.46693200  0.19594800  0.44651600  1
  N  841  1  0.13802400  0.98091400  0.30748800  1
  N  842  1  0.24198000  0.97941900  0.26954000  1
  N  847  1  0.18957100  0.04164200  0.28803000  1
  N  848  1  0.18834900  0.96067300  0.28970900  1
  N  857  1  0.13802500  0.02193700  0.81833900  1
  N  858  1  0.24190200  0.02345500  0.85636200  1
  N  863  1  0.18956200  0.96122400  0.83783900  1
  N  864  1  0.18829200  0.04219300  0.83615000  1
  N  873  1  0.13807800  0.75685200  0.04241800  1
  N  874  1  0.24197400  0.79486100  0.04093200  1
  N  879  1  0.18959200  0.77632300  0.10314500  1
  N  880  1  0.18837000  0.77465600  0.02217900  1
  N  889  1  0.13803500  0.24599100  0.08342700  1
  N  890  1  0.24208800  0.20813500  0.08494100  1
  N  895  1  0.18966000  0.22656600  0.02270600  1
  N  896  1  0.18838000  0.22824300  0.10368000  1
  N  905  1  0.83480000  0.02189100  0.30748800  1
  N  906  1  0.73084400  0.02338500  0.26954000  1
  N  911  1  0.78325400  0.96116200  0.28803000  1
  N  912  1  0.78447500  0.04213200  0.28970900  1
  N  921  1  0.83480000  0.98086700  0.81833900  1
  N  922  1  0.73092200  0.97934900  0.85636200  1
  N  927  1  0.78326200  0.04158100  0.83783900  1
  N  928  1  0.78453300  0.96061200  0.83615000  1
  N  937  1  0.83474500  0.24595300  0.04241800  1
  N  938  1  0.73085200  0.20794400  0.04093200  1
  N  943  1  0.78323400  0.22648100  0.10314500  1
  N  944  1  0.78445500  0.22814900  0.02217900  1
  N  953  1  0.83479000  0.75681400  0.08342700  1
  N  954  1  0.73073700  0.79467000  0.08494100  1
  N  959  1  0.78316400  0.77623800  0.02270600  1
  N  960  1  0.78444500  0.77456200  0.10368000  1
  N  969  1  0.63759800  0.48063800  0.80766000  1
  N  970  1  0.74198900  0.47910900  0.77014100  1
  N  975  1  0.68935500  0.54136100  0.78831800  1
  N  976  1  0.68813600  0.46038400  0.79005000  1
  N  985  1  0.63753600  0.52218500  0.31816200  1
  N  986  1  0.74186400  0.52376900  0.35574100  1
  N  991  1  0.68933000  0.46149100  0.33755600  1
  N  992  1  0.68801600  0.54246600  0.33579300  1
  N  1001  1  0.63766100  0.25666400  0.54214900  1
  N  1002  1  0.74197200  0.29426500  0.54062800  1
  N  1007  1  0.68937000  0.27603500  0.60287300  1
  N  1008  1  0.68815600  0.27430700  0.52189700  1
  N  1017  1  0.63761800  0.74614500  0.58369300  1
  N  1018  1  0.74212700  0.70874100  0.58525100  1
  N  1023  1  0.68947500  0.72684700  0.52298200  1
  N  1024  1  0.68818400  0.72857800  0.60396200  1
  N  1033  1  0.33522600  0.52216700  0.80766000  1
  N  1034  1  0.23083400  0.52369500  0.77014100  1
  N  1039  1  0.28347000  0.46144400  0.78831800  1
  N  1040  1  0.28469100  0.54242100  0.79005000  1
  N  1049  1  0.33528900  0.48062000  0.31816200  1
  N  1050  1  0.23096000  0.47903600  0.35574100  1
  N  1055  1  0.28349500  0.54131400  0.33755600  1
  N  1056  1  0.28480800  0.46033800  0.33579300  1
  N  1065  1  0.33516400  0.74614100  0.54214900  1
  N  1066  1  0.23085300  0.70854000  0.54062800  1
  N  1071  1  0.28345500  0.72676900  0.60287300  1
  N  1072  1  0.28467100  0.72849700  0.52189700  1
  N  1081  1  0.33520900  0.25665900  0.58369300  1
  N  1082  1  0.23069700  0.29406300  0.58525100  1
  N  1087  1  0.28335200  0.27595700  0.52298200  1
  N  1088  1  0.28464100  0.27422700  0.60396200  1
  N  1097  1  0.25762900  0.20979100  0.37790500  1
  N  1098  1  0.24527900  0.16329700  0.43212400  1
  N  1103  1  0.19987300  0.14863900  0.36705400  1
  N  1104  1  0.26821900  0.19903700  0.41622400  1
  N  1113  1  0.25769200  0.79325500  0.74770100  1
  N  1114  1  0.24520400  0.83980700  0.69353900  1
  N  1119  1  0.19987400  0.85436700  0.75865200  1
  N  1120  1  0.26822900  0.80405900  0.70939300  1
  N  1129  1  0.25766700  0.68619700  0.27112500  1
  N  1130  1  0.24534300  0.63197300  0.22463100  1
  N  1135  1  0.19994000  0.69704600  0.20996500  1
  N  1136  1  0.26827600  0.64788000  0.26037400  1
  N  1145  1  0.25779900  0.31643900  0.85452700  1
  N  1146  1  0.24537000  0.37055600  0.90113300  1
  N  1151  1  0.19996300  0.30544900  0.91562800  1
  N  1152  1  0.26835100  0.35473500  0.86536300  1
  N  1161  1  0.71519500  0.79301400  0.37790500  1
  N  1162  1  0.72754600  0.83950700  0.43212400  1
  N  1167  1  0.77295200  0.85416600  0.36705400  1
  N  1168  1  0.70460600  0.80376800  0.41622400  1
  N  1177  1  0.71513500  0.20955000  0.74770100  1
  N  1178  1  0.72762200  0.16299800  0.69353900  1
  N  1183  1  0.77295000  0.14843700  0.75865200  1
  N  1184  1  0.70459600  0.19874600  0.70939300  1
  N  1193  1  0.71515800  0.31660800  0.27112500  1
  N  1194  1  0.72748100  0.37083200  0.22463100  1
  N  1199  1  0.77288500  0.30575800  0.20996500  1
  N  1200  1  0.70454800  0.35492500  0.26037400  1
  N  1209  1  0.71502800  0.68636600  0.85452700  1
  N  1210  1  0.72745600  0.63224900  0.90113300  1
  N  1215  1  0.77286200  0.69735600  0.91562800  1
  N  1216  1  0.70447300  0.64806900  0.86536300  1
  N  1225  1  0.71674200  0.79440400  0.74617500  1
  N  1226  1  0.72488700  0.84199000  0.69264100  1
  N  1231  1  0.77500700  0.85547700  0.75673300  1
  N  1232  1  0.70331200  0.80597000  0.70834900  1
  N  1241  1  0.71665900  0.20834200  0.37972200  1
  N  1242  1  0.72495400  0.16073600  0.43323100  1
  N  1247  1  0.77496400  0.14729800  0.36909300  1
  N  1248  1  0.70330700  0.19676400  0.41754900  1
  N  1257  1  0.71681700  0.31820600  0.85596400  1
  N  1258  1  0.72502200  0.37174000  0.90354400  1
  N  1263  1  0.77504700  0.30761700  0.91703900  1
  N  1264  1  0.70342000  0.35603600  0.86752300  1
  N  1273  1  0.71674400  0.68460600  0.26992700  1
  N  1274  1  0.72491900  0.63116300  0.22224100  1
  N  1279  1  0.77504700  0.69528000  0.20888800  1
  N  1280  1  0.70332700  0.64680100  0.25828800  1
  N  1289  1  0.25608300  0.20840000  0.74617500  1
  N  1290  1  0.24793800  0.16081300  0.69264100  1
  N  1295  1  0.19781900  0.14732800  0.75673300  1
  N  1296  1  0.26951200  0.19683500  0.70834900  1
  N  1305  1  0.25616500  0.79446300  0.37972200  1
  N  1306  1  0.24787000  0.84206900  0.43323100  1
  N  1311  1  0.19786200  0.85550600  0.36909300  1
  N  1312  1  0.26951700  0.80604000  0.41754900  1
  N  1321  1  0.25601000  0.68459800  0.85596400  1
  N  1322  1  0.24780400  0.63106400  0.90354400  1
  N  1327  1  0.19777800  0.69518800  0.91703900  1
  N  1328  1  0.26940500  0.64676800  0.86752300  1
  N  1337  1  0.25608000  0.31819900  0.26992700  1
  N  1338  1  0.24790700  0.37164200  0.22224100  1
  N  1343  1  0.19777900  0.30752400  0.20888800  1
  N  1344  1  0.26949700  0.35600400  0.25828800  1
  N  1353  1  0.14884700  0.15215500  0.24428900  1
  N  1354  1  0.24607700  0.12200800  0.21304100  1
  N  1359  1  0.19676400  0.18107300  0.18563500  1
  N  1360  1  0.19752600  0.12353700  0.24226900  1
  N  1369  1  0.14989300  0.85025800  0.88103700  1
  N  1370  1  0.24533000  0.88127400  0.91332600  1
  N  1375  1  0.19688700  0.82170500  0.94014800  1
  N  1376  1  0.19777600  0.87933600  0.88358500  1
  N  1385  1  0.14975800  0.81960300  0.21405700  1
  N  1386  1  0.24526000  0.85181600  0.18302600  1
  N  1391  1  0.19684700  0.87868900  0.24258600  1
  N  1392  1  0.19768400  0.82209300  0.18498400  1
  N  1401  1  0.14832100  0.18262600  0.91233500  1
  N  1402  1  0.24644800  0.15188900  0.94199500  1
  N  1407  1  0.19668000  0.12419800  0.88320100  1
  N  1408  1  0.19737600  0.18085300  0.94070400  1
  N  1417  1  0.82397800  0.85065000  0.24428900  1
  N  1418  1  0.72674800  0.88079600  0.21304100  1
  N  1423  1  0.77606000  0.82173100  0.18563500  1
  N  1424  1  0.77529900  0.87926700  0.24226900  1
  N  1433  1  0.82293200  0.15254700  0.88103700  1
  N  1434  1  0.72749600  0.12153000  0.91332600  1
  N  1439  1  0.77593700  0.18110000  0.94014800  1
  N  1440  1  0.77504900  0.12346800  0.88358500  1
  N  1449  1  0.82306700  0.18320000  0.21405700  1
  N  1450  1  0.72756400  0.15098900  0.18302600  1
  N  1455  1  0.77597700  0.12411600  0.24258600  1
  N  1456  1  0.77513900  0.18071200  0.18498400  1
  N  1465  1  0.82450400  0.82017800  0.91233500  1
  N  1466  1  0.72637500  0.85091600  0.94199500  1
  N  1471  1  0.77614500  0.87860700  0.88320100  1
  N  1472  1  0.77544900  0.82195000  0.94070300  1
  N  1481  1  0.64838000  0.65174200  0.74417100  1
  N  1482  1  0.74572000  0.62166700  0.71297100  1
  N  1487  1  0.69625600  0.68070500  0.68555800  1
  N  1488  1  0.69705900  0.62318500  0.74218300  1
  N  1497  1  0.64903300  0.35088500  0.38139300  1
  N  1498  1  0.74536500  0.38143100  0.41320500  1
  N  1503  1  0.69640300  0.32208600  0.44025000  1
  N  1504  1  0.69727400  0.37969900  0.38369800  1
  N  1513  1  0.64905300  0.31988000  0.71348200  1
  N  1514  1  0.74517000  0.35177900  0.68278800  1
  N  1519  1  0.69636800  0.37877800  0.74220300  1
  N  1520  1  0.69721700  0.32220800  0.68460300  1
  N  1529  1  0.64786700  0.68254000  0.41270500  1
  N  1530  1  0.74601100  0.65178600  0.44233400  1
  N  1535  1  0.69609300  0.62411600  0.38355300  1
  N  1536  1  0.69689400  0.68077700  0.44102800  1
  N  1545  1  0.32444400  0.35106200  0.74417100  1
  N  1546  1  0.22710500  0.38113800  0.71297100  1
  N  1551  1  0.27656900  0.32210000  0.68555800  1
  N  1552  1  0.27576500  0.37962000  0.74218300  1
  N  1561  1  0.32379100  0.65192000  0.38139300  1
  N  1562  1  0.22746000  0.62137300  0.41320500  1
  N  1567  1  0.27642300  0.68071800  0.44025000  1
  N  1568  1  0.27555000  0.62310600  0.38369800  1
  N  1577  1  0.32377100  0.68292500  0.71348200  1
  N  1578  1  0.22765500  0.65102600  0.68278800  1
  N  1583  1  0.27645600  0.62402600  0.74220300  1
  N  1584  1  0.27561000  0.68059600  0.68460300  1
  N  1593  1  0.32496000  0.32026500  0.41270600  1
  N  1594  1  0.22681500  0.35101700  0.44233400  1
  N  1599  1  0.27673100  0.37868900  0.38355300  1
  N  1600  1  0.27593300  0.32202800  0.44102800  1
  N  1609  1  0.95123700  0.12219600  0.31577400  1
  N  1610  1  0.95252900  0.11591800  0.38724200  1
  N  1615  1  0.05658600  0.11827200  0.35098700  1
  N  1616  1  0.91924600  0.11903400  0.35174800  1
  N  1625  1  0.95122700  0.88074100  0.80999300  1
  N  1626  1  0.95257400  0.88690500  0.73851700  1
  N  1631  1  0.05660000  0.88463300  0.77480100  1
  N  1632  1  0.91926900  0.88384600  0.77400700  1
  N  1641  1  0.95148300  0.74849600  0.18376400  1
  N  1642  1  0.95253100  0.67703000  0.17742100  1
  N  1647  1  0.05670200  0.71318400  0.17972100  1
  N  1648  1  0.91936900  0.71255800  0.18058700  1
  N  1657  1  0.95120200  0.25425200  0.94198400  1
  N  1658  1  0.95261400  0.32569600  0.94850400  1
  N  1663  1  0.05661200  0.28939300  0.94599500  1
  N  1664  1  0.91926900  0.29022600  0.94527700  1
  N  1673  1  0.02158700  0.88060800  0.31577400  1
  N  1674  1  0.02029500  0.88688700  0.38724200  1
  N  1679  1  0.91623900  0.88453200  0.35098700  1
  N  1680  1  0.05357900  0.88377200  0.35174800  1
  N  1689  1  0.02159900  0.12206400  0.80999300  1
  N  1690  1  0.02025100  0.11590000  0.73851700  1
  N  1695  1  0.91622600  0.11817100  0.77480100  1
  N  1696  1  0.05355700  0.11895900  0.77400700  1
  N  1705  1  0.02134200  0.25430900  0.18376400  1
  N  1706  1  0.02029300  0.32577400  0.17742100  1
  N  1711  1  0.91612300  0.28962100  0.17972100  1
  N  1712  1  0.05345700  0.29024600  0.18058700  1
  N  1721  1  0.02162400  0.74855300  0.94198400  1
  N  1722  1  0.02021200  0.67710800  0.94850400  1
  N  1727  1  0.91621400  0.71341100  0.94599500  1
  N  1728  1  0.05355600  0.71257900  0.94527700  1
  N  1737  1  0.45109800  0.62068200  0.81517500  1
  N  1738  1  0.45243400  0.61770000  0.88685000  1
  N  1743  1  0.55645300  0.61846500  0.85049400  1
  N  1744  1  0.41916700  0.61950500  0.85124300  1
  N  1753  1  0.45108500  0.38221400  0.31056600  1
  N  1754  1  0.45252700  0.38517300  0.23889300  1
  N  1759  1  0.55649000  0.38442800  0.27529800  1
  N  1760  1  0.41921400  0.38338100  0.27448400  1
  N  1769  1  0.45132800  0.24911500  0.68219700  1
  N  1770  1  0.45242700  0.17743500  0.67927100  1
  N  1775  1  0.55655800  0.21369100  0.67992500  1
  N  1776  1  0.41927700  0.21307800  0.68106500  1
  N  1785  1  0.45110800  0.75362400  0.44351000  1
  N  1786  1  0.45255400  0.82529000  0.44666400  1
  N  1791  1  0.55652000  0.78888100  0.44577300  1
  N  1792  1  0.41922900  0.78970200  0.44478800  1
  N  1801  1  0.52172600  0.38212300  0.81517500  1
  N  1802  1  0.52039000  0.38510400  0.88685000  1
  N  1807  1  0.41637200  0.38433900  0.85049400  1
  N  1808  1  0.55365800  0.38330000  0.85124300  1
  N  1817  1  0.52174100  0.62059100  0.31056600  1
  N  1818  1  0.52029800  0.61763100  0.23889300  1
  N  1823  1  0.41633400  0.61837700  0.27529800  1
  N  1824  1  0.55361000  0.61942400  0.27448400  1
  N  1833  1  0.52149600  0.75369000  0.68219700  1
  N  1834  1  0.52039800  0.82536900  0.67927100  1
  N  1839  1  0.41626700  0.78911300  0.67992500  1
  N  1840  1  0.55354800  0.78972700  0.68106500  1
  N  1849  1  0.52171600  0.24918100  0.44351000  1
  N  1850  1  0.52027000  0.17751400  0.44666400  1
  N  1855  1  0.41630400  0.21392300  0.44577300  1
  N  1856  1  0.55359500  0.21310300  0.44478800  1
  O  843  1  0.13785200  0.98508200  0.32545900  1
  O  844  1  0.24433500  0.98268100  0.25143400  1
  O  845  1  0.10972200  0.98475300  0.30042500  1
  O  846  1  0.26951700  0.98337000  0.27752400  1
  O  859  1  0.13789500  0.01776500  0.80036800  1
  O  860  1  0.24422300  0.02019700  0.87447000  1
  O  861  1  0.10971000  0.01809300  0.82538100  1
  O  862  1  0.26945700  0.01950800  0.84839800  1
  O  875  1  0.13793600  0.73888100  0.04658600  1
  O  876  1  0.24430000  0.81296800  0.04419500  1
  O  877  1  0.10976500  0.76389900  0.04625700  1
  O  878  1  0.26952200  0.78689200  0.04488400  1
  O  891  1  0.13782200  0.26396200  0.07926100  1
  O  892  1  0.24449300  0.19003100  0.08167600  1
  O  893  1  0.10975400  0.23890400  0.07957900  1
  O  894  1  0.26960700  0.21614300  0.08099900  1
  O  907  1  0.83497300  0.01772300  0.32545900  1
  O  908  1  0.72849000  0.02012200  0.25143400  1
  O  909  1  0.86310300  0.01805100  0.30042500  1
  O  910  1  0.70330700  0.01943500  0.27752400  1
  O  923  1  0.83493000  0.98503900  0.80036800  1
  O  924  1  0.72860200  0.98260800  0.87447000  1
  O  925  1  0.86311600  0.98471200  0.82538100  1
  O  926  1  0.70336700  0.98329700  0.84839800  1
  O  939  1  0.83488800  0.26392400  0.04658600  1
  O  940  1  0.72852500  0.18983600  0.04419500  1
  O  941  1  0.86306100  0.23890600  0.04625700  1
  O  942  1  0.70330200  0.21591200  0.04488400  1
  O  955  1  0.83500300  0.73884300  0.07926100  1
  O  956  1  0.72833200  0.81277300  0.08167600  1
  O  957  1  0.86307100  0.76390000  0.07957900  1
  O  958  1  0.70321700  0.78666200  0.08099900  1
  O  971  1  0.63721000  0.48481400  0.82562800  1
  O  972  1  0.74455700  0.48236100  0.75204400  1
  O  973  1  0.60938300  0.48447500  0.80047800  1
  O  974  1  0.76943900  0.48305400  0.77823000  1
  O  987  1  0.63718500  0.51799900  0.30019700  1
  O  988  1  0.74440700  0.52052400  0.37384300  1
  O  989  1  0.60931300  0.51833800  0.32532900  1
  O  990  1  0.76933100  0.51982800  0.34766900  1
  O  1003  1  0.63731300  0.23869700  0.54632900  1
  O  1004  1  0.74449700  0.31236500  0.54387900  1
  O  1005  1  0.60943000  0.26382500  0.54598500  1
  O  1006  1  0.76943700  0.28619600  0.54457700  1
  O  1019  1  0.63717500  0.76411300  0.57951800  1
  O  1020  1  0.74475400  0.69064700  0.58199600  1
  O  1021  1  0.60942800  0.73893400  0.57984500  1
  O  1022  1  0.76955400  0.71686100  0.58131500  1
  O  1035  1  0.33561700  0.51799000  0.82562800  1
  O  1036  1  0.22826900  0.52044300  0.75204400  1
  O  1037  1  0.36344200  0.51832900  0.80047800  1
  O  1038  1  0.20338500  0.51975100  0.77823000  1
  O  1051  1  0.33563900  0.48480600  0.30019700  1
  O  1052  1  0.22841800  0.48228000  0.37384300  1
  O  1053  1  0.36351200  0.48446600  0.32532900  1
  O  1054  1  0.20349500  0.48297600  0.34766900  1
  O  1067  1  0.33551200  0.76410700  0.54632900  1
  O  1068  1  0.22832700  0.69044000  0.54387900  1
  O  1069  1  0.36339400  0.73897900  0.54598500  1
  O  1070  1  0.20338800  0.71660900  0.54457700  1
  O  1083  1  0.33564900  0.23869100  0.57951800  1
  O  1084  1  0.22807000  0.31215800  0.58199600  1
  O  1085  1  0.36339700  0.26387100  0.57984500  1
  O  1086  1  0.20327000  0.28594300  0.58131500  1
  O  1099  1  0.23391800  0.22038600  0.37203000  1
  O  1100  1  0.26214800  0.14782700  0.43389600  1
  O  1101  1  0.27808700  0.20758700  0.36407000  1
  O  1102  1  0.21803700  0.16115000  0.44108100  1
  O  1115  1  0.23399900  0.78264300  0.75357200  1
  O  1116  1  0.26204600  0.85528800  0.69177400  1
  O  1117  1  0.27816300  0.79545000  0.76153100  1
  O  1118  1  0.21794300  0.84194900  0.68460100  1
  O  1131  1  0.23394900  0.69206900  0.28171500  1
  O  1132  1  0.26221800  0.63020000  0.20916400  1
  O  1133  1  0.27812200  0.70003400  0.26892500  1
  O  1134  1  0.21810000  0.62301800  0.22248200  1
  O  1147  1  0.23409800  0.31058500  0.84391000  1
  O  1148  1  0.26221600  0.37230000  0.91661400  1
  O  1149  1  0.27825800  0.30260000  0.85670400  1
  O  1150  1  0.21811800  0.37950100  0.90328700  1
  O  1163  1  0.73890700  0.78241900  0.37203000  1
  O  1164  1  0.71067600  0.85497800  0.43389600  1
  O  1165  1  0.69473700  0.79521800  0.36407000  1
  O  1166  1  0.75478800  0.84165500  0.44108100  1
  O  1179  1  0.73882700  0.22016100  0.75357200  1
  O  1180  1  0.71077900  0.14751700  0.69177400  1
  O  1181  1  0.69466400  0.20735500  0.76153100  1
  O  1182  1  0.75488400  0.16085600  0.68460100  1
  O  1195  1  0.73887700  0.31073500  0.28171500  1
  O  1196  1  0.71060900  0.37260500  0.20916400  1
  O  1197  1  0.69470200  0.30277100  0.26892500  1
  O  1198  1  0.75472600  0.37978700  0.22248200  1
  O  1211  1  0.73872600  0.69221900  0.84391000  1
  O  1212  1  0.71060900  0.63050500  0.91661400  1
  O  1213  1  0.69456700  0.70020400  0.85670400  1
  O  1214  1  0.75470800  0.62330400  0.90328700  1
  O  1227  1  0.74088800  0.78373400  0.75124400  1
  O  1228  1  0.70780600  0.85744700  0.69162000  1
  O  1229  1  0.69729900  0.79630100  0.76054900  1
  O  1230  1  0.75141800  0.84439000  0.68303600  1
  O  1243  1  0.74079100  0.21902200  0.37464400  1
  O  1244  1  0.70789400  0.14527100  0.43425900  1
  O  1245  1  0.69719200  0.20644800  0.36536000  1
  O  1246  1  0.75151000  0.15834300  0.44281400  1
  O  1259  1  0.74095800  0.31312400  0.84529600  1
  O  1260  1  0.70793600  0.37276900  0.91900000  1
  O  1261  1  0.69735200  0.30384100  0.85786100  1
  O  1262  1  0.75156300  0.38133300  0.90594400  1
  O  1275  1  0.74088800  0.68965600  0.28061100  1
  O  1276  1  0.70784100  0.63017200  0.20678100  1
  O  1277  1  0.69730200  0.69898300  0.26805500  1
  O  1278  1  0.75145000  0.62156300  0.21982800  1
  O  1291  1  0.23193500  0.21907000  0.75124400  1
  O  1292  1  0.26502100  0.14535700  0.69162000  1
  O  1293  1  0.27552800  0.20650300  0.76054900  1
  O  1294  1  0.22140600  0.15841500  0.68303600  1
  O  1307  1  0.23203500  0.78378300  0.37464400  1
  O  1308  1  0.26493100  0.85753400  0.43425900  1
  O  1309  1  0.27563300  0.79635700  0.36536000  1
  O  1310  1  0.22131400  0.84446200  0.44281400  1
  O  1323  1  0.23186600  0.68968100  0.84529600  1
  O  1324  1  0.26488800  0.63003500  0.91900000  1
  O  1325  1  0.27547300  0.69896400  0.85786100  1
  O  1326  1  0.22126200  0.62147200  0.90594600  1
  O  1339  1  0.23193700  0.31314900  0.28061100  1
  O  1340  1  0.26498300  0.37263300  0.20678100  1
  O  1341  1  0.27552300  0.30382200  0.26805500  1
  O  1342  1  0.22137400  0.38124200  0.21982800  1
  O  1355  1  0.15016400  0.16741000  0.25463200  1
  O  1356  1  0.27524200  0.12876400  0.21439400  1
  O  1357  1  0.11984100  0.15057400  0.23734500  1
  O  1358  1  0.24402000  0.11206600  0.19755300  1
  O  1371  1  0.15188600  0.83503500  0.87068400  1
  O  1372  1  0.27472200  0.87480900  0.91228200  1
  O  1373  1  0.12066200  0.85157500  0.88770600  1
  O  1374  1  0.24250200  0.89116900  0.92880200  1
  O  1387  1  0.15172000  0.80926000  0.22928700  1
  O  1388  1  0.27464900  0.85076200  0.18949600  1
  O  1389  1  0.12054200  0.82629300  0.21272800  1
  O  1390  1  0.24245900  0.86728600  0.17311900  1
  O  1403  1  0.14930000  0.19296800  0.89707000  1
  O  1404  1  0.27549000  0.15339800  0.93509200  1
  O  1405  1  0.11943000  0.17555200  0.91404800  1
  O  1406  1  0.24477900  0.13639300  0.95195100  1
  O  1419  1  0.82266200  0.83539500  0.25463200  1
  O  1420  1  0.69758200  0.87404100  0.21439400  1
  O  1421  1  0.85298400  0.85223300  0.23734500  1
  O  1422  1  0.72880500  0.89073800  0.19755300  1
  O  1435  1  0.82093800  0.16776900  0.87068400  1
  O  1436  1  0.69810200  0.12799600  0.91228200  1
  O  1437  1  0.85216300  0.15123000  0.88770600  1
  O  1438  1  0.73032400  0.11163500  0.92880200  1
  O  1451  1  0.82110600  0.19354500  0.22928700  1
  O  1452  1  0.69817500  0.15204300  0.18949600  1
  O  1453  1  0.85228400  0.17651200  0.21272800  1
  O  1454  1  0.73036600  0.13551900  0.17311900  1
  O  1467  1  0.82352500  0.80983700  0.89707000  1
  O  1468  1  0.69733400  0.84940600  0.93509200  1
  O  1469  1  0.85339500  0.82725300  0.91405000  1
  O  1470  1  0.72804400  0.86641100  0.95195100  1
  O  1483  1  0.64971100  0.66700200  0.75450600  1
  O  1484  1  0.77486100  0.62845300  0.71434600  1
  O  1485  1  0.61936400  0.65015500  0.73724300  1
  O  1486  1  0.74372800  0.61171800  0.69748400  1
  O  1499  1  0.65074500  0.33564900  0.37104000  1
  O  1500  1  0.77463600  0.37480600  0.41199800  1
  O  1501  1  0.61989000  0.35231600  0.38816700  1
  O  1502  1  0.74294300  0.39134400  0.42869400  1
  O  1515  1  0.65084000  0.30953300  0.72871900  1
  O  1516  1  0.77447100  0.35060900  0.68937300  1
  O  1517  1  0.61989000  0.32663000  0.71208100  1
  O  1518  1  0.74265800  0.36726000  0.67287100  1
  O  1531  1  0.64888800  0.69287000  0.39743300  1
  O  1532  1  0.77504200  0.65329000  0.43541200  1
  O  1533  1  0.61895100  0.67550100  0.41441900  1
  O  1534  1  0.74435400  0.63629800  0.45229900  1
  O  1547  1  0.32311300  0.33580300  0.75450600  1
  O  1548  1  0.19796300  0.37435200  0.71434600  1
  O  1549  1  0.35346000  0.35264900  0.73724300  1
  O  1550  1  0.22909500  0.39108700  0.69748400  1
  O  1563  1  0.32207900  0.66715600  0.37104000  1
  O  1564  1  0.19818800  0.62799900  0.41199800  1
  O  1565  1  0.35293700  0.65048900  0.38816700  1
  O  1566  1  0.22988300  0.61146100  0.42869400  1
  O  1579  1  0.32198400  0.69327200  0.72871900  1
  O  1580  1  0.19835400  0.65219600  0.68937400  1
  O  1581  1  0.35293700  0.67617400  0.71208000  1
  O  1582  1  0.23016700  0.63554500  0.67287100  1
  O  1595  1  0.32393900  0.30993500  0.39743300  1
  O  1596  1  0.19778400  0.34951300  0.43541200  1
  O  1597  1  0.35387600  0.32730400  0.41441900  1
  O  1598  1  0.22847100  0.36650700  0.45229800  1
  O  1611  1  0.95696300  0.10837000  0.30403300  1
  O  1612  1  0.95888200  0.10020100  0.39615300  1
  O  1613  1  0.95792400  0.13815900  0.30740000  1
  O  1614  1  0.95938700  0.13008600  0.39834700  1
  O  1627  1  0.95693300  0.89458700  0.82171400  1
  O  1628  1  0.95892200  0.90260700  0.72958200  1
  O  1629  1  0.95791300  0.86479400  0.81839600  1
  O  1630  1  0.95944700  0.87272000  0.72743700  1
  O  1643  1  0.95721300  0.76024600  0.16994800  1
  O  1644  1  0.95881900  0.66812500  0.16169100  1
  O  1645  1  0.95823400  0.75684300  0.19973100  1
  O  1646  1  0.95938700  0.66590800  0.19157400  1
  O  1659  1  0.95692000  0.24246100  0.95577000  1
  O  1660  1  0.95899400  0.33455200  0.96424800  1
  O  1661  1  0.95785800  0.24592800  0.92599200  1
  O  1662  1  0.95947700  0.33684500  0.93437200  1
  O  1675  1  0.01586300  0.89443400  0.30403300  1
  O  1676  1  0.01394300  0.90260400  0.39615300  1
  O  1677  1  0.01490200  0.86464500  0.30740000  1
  O  1678  1  0.01343700  0.87271800  0.39834700  1
  O  1691  1  0.01589200  0.10821800  0.82171400  1
  O  1692  1  0.01390200  0.10019700  0.72958200  1
  O  1693  1  0.01491100  0.13801200  0.81839600  1
  O  1694  1  0.01337700  0.13008500  0.72743700  1
  O  1707  1  0.01561300  0.24255800  0.16994800  1
  O  1708  1  0.01400500  0.33468000  0.16169100  1
  O  1709  1  0.01459100  0.24596100  0.19973100  1
  O  1710  1  0.01343800  0.33689700  0.19157400  1
  O  1723  1  0.01590600  0.76034300  0.95577000  1
  O  1724  1  0.01383000  0.66825300  0.96424800  1
  O  1725  1  0.01496700  0.75687700  0.92599200  1
  O  1726  1  0.01334700  0.66595900  0.93437200  1
  O  1739  1  0.45670300  0.60633400  0.80405700  1
  O  1740  1  0.45868000  0.60239800  0.89647900  1
  O  1741  1  0.45788400  0.63624100  0.80609800  1
  O  1742  1  0.45941000  0.63235200  0.89728200  1
  O  1755  1  0.45667000  0.39656600  0.32168100  1
  O  1756  1  0.45878200  0.40047400  0.22926000  1
  O  1757  1  0.45785900  0.36665900  0.31965400  1
  O  1758  1  0.45952100  0.37052000  0.22846800  1
  O  1771  1  0.45693600  0.26022000  0.66783900  1
  O  1772  1  0.45861000  0.16778400  0.66397300  1
  O  1773  1  0.45817900  0.25819200  0.69774700  1
  O  1774  1  0.45940300  0.16701000  0.69392700  1
  O  1787  1  0.45671300  0.74246800  0.45782800  1
  O  1788  1  0.45883200  0.83488100  0.46198500  1
  O  1789  1  0.45786200  0.74458200  0.42792600  1
  O  1790  1  0.45953100  0.83575300  0.43203500  1
  O  1803  1  0.51612100  0.39647000  0.80405700  1
  O  1804  1  0.51414500  0.40040600  0.89647900  1
  O  1805  1  0.51494000  0.36656400  0.80609800  1
  O  1806  1  0.51341400  0.37045300  0.89728200  1
  O  1819  1  0.51615400  0.60623900  0.32168100  1
  O  1820  1  0.51404200  0.60233100  0.22926000  1
  O  1821  1  0.51496500  0.63614500  0.31965400  1
  O  1822  1  0.51330400  0.63228400  0.22846800  1
  O  1835  1  0.51588900  0.74258500  0.66783900  1
  O  1836  1  0.51421500  0.83502100  0.66397300  1
  O  1837  1  0.51464500  0.74461300  0.69774700  1
  O  1838  1  0.51342100  0.83579400  0.69392700  1
  O  1851  1  0.51611100  0.26033700  0.45782800  1
  O  1852  1  0.51399200  0.16792300  0.46198500  1
  O  1853  1  0.51496300  0.25822300  0.42792600  1
  O  1854  1  0.51329600  0.16705100  0.43203500  1
