# generated using pymatgen
data_H10C15N5O
_symmetry_space_group_name_H-M   'P 1'
_cell_length_a   53.79720000
_cell_length_b   53.79720000
_cell_length_c   53.79720000
_cell_angle_alpha   90.00000000
_cell_angle_beta   90.00000000
_cell_angle_gamma   90.00000000
_symmetry_Int_Tables_number   1
_chemical_formula_structural   H10C15N5O
_chemical_formula_sum   'H480 C720 N240 O48'
_cell_volume   155696.55996935
_cell_formula_units_Z   48
loop_
 _symmetry_equiv_pos_site_id
 _symmetry_equiv_pos_as_xyz
  1  'x, y, z'
loop_
 _atom_site_type_symbol
 _atom_site_label
 _atom_site_symmetry_multiplicity
 _atom_site_fract_x
 _atom_site_fract_y
 _atom_site_fract_z
 _atom_site_occupancy
  H  7  1  0.31054800  0.33609000  0.03472700  1
  H  16  1  0.33611200  0.31065000  0.96810000  1
  H  19  1  0.35841400  0.35338800  0.96360500  1
  H  20  1  0.34222000  0.37313300  0.94714400  1
  H  21  1  0.37298900  0.34222600  0.05580500  1
  H  22  1  0.35326000  0.35842500  0.03934300  1
  H  23  1  0.40891700  0.26496900  0.01942300  1
  H  24  1  0.39860000  0.25501300  0.99262000  1
  H  25  1  0.26484400  0.40891100  0.98345400  1
  H  26  1  0.25490300  0.39857400  0.01025400  1
  H  31  1  0.35694200  0.26203200  0.95896000  1
  H  32  1  0.31249900  0.40332600  0.94982400  1
  H  33  1  0.26161900  0.35707600  0.04358000  1
  H  34  1  0.40314500  0.31234700  0.05333600  1
  H  41  1  0.69259000  0.66623700  0.03438900  1
  H  50  1  0.66685200  0.69213400  0.96802000  1
  H  53  1  0.64490300  0.64936400  0.96302200  1
  H  54  1  0.66104700  0.62957000  0.94658400  1
  H  55  1  0.62925400  0.65879400  0.05466800  1
  H  56  1  0.64964100  0.64312800  0.03840400  1
  H  57  1  0.59337300  0.73609000  0.01989700  1
  H  58  1  0.60324300  0.74642100  0.99305700  1
  H  59  1  0.73820900  0.59337300  0.98309500  1
  H  60  1  0.74813100  0.60367000  0.00992100  1
  H  65  1  0.64530600  0.74103300  0.95991000  1
  H  66  1  0.69041700  0.59909200  0.94951000  1
  H  67  1  0.74160100  0.64513200  0.04313100  1
  H  68  1  0.59381100  0.69802800  0.04681800  1
  H  75  1  0.69244100  0.33619400  0.96818700  1
  H  84  1  0.66638900  0.31011300  0.03436700  1
  H  87  1  0.64359600  0.35321900  0.03872900  1
  H  88  1  0.65913100  0.37380200  0.05486600  1
  H  89  1  0.62868800  0.34367900  0.94785400  1
  H  90  1  0.64934800  0.35913200  0.96398300  1
  H  91  1  0.59277200  0.26631500  0.98253900  1
  H  92  1  0.60269600  0.25591700  0.00933800  1
  H  93  1  0.73649000  0.40964900  0.02003700  1
  H  94  1  0.74681200  0.39974200  0.99320200  1
  H  99  1  0.64502000  0.26162700  0.04289000  1
  H  100  1  0.69849300  0.40949900  0.04683200  1
  H  101  1  0.74119100  0.35761700  0.95989000  1
  H  102  1  0.59303200  0.30431300  0.95617600  1
  H  109  1  0.31036400  0.66694900  0.96835100  1
  H  118  1  0.33651000  0.69246300  0.03469800  1
  H  121  1  0.35948700  0.64948500  0.03858800  1
  H  122  1  0.34394100  0.62886300  0.05468500  1
  H  123  1  0.37278700  0.66104500  0.94668300  1
  H  124  1  0.35313300  0.64484700  0.96323200  1
  H  125  1  0.40901400  0.73825200  0.98302800  1
  H  126  1  0.39884000  0.74815700  0.00990500  1
  H  127  1  0.26676800  0.59293900  0.01978700  1
  H  128  1  0.25629400  0.60302500  0.99308300  1
  H  133  1  0.35731000  0.74130400  0.04356700  1
  H  134  1  0.30491000  0.59341300  0.04688500  1
  H  135  1  0.26202800  0.64555200  0.95960700  1
  H  136  1  0.40325500  0.69053600  0.94936900  1
  H  143  1  0.03473400  0.31056200  0.33614600  1
  H  152  1  0.96812200  0.33610500  0.31066500  1
  H  155  1  0.96360300  0.35842200  0.35342200  1
  H  156  1  0.94714700  0.34223100  0.37317500  1
  H  157  1  0.05579300  0.37299700  0.34231900  1
  H  158  1  0.03931900  0.35326500  0.35850000  1
  H  159  1  0.01946800  0.40890600  0.26500100  1
  H  160  1  0.99267600  0.39857800  0.25503000  1
  H  161  1  0.98342600  0.26486900  0.40894700  1
  H  162  1  0.01024000  0.25493100  0.39863900  1
  H  167  1  0.95901600  0.35693300  0.26203600  1
  H  168  1  0.94961800  0.31233400  0.40329800  1
  H  169  1  0.04363300  0.26167900  0.35711300  1
  H  170  1  0.05329400  0.40317300  0.31252400  1
  H  177  1  0.03430800  0.69235500  0.66649500  1
  H  186  1  0.96784500  0.66649500  0.69214200  1
  H  189  1  0.96376100  0.64353900  0.64925800  1
  H  190  1  0.94766400  0.65916800  0.62871800  1
  H  191  1  0.05567600  0.62981100  0.66071800  1
  H  192  1  0.03921500  0.64952800  0.64449400  1
  H  193  1  0.01926000  0.59383000  0.73795100  1
  H  194  1  0.99240200  0.60407600  0.74783800  1
  H  195  1  0.98275900  0.73628300  0.59276700  1
  H  196  1  0.00955700  0.74661500  0.60274700  1
  H  201  1  0.95929500  0.64548700  0.74135000  1
  H  202  1  0.95590600  0.69835900  0.59328700  1
  H  203  1  0.04282200  0.74100300  0.64490100  1
  H  204  1  0.05291000  0.59937100  0.69037000  1
  H  211  1  0.96808300  0.69248900  0.33622700  1
  H  220  1  0.03426600  0.66641000  0.31015700  1
  H  223  1  0.03860600  0.64361900  0.35325800  1
  H  224  1  0.05474600  0.65914500  0.37384300  1
  H  225  1  0.94772300  0.62874400  0.34368900  1
  H  226  1  0.96385600  0.64939400  0.35914900  1
  H  227  1  0.98243000  0.59280700  0.26634300  1
  H  228  1  0.00923000  0.60273200  0.25594800  1
  H  229  1  0.01993600  0.73650400  0.40970000  1
  H  230  1  0.99310100  0.74683200  0.39979900  1
  H  235  1  0.04281300  0.64502800  0.26168100  1
  H  236  1  0.04672900  0.69851400  0.40953800  1
  H  237  1  0.95984700  0.74127600  0.35767300  1
  H  238  1  0.95605100  0.59308600  0.30434700  1
  H  245  1  0.96819300  0.31049700  0.66700300  1
  H  254  1  0.03458600  0.33659900  0.69252800  1
  H  257  1  0.03848300  0.35956100  0.64954500  1
  H  258  1  0.05459300  0.34396600  0.62896700  1
  H  259  1  0.94656500  0.37291500  0.66117300  1
  H  260  1  0.96309800  0.35326200  0.64495700  1
  H  261  1  0.98298600  0.40913100  0.73834500  1
  H  262  1  0.00986600  0.39894800  0.74823200  1
  H  263  1  0.01973500  0.26676500  0.59314800  1
  H  264  1  0.99301600  0.25630300  0.60320800  1
  H  269  1  0.04349300  0.35738100  0.74136000  1
  H  270  1  0.04697500  0.30515700  0.59373700  1
  H  271  1  0.95950500  0.26209200  0.64563500  1
  H  272  1  0.94924200  0.40334600  0.69069500  1
  H  279  1  0.33628300  0.03462800  0.31041700  1
  H  288  1  0.31038600  0.96817600  0.33606600  1
  H  291  1  0.35323900  0.96319500  0.35794200  1
  H  292  1  0.37289500  0.94670700  0.34166800  1
  H  293  1  0.34378700  0.05474100  0.37384600  1
  H  294  1  0.35935900  0.03861000  0.35329000  1
  H  295  1  0.26660300  0.01981800  0.40981500  1
  H  296  1  0.25620500  0.99304500  0.39983700  1
  H  297  1  0.40880700  0.98320300  0.26440600  1
  H  298  1  0.39856500  0.01008300  0.25457800  1
  H  303  1  0.26207100  0.95945100  0.35747400  1
  H  304  1  0.40328100  0.94962700  0.31216700  1
  H  305  1  0.35713500  0.04337700  0.26131800  1
  H  306  1  0.30453400  0.04659400  0.40927900  1
  H  313  1  0.66653100  0.03448500  0.69216400  1
  H  322  1  0.69207500  0.96789900  0.66677800  1
  H  325  1  0.64941100  0.96324800  0.64436000  1
  H  326  1  0.62962900  0.94681100  0.66052300  1
  H  327  1  0.66033300  0.05538400  0.62955100  1
  H  328  1  0.64416700  0.03900000  0.64938700  1
  H  329  1  0.73764600  0.01905500  0.59378300  1
  H  330  1  0.74762000  0.99227200  0.60414300  1
  H  331  1  0.59361400  0.98325700  0.73777600  1
  H  332  1  0.60397200  0.01004000  0.74773700  1
  H  337  1  0.74119800  0.95925800  0.64564500  1
  H  338  1  0.59917000  0.94974600  0.68997400  1
  H  339  1  0.64551500  0.04338500  0.74100800  1
  H  340  1  0.69026800  0.05276900  0.59928500  1
  H  347  1  0.33633300  0.96800300  0.69240700  1
  H  356  1  0.31018900  0.03423100  0.66637300  1
  H  359  1  0.35328600  0.03861500  0.64362400  1
  H  360  1  0.37380400  0.05478600  0.65921200  1
  H  361  1  0.34372200  0.94769900  0.62868500  1
  H  362  1  0.35919100  0.96383400  0.64932500  1
  H  363  1  0.26637100  0.98240000  0.59277200  1
  H  364  1  0.25598300  0.00920500  0.60268900  1
  H  365  1  0.40958600  0.02002100  0.73658600  1
  H  366  1  0.39973100  0.99316100  0.74689500  1
  H  371  1  0.26173100  0.04279500  0.64499200  1
  H  372  1  0.40929800  0.04695100  0.69833300  1
  H  373  1  0.35771900  0.95971300  0.74116600  1
  H  374  1  0.30434700  0.95599000  0.59306600  1
  H  381  1  0.66691000  0.96824100  0.31046900  1
  H  390  1  0.69244600  0.03470600  0.33648900  1
  H  393  1  0.64942700  0.03871600  0.35926600  1
  H  394  1  0.62893200  0.05481400  0.34354900  1
  H  395  1  0.66097600  0.94675500  0.37287000  1
  H  396  1  0.64478800  0.96329100  0.35319800  1
  H  397  1  0.73817200  0.98311400  0.40908100  1
  H  398  1  0.74808300  0.00998300  0.39889200  1
  H  399  1  0.59321800  0.01974800  0.26642400  1
  H  400  1  0.60323900  0.99296700  0.25608200  1
  H  405  1  0.74124100  0.04361800  0.35731800  1
  H  406  1  0.59388000  0.04724500  0.30467200  1
  H  407  1  0.64558900  0.95950100  0.26197600  1
  H  408  1  0.69053900  0.94937800  0.40327400  1
  H  415  1  0.81012900  0.83589100  0.53450700  1
  H  424  1  0.83583100  0.81022600  0.46826600  1
  H  427  1  0.85819800  0.85302500  0.46346400  1
  H  428  1  0.84208800  0.87279200  0.44694900  1
  H  429  1  0.87266800  0.84269000  0.55568300  1
  H  430  1  0.85278900  0.85862800  0.53914500  1
  H  431  1  0.90904700  0.76532700  0.51972400  1
  H  432  1  0.89875300  0.75517300  0.49298400  1
  H  433  1  0.76469200  0.90883900  0.48314800  1
  H  434  1  0.75474500  0.89858700  0.50998300  1
  H  439  1  0.85724700  0.76108000  0.45999800  1
  H  440  1  0.81292700  0.90342900  0.45006400  1
  H  441  1  0.76050900  0.85733400  0.54254100  1
  H  442  1  0.90348000  0.81364000  0.55270700  1
  H  449  1  0.19250100  0.16638800  0.53437500  1
  H  458  1  0.16697100  0.19261400  0.46827900  1
  H  461  1  0.14460600  0.14988000  0.46304200  1
  H  462  1  0.16065800  0.13009600  0.44650300  1
  H  463  1  0.12875300  0.15874800  0.55447100  1
  H  464  1  0.14947000  0.14329800  0.53841800  1
  H  465  1  0.09281200  0.23605500  0.51964000  1
  H  466  1  0.10285800  0.24649000  0.49290500  1
  H  467  1  0.23783000  0.09352100  0.48279100  1
  H  468  1  0.24780100  0.10369000  0.50964700  1
  H  473  1  0.14493000  0.24201400  0.46075000  1
  H  474  1  0.18931500  0.09898800  0.44996600  1
  H  475  1  0.24203500  0.14499400  0.54232200  1
  H  476  1  0.09289600  0.19786300  0.54571800  1
  H  483  1  0.19261800  0.83615600  0.46822900  1
  H  492  1  0.16632800  0.80996400  0.53413900  1
  H  495  1  0.14343900  0.85311600  0.53857600  1
  H  496  1  0.15886100  0.87375500  0.55475300  1
  H  497  1  0.12882000  0.84392600  0.44767700  1
  H  498  1  0.14951800  0.85925600  0.46387300  1
  H  499  1  0.09269800  0.76644800  0.48207500  1
  H  500  1  0.10252600  0.75600700  0.50888900  1
  H  501  1  0.23637800  0.90966400  0.52025900  1
  H  502  1  0.24676700  0.89982100  0.49342500  1
  H  507  1  0.14462600  0.76098900  0.54192800  1
  H  508  1  0.19801600  0.90966800  0.54629400  1
  H  509  1  0.24215200  0.85811300  0.46093300  1
  H  510  1  0.09270200  0.80462100  0.45635200  1
  H  517  1  0.81014900  0.16715400  0.46839000  1
  H  526  1  0.83631400  0.19273700  0.53462600  1
  H  529  1  0.85919800  0.14966100  0.53870100  1
  H  530  1  0.84360300  0.12906600  0.55478900  1
  H  531  1  0.87259500  0.16089600  0.44675300  1
  H  532  1  0.85286900  0.14481900  0.46333600  1
  H  533  1  0.90909500  0.23809200  0.48294700  1
  H  534  1  0.89900200  0.24803700  0.50984200  1
  H  535  1  0.76631100  0.09332300  0.51989100  1
  H  536  1  0.75596800  0.10332000  0.49309800  1
  H  541  1  0.85757400  0.24207800  0.54282000  1
  H  542  1  0.80469600  0.09350800  0.54661400  1
  H  543  1  0.76111900  0.14543300  0.46030200  1
  H  544  1  0.90340000  0.18998400  0.44971800  1
  H  551  1  0.53472300  0.81004000  0.83613000  1
  H  560  1  0.46852000  0.83577700  0.80997800  1
  H  563  1  0.46343800  0.85791400  0.85278700  1
  H  564  1  0.44685800  0.84178900  0.87248500  1
  H  565  1  0.55493600  0.87361400  0.84375000  1
  H  566  1  0.53879400  0.85298600  0.85921300  1
  H  567  1  0.52019000  0.90966900  0.76644600  1
  H  568  1  0.49341200  0.89972700  0.75602800  1
  H  569  1  0.48304900  0.76450000  0.90879600  1
  H  570  1  0.50997200  0.75461900  0.89871200  1
  H  575  1  0.46035300  0.85755700  0.76117500  1
  H  576  1  0.45005300  0.81281900  0.90330500  1
  H  577  1  0.54261700  0.76034200  0.85758500  1
  H  578  1  0.54628800  0.90948700  0.80457900  1
  H  585  1  0.53435500  0.19246700  0.16662500  1
  H  594  1  0.46806100  0.16695500  0.19233700  1
  H  597  1  0.46320000  0.14447700  0.14964500  1
  H  598  1  0.44668700  0.16058800  0.12988600  1
  H  599  1  0.55541700  0.12983900  0.16007300  1
  H  600  1  0.53895700  0.14972800  0.14405400  1
  H  601  1  0.51930700  0.09370300  0.23741400  1
  H  602  1  0.49254200  0.10402200  0.24748900  1
  H  603  1  0.48300800  0.23784700  0.09362700  1
  H  604  1  0.50984600  0.24779900  0.10386900  1
  H  609  1  0.45998600  0.14547900  0.24178400  1
  H  610  1  0.44979500  0.18969700  0.09920100  1
  H  611  1  0.54243500  0.24197200  0.14520600  1
  H  612  1  0.55246500  0.09915500  0.18940800  1
  H  619  1  0.46823400  0.19267300  0.83607300  1
  H  628  1  0.53419300  0.16649100  0.80996500  1
  H  631  1  0.53861500  0.14357900  0.85313700  1
  H  632  1  0.55473300  0.15900900  0.87381400  1
  H  633  1  0.44778000  0.12881600  0.84387400  1
  H  634  1  0.46391400  0.14956100  0.85920400  1
  H  635  1  0.48230700  0.09274600  0.76642800  1
  H  636  1  0.50912300  0.10261000  0.75601500  1
  H  637  1  0.52008600  0.23648600  0.90967500  1
  H  638  1  0.49324800  0.24683600  0.89979900  1
  H  643  1  0.54209900  0.14485600  0.76102800  1
  H  644  1  0.54614700  0.19815700  0.90974000  1
  H  645  1  0.46088200  0.24223400  0.85803500  1
  H  646  1  0.45655300  0.09270300  0.80456200  1
  H  653  1  0.46832900  0.81009900  0.16717000  1
  H  662  1  0.53452200  0.83630300  0.19280200  1
  H  665  1  0.53861700  0.85918400  0.14970600  1
  H  666  1  0.55473500  0.84359400  0.12913100  1
  H  667  1  0.44670500  0.87255800  0.16076800  1
  H  668  1  0.46330400  0.85279300  0.14475700  1
  H  669  1  0.48277600  0.90913200  0.23800500  1
  H  670  1  0.50965600  0.89904400  0.24800000  1
  H  671  1  0.51993000  0.76622300  0.09343000  1
  H  672  1  0.49312000  0.75589000  0.10339500  1
  H  677  1  0.54279000  0.85754000  0.24198100  1
  H  678  1  0.54651700  0.80472400  0.09352400  1
  H  679  1  0.46026700  0.76105400  0.14543300  1
  H  680  1  0.44964000  0.90337900  0.18976800  1
  H  687  1  0.83575700  0.53448100  0.81018300  1
  H  696  1  0.81017400  0.46819300  0.83592000  1
  H  699  1  0.85292900  0.46354100  0.85838400  1
  H  700  1  0.87272500  0.44701700  0.84231800  1
  H  701  1  0.84229200  0.55577400  0.87266400  1
  H  702  1  0.85833600  0.53923000  0.85287700  1
  H  703  1  0.76495900  0.51966100  0.90893300  1
  H  704  1  0.75492900  0.49285100  0.89869900  1
  H  705  1  0.90878800  0.48312200  0.76488500  1
  H  706  1  0.89852600  0.50993700  0.75489400  1
  H  711  1  0.76102100  0.45981500  0.85720400  1
  H  712  1  0.90332700  0.45006200  0.81314200  1
  H  713  1  0.85728900  0.54250600  0.76060400  1
  H  714  1  0.81307000  0.55292400  0.90327300  1
  H  721  1  0.16635600  0.53439600  0.19247100  1
  H  730  1  0.19264600  0.46824500  0.16699800  1
  H  733  1  0.14988500  0.46289600  0.14482300  1
  H  734  1  0.13021800  0.44633200  0.16099200  1
  H  735  1  0.15862400  0.55437200  0.12877400  1
  H  736  1  0.14320600  0.53829700  0.14949800  1
  H  737  1  0.23596400  0.51966400  0.09280800  1
  H  738  1  0.24643800  0.49293800  0.10284300  1
  H  739  1  0.09370700  0.48277400  0.23810700  1
  H  740  1  0.10380000  0.50970500  0.24795100  1
  H  745  1  0.24200900  0.46073700  0.14486100  1
  H  746  1  0.09932700  0.44959900  0.18986900  1
  H  747  1  0.14504100  0.54240700  0.24205500  1
  H  748  1  0.19777000  0.54571600  0.09293200  1
  H  755  1  0.83610600  0.46815400  0.19271400  1
  H  764  1  0.80996000  0.53406800  0.16653500  1
  H  767  1  0.85311300  0.53851500  0.14357300  1
  H  768  1  0.87378100  0.55466000  0.15899000  1
  H  769  1  0.84387400  0.44765500  0.12886500  1
  H  770  1  0.85921700  0.46381000  0.14958600  1
  H  771  1  0.76640000  0.48215300  0.09282200  1
  H  772  1  0.75597800  0.50896100  0.10269700  1
  H  773  1  0.90968600  0.52008100  0.23648100  1
  H  774  1  0.89982500  0.49324100  0.24684700  1
  H  779  1  0.76077700  0.54175800  0.14470000  1
  H  780  1  0.90972000  0.54612800  0.19814400  1
  H  781  1  0.85807900  0.46087500  0.24229500  1
  H  782  1  0.80454300  0.45640800  0.09277000  1
  H  789  1  0.16713900  0.46834200  0.81021500  1
  H  798  1  0.19274800  0.53456800  0.83637200  1
  H  801  1  0.14968400  0.53863000  0.85930400  1
  H  802  1  0.12909600  0.55473900  0.84372200  1
  H  803  1  0.16094800  0.44668300  0.87265800  1
  H  804  1  0.14485900  0.46326000  0.85293800  1
  H  805  1  0.23811100  0.48293000  0.90917700  1
  H  806  1  0.24804200  0.50982900  0.89908000  1
  H  807  1  0.09335900  0.51992500  0.76638500  1
  H  808  1  0.10333300  0.49312600  0.75603700  1
  H  813  1  0.24204000  0.54277300  0.85754200  1
  H  814  1  0.09353100  0.54660400  0.80477400  1
  H  815  1  0.14539400  0.46028900  0.76118000  1
  H  816  1  0.19004100  0.44964600  0.90345000  1
  H  823  1  0.41639900  0.29647200  0.91488000  1
  H  824  1  0.44327000  0.27370000  0.88768100  1
  H  828  1  0.39215200  0.18466800  0.94882200  1
  H  837  1  0.58689300  0.70597700  0.91462900  1
  H  838  1  0.56011200  0.72871400  0.88729100  1
  H  842  1  0.61010900  0.81781700  0.94926400  1
  H  851  1  0.58649100  0.29643200  0.08792800  1
  H  852  1  0.55988600  0.27370000  0.11542800  1
  H  856  1  0.60899800  0.18471900  0.05274100  1
  H  865  1  0.41628300  0.70654900  0.08802600  1
  H  866  1  0.44301000  0.72926800  0.11543300  1
  H  870  1  0.39289200  0.81841400  0.05368400  1
  H  879  1  0.91490800  0.41636500  0.29649500  1
  H  880  1  0.88770200  0.44323100  0.27372800  1
  H  884  1  0.94883500  0.39212600  0.18468200  1
  H  893  1  0.91422200  0.58699500  0.70629800  1
  H  894  1  0.88693600  0.56012700  0.72899800  1
  H  898  1  0.94903400  0.60989900  0.81813900  1
  H  907  1  0.08773900  0.58642000  0.29650200  1
  H  908  1  0.11520200  0.55976300  0.27378500  1
  H  912  1  0.05266100  0.60900200  0.18476900  1
  H  921  1  0.08796700  0.41636300  0.70663900  1
  H  922  1  0.11538300  0.44306700  0.72937400  1
  H  926  1  0.05364300  0.39288600  0.81849000  1
  H  935  1  0.29653900  0.91497300  0.41666500  1
  H  936  1  0.27369100  0.88773200  0.44342800  1
  H  940  1  0.18482400  0.94934800  0.39258700  1
  H  949  1  0.70616500  0.91415500  0.58713100  1
  H  950  1  0.72887600  0.88694300  0.56019800  1
  H  954  1  0.81798300  0.94903800  0.61002800  1
  H  963  1  0.29651500  0.08771400  0.58635400  1
  H  964  1  0.27377800  0.11517900  0.55971500  1
  H  968  1  0.18479700  0.05264800  0.60902800  1
  H  977  1  0.70654700  0.08808500  0.41632100  1
  H  978  1  0.72929600  0.11546300  0.44304900  1
  H  982  1  0.81837500  0.05367300  0.39286200  1
  H  991  1  0.29628500  0.41611600  0.08817700  1
  H  992  1  0.27348200  0.44297100  0.11536900  1
  H  996  1  0.18453500  0.39230800  0.05372300  1
  H  1005  1  0.70643800  0.58639600  0.08782800  1
  H  1006  1  0.72910100  0.55935200  0.11497400  1
  H  1010  1  0.81833900  0.60971900  0.05350300  1
  H  1019  1  0.29675700  0.58687000  0.91471800  1
  H  1020  1  0.27402300  0.56007000  0.88741000  1
  H  1024  1  0.18508700  0.60928400  0.95006400  1
  H  1033  1  0.70624100  0.41600800  0.91460100  1
  H  1034  1  0.72902400  0.44266000  0.88717400  1
  H  1038  1  0.81799600  0.39324500  0.94974000  1
  H  1047  1  0.41638400  0.91470900  0.70636900  1
  H  1048  1  0.44321200  0.88748100  0.72916600  1
  H  1052  1  0.39327100  0.94973700  0.81808700  1
  H  1061  1  0.58688300  0.91470100  0.29670900  1
  H  1062  1  0.55997300  0.88747900  0.27398100  1
  H  1066  1  0.60978000  0.94964700  0.18492400  1
  H  1075  1  0.58652600  0.08801800  0.70624100  1
  H  1076  1  0.55951400  0.11509300  0.72901000  1
  H  1080  1  0.60939000  0.05287700  0.81789000  1
  H  1089  1  0.41579600  0.08827400  0.29622300  1
  H  1090  1  0.44248400  0.11569300  0.27347500  1
  H  1094  1  0.39266300  0.05358400  0.18440600  1
  H  1103  1  0.91472400  0.29673800  0.58684400  1
  H  1104  1  0.88747300  0.27398800  0.56000300  1
  H  1108  1  0.94961000  0.18498300  0.60993300  1
  H  1117  1  0.91446300  0.70634300  0.41596400  1
  H  1118  1  0.88711600  0.72911200  0.44271800  1
  H  1122  1  0.94970300  0.81809200  0.39328400  1
  H  1131  1  0.08823700  0.29635500  0.41613500  1
  H  1132  1  0.11548300  0.27354600  0.44293500  1
  H  1136  1  0.05333800  0.18470200  0.39288600  1
  H  1145  1  0.08768700  0.70616100  0.58608200  1
  H  1146  1  0.11483300  0.72902600  0.55921100  1
  H  1150  1  0.05273200  0.81784700  0.60948900  1
  H  1159  1  0.58802800  0.70678500  0.09634400  1
  H  1160  1  0.56309400  0.73418800  0.12141700  1
  H  1164  1  0.62138100  0.81294300  0.05237200  1
  H  1173  1  0.41444300  0.29558200  0.09780400  1
  H  1174  1  0.43907800  0.26742100  0.12234300  1
  H  1178  1  0.38032800  0.19070900  0.05140100  1
  H  1187  1  0.41436000  0.70710500  0.90450700  1
  H  1188  1  0.43900600  0.73525700  0.87996200  1
  H  1192  1  0.38060900  0.81196400  0.95120500  1
  H  1201  1  0.58727900  0.29577200  0.90611900  1
  H  1202  1  0.56257000  0.26799700  0.88120700  1
  H  1206  1  0.62209900  0.19013100  0.95022700  1
  H  1215  1  0.09754900  0.58808600  0.70652300  1
  H  1216  1  0.12215900  0.56306600  0.73428300  1
  H  1220  1  0.05192900  0.62129800  0.81203400  1
  H  1229  1  0.09796700  0.41432400  0.29579000  1
  H  1230  1  0.12252200  0.43888500  0.26757300  1
  H  1234  1  0.05133800  0.38022800  0.19100800  1
  H  1243  1  0.90446300  0.41450500  0.70736500  1
  H  1244  1  0.87994300  0.43912100  0.73556800  1
  H  1248  1  0.95123700  0.38062900  0.81215100  1
  H  1257  1  0.90602100  0.58729800  0.29575500  1
  H  1258  1  0.88114400  0.56256100  0.26797500  1
  H  1262  1  0.95019000  0.62208400  0.19012900  1
  H  1271  1  0.70640100  0.09725800  0.58796300  1
  H  1272  1  0.73412100  0.12193800  0.56297100  1
  H  1276  1  0.81200500  0.05199100  0.62136300  1
  H  1285  1  0.29504900  0.09611100  0.41556800  1
  H  1286  1  0.26695400  0.12114500  0.43978800  1
  H  1290  1  0.18985700  0.05225500  0.37913800  1
  H  1299  1  0.70717900  0.90465200  0.41448000  1
  H  1300  1  0.73533900  0.88011200  0.43912300  1
  H  1304  1  0.81203800  0.95124400  0.38058300  1
  H  1313  1  0.29570300  0.90596700  0.58731100  1
  H  1314  1  0.26788000  0.88107900  0.56263300  1
  H  1318  1  0.19014200  0.95022000  0.62218600  1
  H  1327  1  0.70713300  0.58802100  0.90437400  1
  H  1328  1  0.73543400  0.56348300  0.87988700  1
  H  1332  1  0.81176100  0.62211700  0.95134600  1
  H  1341  1  0.29590600  0.41440600  0.90491800  1
  H  1342  1  0.26775700  0.43902600  0.88034600  1
  H  1346  1  0.19101500  0.38038400  0.95135400  1
  H  1355  1  0.70702500  0.41521500  0.09659500  1
  H  1356  1  0.73485700  0.43990900  0.12146500  1
  H  1360  1  0.81257200  0.38036900  0.05228900  1
  H  1369  1  0.29574900  0.58690600  0.09613300  1
  H  1370  1  0.26805800  0.56204200  0.12097900  1
  H  1374  1  0.18998400  0.62176800  0.05238900  1
  H  1383  1  0.58729200  0.09618300  0.29500200  1
  H  1384  1  0.56272800  0.12118400  0.26719200  1
  H  1388  1  0.62278300  0.05254300  0.18940800  1
  H  1397  1  0.41516800  0.09657400  0.70708800  1
  H  1398  1  0.43997100  0.12139400  0.73487100  1
  H  1402  1  0.38033900  0.05243400  0.81271300  1
  H  1411  1  0.41424200  0.90453000  0.29557700  1
  H  1412  1  0.43885500  0.88002700  0.26735400  1
  H  1416  1  0.38041700  0.95143900  0.19083300  1
  H  1425  1  0.58787000  0.90481400  0.70638800  1
  H  1426  1  0.56294000  0.88037200  0.73438500  1
  H  1430  1  0.62142200  0.95108100  0.81151000  1
  H  1439  1  0.09649500  0.70705900  0.41525900  1
  H  1440  1  0.12137900  0.73490200  0.43992200  1
  H  1444  1  0.05230000  0.81259400  0.38023700  1
  H  1453  1  0.09609300  0.29580700  0.58708000  1
  H  1454  1  0.12090300  0.26817000  0.56211600  1
  H  1458  1  0.05245800  0.18995800  0.62182900  1
  H  1467  1  0.90643300  0.70788200  0.58695400  1
  H  1468  1  0.88139700  0.73593900  0.56269800  1
  H  1472  1  0.95036500  0.81311200  0.62315800  1
  H  1481  1  0.90497400  0.29578300  0.41440800  1
  H  1482  1  0.88035200  0.26768500  0.43903200  1
  H  1486  1  0.95125200  0.19080300  0.38044500  1
  C  1  1  0.32690000  0.34588800  0.00034700  1
  C  2  1  0.30908100  0.34765500  0.01963400  1
  C  3  1  0.29019900  0.36580100  0.01949100  1
  C  4  1  0.28672300  0.38097100  0.99806400  1
  C  5  1  0.30385800  0.37857300  0.97784400  1
  C  6  1  0.32479700  0.36217100  0.97942400  1
  C  9  1  0.34583600  0.32695400  0.00252500  1
  C  10  1  0.36208600  0.32483100  0.02347300  1
  C  11  1  0.37846900  0.30388400  0.02506800  1
  C  12  1  0.38093600  0.28679700  0.00481800  1
  C  13  1  0.36580100  0.29029400  0.98336700  1
  C  14  1  0.34762200  0.30914400  0.98323100  1
  C  27  1  0.36869600  0.27591600  0.96214100  1
  C  28  1  0.39208200  0.29923500  0.04653500  1
  C  29  1  0.29925900  0.39230100  0.95643400  1
  C  30  1  0.27576000  0.36859000  0.04069000  1
  C  35  1  0.67632300  0.65656000  0.99993400  1
  C  36  1  0.69410600  0.65474600  0.01924200  1
  C  37  1  0.71294900  0.63657200  0.01908800  1
  C  38  1  0.71638800  0.62137200  0.99767800  1
  C  39  1  0.69926300  0.62380500  0.97745400  1
  C  40  1  0.67840100  0.64031400  0.97898900  1
  C  43  1  0.65733700  0.67539200  0.00228300  1
  C  44  1  0.64114100  0.67715600  0.02328300  1
  C  45  1  0.62480000  0.69805600  0.02528100  1
  C  46  1  0.62181500  0.71511700  0.00506100  1
  C  47  1  0.63693200  0.71201100  0.98353400  1
  C  48  1  0.65536100  0.69339300  0.98318600  1
  C  61  1  0.63398400  0.72668600  0.96252000  1
  C  62  1  0.61190100  0.70177000  0.04736700  1
  C  63  1  0.70378900  0.60996800  0.95610100  1
  C  64  1  0.72734000  0.63375400  0.04030200  1
  C  69  1  0.67581400  0.34566600  0.00252100  1
  C  70  1  0.69374400  0.34767000  0.98336500  1
  C  71  1  0.71233400  0.36612100  0.98367100  1
  C  72  1  0.71540500  0.38131000  0.00515000  1
  C  73  1  0.69827900  0.37841000  0.02532100  1
  C  74  1  0.67749200  0.36192600  0.02346300  1
  C  77  1  0.65691100  0.32681400  0.00007400  1
  C  78  1  0.64062200  0.32520800  0.97915100  1
  C  79  1  0.62409200  0.30445800  0.97727100  1
  C  80  1  0.62117100  0.28731400  0.99742700  1
  C  81  1  0.63638600  0.29031800  0.01889600  1
  C  82  1  0.65487800  0.30886700  0.01921100  1
  C  95  1  0.63341000  0.27567600  0.03991500  1
  C  96  1  0.61116500  0.30078700  0.95520200  1
  C  97  1  0.70200500  0.39134400  0.04732900  1
  C  98  1  0.72697000  0.36907100  0.96264100  1
  C  103  1  0.32719200  0.65727000  0.00252700  1
  C  104  1  0.30916600  0.65535700  0.98344600  1
  C  105  1  0.29062800  0.63684900  0.98369000  1
  C  106  1  0.28762400  0.62155200  0.00510300  1
  C  107  1  0.30471500  0.62445400  0.02530100  1
  C  108  1  0.32551900  0.64092900  0.02342300  1
  C  111  1  0.34602500  0.67625600  0.00017400  1
  C  112  1  0.36216400  0.67837300  0.97914700  1
  C  113  1  0.37861100  0.69927000  0.97753000  1
  C  114  1  0.38112400  0.71638800  0.99775200  1
  C  115  1  0.36605200  0.71290800  0.01925000  1
  C  116  1  0.34793400  0.69400800  0.01950200  1
  C  129  1  0.36895900  0.72732200  0.04044300  1
  C  130  1  0.39232900  0.70379300  0.95610700  1
  C  131  1  0.30095800  0.61147800  0.04730700  1
  C  132  1  0.27601600  0.63388200  0.96264400  1
  C  137  1  0.00034100  0.32690300  0.34592100  1
  C  138  1  0.01963100  0.30908800  0.34769800  1
  C  139  1  0.01948100  0.29020600  0.36584400  1
  C  140  1  0.99804200  0.28672300  0.38099400  1
  C  141  1  0.97781200  0.30384100  0.37856400  1
  C  142  1  0.97940700  0.32479400  0.36218600  1
  C  145  1  0.00252900  0.34584500  0.32699600  1
  C  146  1  0.02346800  0.36210800  0.32490000  1
  C  147  1  0.02506700  0.37850600  0.30396400  1
  C  148  1  0.00484200  0.38094700  0.28684400  1
  C  149  1  0.98339800  0.36579800  0.29031800  1
  C  150  1  0.98324900  0.34762400  0.30917200  1
  C  163  1  0.96218100  0.36868400  0.27592700  1
  C  164  1  0.04650900  0.39216900  0.29935400  1
  C  165  1  0.95636300  0.29921600  0.39220600  1
  C  166  1  0.04068900  0.27578600  0.36865500  1
  C  171  1  0.00003500  0.67566500  0.65691100  1
  C  172  1  0.01918000  0.69361900  0.65495400  1
  C  173  1  0.01895700  0.71216900  0.63645700  1
  C  174  1  0.99749200  0.71529300  0.62125500  1
  C  175  1  0.97723400  0.69827600  0.62419600  1
  C  176  1  0.97909900  0.67744000  0.64063500  1
  C  179  1  0.00233000  0.65684800  0.67592500  1
  C  180  1  0.02330400  0.64064300  0.67805900  1
  C  181  1  0.02487800  0.62423300  0.69898800  1
  C  182  1  0.00464300  0.62178500  0.71610000  1
  C  183  1  0.98319200  0.63691800  0.71260400  1
  C  184  1  0.98300600  0.65503000  0.69369600  1
  C  197  1  0.96199700  0.63412700  0.72704900  1
  C  198  1  0.04627900  0.61049200  0.70352300  1
  C  199  1  0.95511400  0.70216300  0.61137000  1
  C  200  1  0.04002800  0.72675300  0.63350100  1
  C  205  1  0.00241000  0.67584700  0.34570200  1
  C  206  1  0.98325900  0.69378300  0.34770700  1
  C  207  1  0.98356700  0.71236900  0.36616200  1
  C  208  1  0.00504500  0.71543100  0.38135400  1
  C  209  1  0.02521400  0.69830400  0.37845100  1
  C  210  1  0.02335100  0.67751800  0.36196500  1
  C  213  1  0.99996200  0.65695000  0.32684400  1
  C  214  1  0.97903200  0.64066900  0.32522900  1
  C  215  1  0.97715400  0.62413800  0.30447700  1
  C  216  1  0.99731700  0.62120900  0.28734200  1
  C  217  1  0.01879000  0.63641600  0.29035500  1
  C  218  1  0.01910400  0.65490700  0.30890400  1
  C  231  1  0.03981700  0.63342100  0.27572800  1
  C  232  1  0.95508300  0.61121500  0.30080000  1
  C  233  1  0.04722500  0.70202500  0.39138300  1
  C  234  1  0.96254800  0.72702800  0.36910300  1
  C  239  1  0.00239400  0.32729600  0.65735200  1
  C  240  1  0.98330300  0.30928000  0.65543000  1
  C  241  1  0.98356500  0.29071200  0.63695100  1
  C  242  1  0.00500800  0.28766200  0.62170700  1
  C  243  1  0.02520200  0.30475200  0.62460800  1
  C  244  1  0.02331000  0.32558700  0.64103900  1
  C  247  1  0.00005900  0.34613100  0.67633800  1
  C  248  1  0.97903500  0.36227300  0.67847700  1
  C  249  1  0.97743900  0.37871700  0.69938000  1
  C  250  1  0.99767800  0.38122800  0.71647700  1
  C  251  1  0.01916800  0.36615100  0.71298100  1
  C  252  1  0.01939700  0.34803100  0.69408000  1
  C  265  1  0.04037000  0.36903900  0.72738500  1
  C  266  1  0.95601400  0.39242000  0.70393800  1
  C  267  1  0.04725100  0.30088400  0.61174700  1
  C  268  1  0.96252700  0.27609000  0.63397700  1
  C  273  1  0.34592700  0.00011800  0.32658400  1
  C  274  1  0.34775600  0.01947200  0.30884900  1
  C  275  1  0.36582700  0.01929000  0.28990300  1
  C  276  1  0.38094300  0.99783600  0.28636400  1
  C  277  1  0.37851900  0.97758700  0.30346400  1
  C  278  1  0.36211000  0.97913200  0.32440000  1
  C  281  1  0.32714300  0.00242200  0.34562700  1
  C  282  1  0.32542900  0.02335200  0.36192200  1
  C  283  1  0.30461400  0.02525300  0.37837800  1
  C  284  1  0.28756300  0.00502600  0.38133600  1
  C  285  1  0.29063900  0.98355400  0.36613800  1
  C  286  1  0.30916100  0.98330500  0.34760700  1
  C  299  1  0.27604800  0.96249600  0.36915500  1
  C  300  1  0.30076800  0.04738800  0.39118900  1
  C  301  1  0.39230100  0.95621100  0.29887600  1
  C  302  1  0.36861400  0.04050200  0.27549000  1
  C  307  1  0.65675300  0.00009000  0.67583000  1
  C  308  1  0.65498500  0.01937800  0.69364700  1
  C  309  1  0.63680000  0.01925200  0.71249000  1
  C  310  1  0.62159500  0.99784300  0.71593300  1
  C  311  1  0.62398900  0.97763200  0.69879100  1
  C  312  1  0.64045900  0.97917700  0.67790300  1
  C  315  1  0.67570900  0.00225800  0.65692400  1
  C  316  1  0.67779100  0.02315700  0.64061100  1
  C  317  1  0.69873900  0.02473300  0.62422900  1
  C  318  1  0.71587100  0.00451300  0.62183700  1
  C  319  1  0.71242300  0.98311400  0.63705100  1
  C  320  1  0.69355800  0.98299300  0.65521400  1
  C  333  1  0.72688100  0.96192100  0.63429800  1
  C  334  1  0.70331300  0.04616400  0.61055000  1
  C  335  1  0.61014300  0.95628000  0.70329600  1
  C  336  1  0.63397100  0.04047000  0.72689400  1
  C  341  1  0.34573700  0.00237500  0.67581200  1
  C  342  1  0.34777300  0.98320500  0.69372900  1
  C  343  1  0.36620300  0.98354100  0.71234300  1
  C  344  1  0.38131500  0.00506600  0.71546200  1
  C  345  1  0.37838600  0.02523700  0.69834600  1
  C  346  1  0.36194600  0.02335200  0.67752900  1
  C  349  1  0.32688300  0.99992900  0.65690700  1
  C  350  1  0.32526000  0.97900000  0.64062400  1
  C  351  1  0.30450500  0.97712100  0.62410100  1
  C  352  1  0.28737500  0.99728700  0.62116800  1
  C  353  1  0.29039600  0.01876400  0.63636900  1
  C  354  1  0.30894200  0.01907200  0.65486500  1
  C  367  1  0.27576900  0.03979300  0.63337500  1
  C  368  1  0.30080900  0.95504000  0.61119900  1
  C  369  1  0.39119100  0.04729600  0.70218300  1
  C  370  1  0.36919600  0.96250900  0.72697400  1
  C  375  1  0.65727200  0.00251000  0.32714300  1
  C  376  1  0.65536300  0.98336500  0.30918300  1
  C  377  1  0.63692700  0.98359500  0.29057300  1
  C  378  1  0.62172900  0.00505400  0.28741100  1
  C  379  1  0.62464600  0.02531400  0.30442100  1
  C  380  1  0.64100900  0.02345500  0.32531200  1
  C  383  1  0.67621700  0.00019800  0.34603100  1
  C  384  1  0.67832700  0.97919000  0.36219300  1
  C  385  1  0.69922400  0.97758000  0.37864400  1
  C  386  1  0.71632900  0.99781300  0.38116100  1
  C  387  1  0.71285100  0.01930200  0.36607800  1
  C  388  1  0.69396900  0.01952900  0.34793800  1
  C  401  1  0.72726200  0.04049700  0.36897400  1
  C  402  1  0.70377200  0.95614600  0.39233600  1
  C  403  1  0.61189000  0.04740000  0.30039600  1
  C  404  1  0.63396000  0.96252300  0.27600100  1
  C  409  1  0.82662100  0.84572600  0.50020400  1
  C  410  1  0.80871800  0.84746400  0.51941300  1
  C  411  1  0.78981200  0.86558000  0.51917900  1
  C  412  1  0.78650000  0.88085600  0.49780100  1
  C  413  1  0.80374600  0.87850100  0.47767000  1
  C  414  1  0.82461900  0.86201300  0.47927600  1
  C  417  1  0.84560700  0.82687200  0.50251300  1
  C  418  1  0.86195000  0.82504400  0.52341400  1
  C  419  1  0.87854300  0.80426400  0.52507700  1
  C  420  1  0.88095100  0.78694900  0.50501300  1
  C  421  1  0.86564100  0.79011500  0.48363600  1
  C  422  1  0.84740200  0.80890400  0.48336900  1
  C  435  1  0.86849800  0.77549500  0.46257200  1
  C  436  1  0.89265600  0.80014300  0.54632200  1
  C  437  1  0.79945400  0.89255500  0.45641000  1
  C  438  1  0.77519600  0.86828800  0.54026200  1
  C  443  1  0.17610500  0.15678900  0.49996100  1
  C  444  1  0.19394300  0.15490700  0.51921300  1
  C  445  1  0.21280500  0.13674700  0.51892400  1
  C  446  1  0.21606900  0.12150200  0.49751600  1
  C  447  1  0.19881500  0.12393200  0.47740000  1
  C  448  1  0.17805400  0.14056000  0.47898900  1
  C  451  1  0.15716500  0.17565300  0.50235500  1
  C  452  1  0.14076300  0.17724000  0.52320700  1
  C  453  1  0.12422800  0.19800100  0.52508500  1
  C  454  1  0.12144000  0.21520600  0.50496300  1
  C  455  1  0.13685900  0.21233100  0.48362200  1
  C  456  1  0.15533500  0.19376100  0.48334500  1
  C  469  1  0.13411000  0.22718300  0.46271200  1
  C  470  1  0.11097600  0.20152200  0.54700400  1
  C  471  1  0.20294400  0.10973200  0.45620700  1
  C  472  1  0.22741700  0.13395400  0.53999800  1
  C  477  1  0.17579500  0.84566100  0.50246300  1
  C  478  1  0.19383000  0.84765000  0.48340000  1
  C  479  1  0.21245300  0.86606500  0.48382400  1
  C  480  1  0.21536400  0.88131300  0.50528100  1
  C  481  1  0.19809900  0.87846200  0.52533700  1
  C  482  1  0.17735600  0.86192900  0.52340600  1
  C  485  1  0.15689200  0.82682500  0.49991000  1
  C  486  1  0.14061300  0.82533800  0.47896900  1
  C  487  1  0.12400200  0.80465500  0.47702100  1
  C  488  1  0.12108600  0.78739700  0.49707900  1
  C  489  1  0.13633900  0.79024700  0.51854300  1
  C  490  1  0.15482400  0.80880200  0.51897300  1
  C  503  1  0.13337100  0.77541900  0.53943700  1
  C  504  1  0.11083900  0.80125100  0.45505300  1
  C  505  1  0.20164800  0.89154800  0.54729800  1
  C  506  1  0.22732200  0.86892600  0.46294400  1
  C  511  1  0.82696400  0.15744000  0.50257000  1
  C  512  1  0.80892800  0.15557200  0.48349100  1
  C  513  1  0.79030800  0.13714600  0.48376800  1
  C  514  1  0.78729100  0.12183600  0.50516700  1
  C  515  1  0.80442100  0.12466900  0.52533700  1
  C  516  1  0.82524900  0.14111600  0.52347700  1
  C  519  1  0.84586500  0.17635400  0.50019100  1
  C  520  1  0.86205200  0.17833700  0.47919000  1
  C  521  1  0.87860300  0.19915300  0.47754900  1
  C  522  1  0.88111400  0.21635100  0.49770000  1
  C  523  1  0.86594200  0.21303900  0.51915500  1
  C  524  1  0.84778700  0.19417500  0.51945800  1
  C  537  1  0.86878100  0.22763300  0.54023000  1
  C  538  1  0.89256600  0.20341000  0.45623400  1
  C  539  1  0.80068400  0.11156100  0.54725700  1
  C  540  1  0.77560100  0.13424300  0.46278200  1
  C  545  1  0.50028200  0.82639900  0.84570900  1
  C  546  1  0.51956000  0.80858600  0.84761100  1
  C  547  1  0.51926600  0.78968000  0.86572500  1
  C  548  1  0.49781600  0.78633800  0.88089500  1
  C  549  1  0.47766600  0.80355100  0.87843700  1
  C  550  1  0.47928500  0.82438300  0.86189900  1
  C  553  1  0.50268400  0.84538900  0.82688300  1
  C  554  1  0.52359000  0.86172500  0.82528000  1
  C  555  1  0.52551200  0.87825700  0.80452100  1
  C  556  1  0.50537000  0.88115700  0.78736200  1
  C  557  1  0.48394500  0.86586200  0.79029000  1
  C  558  1  0.48364000  0.84733900  0.80881700  1
  C  571  1  0.46298500  0.86884400  0.77555500  1
  C  572  1  0.54749500  0.89139500  0.80095400  1
  C  573  1  0.45639500  0.79929900  0.89248500  1
  C  574  1  0.54034000  0.77505700  0.86850400  1
  C  579  1  0.50002800  0.17600100  0.15683000  1
  C  580  1  0.51924400  0.19389300  0.15507600  1
  C  581  1  0.51902100  0.21276400  0.13692400  1
  C  582  1  0.49764100  0.21607800  0.12165300  1
  C  583  1  0.47748700  0.19886300  0.12404800  1
  C  584  1  0.47908800  0.17801000  0.14055900  1
  C  587  1  0.50230300  0.15707300  0.17574800  1
  C  588  1  0.52319000  0.14072400  0.17766200  1
  C  589  1  0.52481900  0.12421100  0.19850800  1
  C  590  1  0.50471000  0.12184100  0.21577500  1
  C  591  1  0.48335900  0.13717400  0.21254300  1
  C  592  1  0.48314200  0.15536000  0.19370300  1
  C  605  1  0.46228400  0.13443600  0.22716400  1
  C  606  1  0.54609500  0.11018400  0.20274600  1
  C  607  1  0.45621300  0.20317800  0.11002300  1
  C  608  1  0.54011900  0.22735000  0.13417000  1
  C  613  1  0.50247000  0.17589100  0.84563600  1
  C  614  1  0.48338400  0.19390200  0.84759400  1
  C  615  1  0.48375400  0.21252600  0.86601100  1
  C  616  1  0.50517800  0.21545500  0.88130200  1
  C  617  1  0.52525600  0.19820900  0.87848800  1
  C  618  1  0.52338200  0.17747000  0.86194400  1
  C  621  1  0.49997000  0.15698400  0.82680500  1
  C  622  1  0.47906400  0.14066200  0.82530600  1
  C  623  1  0.47717100  0.12403900  0.80463100  1
  C  624  1  0.49724900  0.12116000  0.78738600  1
  C  625  1  0.51867500  0.13646200  0.79024500  1
  C  626  1  0.51905100  0.15495300  0.80879600  1
  C  639  1  0.53957200  0.13355400  0.77541500  1
  C  640  1  0.45522800  0.11084100  0.80120800  1
  C  641  1  0.54718400  0.20177200  0.89161800  1
  C  642  1  0.46285800  0.22738200  0.86882300  1
  C  647  1  0.50251100  0.82691600  0.15747700  1
  C  648  1  0.48344100  0.80887200  0.15560400  1
  C  649  1  0.48374400  0.79024700  0.13718700  1
  C  650  1  0.50515800  0.78723200  0.12189600  1
  C  651  1  0.52531000  0.80438300  0.12472700  1
  C  652  1  0.52342500  0.82521700  0.14116300  1
  C  655  1  0.50010800  0.84583500  0.17636500  1
  C  656  1  0.47911600  0.86204100  0.17827900  1
  C  657  1  0.47745600  0.87863400  0.19905900  1
  C  658  1  0.49757800  0.88115300  0.21629400  1
  C  659  1  0.51903000  0.86596800  0.21303700  1
  C  660  1  0.51935200  0.84777800  0.19420500  1
  C  673  1  0.54009700  0.86885300  0.22763400  1
  C  674  1  0.45615400  0.89263000  0.20326000  1
  C  675  1  0.54720800  0.80071000  0.11157600  1
  C  676  1  0.46275800  0.77554500  0.13425800  1
  C  681  1  0.84560500  0.50021000  0.82673200  1
  C  682  1  0.84734800  0.51940000  0.80880900  1
  C  683  1  0.86549200  0.51916100  0.78993100  1
  C  684  1  0.88078300  0.49778600  0.78665600  1
  C  685  1  0.87842400  0.47767500  0.80392400  1
  C  686  1  0.86191800  0.47929800  0.82478000  1
  C  689  1  0.82670100  0.50250400  0.84567200  1
  C  690  1  0.82476200  0.52344000  0.86195500  1
  C  691  1  0.80392200  0.52508300  0.87847800  1
  C  692  1  0.78668000  0.50496100  0.88090800  1
  C  693  1  0.78995100  0.48355800  0.86565600  1
  C  694  1  0.80878100  0.48331300  0.84746000  1
  C  707  1  0.77538600  0.46246100  0.86850600  1
  C  708  1  0.79964500  0.54638700  0.89245300  1
  C  709  1  0.89247700  0.45641200  0.79965300  1
  C  710  1  0.86821900  0.54023400  0.77530800  1
  C  715  1  0.15680900  0.49990900  0.17619800  1
  C  716  1  0.15491900  0.51920700  0.19398600  1
  C  717  1  0.13680300  0.51893200  0.21288800  1
  C  718  1  0.12163600  0.49748500  0.21626800  1
  C  719  1  0.12411500  0.47730000  0.19910100  1
  C  720  1  0.14065800  0.47888700  0.17827200  1
  C  723  1  0.17562900  0.50229900  0.15720800  1
  C  724  1  0.17717500  0.52315000  0.14079500  1
  C  725  1  0.19792500  0.52505700  0.12424900  1
  C  726  1  0.21514700  0.50495200  0.12144200  1
  C  727  1  0.21230100  0.48360300  0.13685500  1
  C  728  1  0.19375500  0.48330900  0.15535500  1
  C  741  1  0.22715900  0.46270000  0.13407000  1
  C  742  1  0.20142300  0.54699100  0.11101400  1
  C  743  1  0.11008000  0.45602900  0.20339900  1
  C  744  1  0.13399500  0.54003900  0.22744700  1
  C  749  1  0.84565700  0.50238100  0.17590300  1
  C  750  1  0.84762000  0.48331100  0.19393000  1
  C  751  1  0.86603200  0.48371300  0.21255600  1
  C  752  1  0.88131300  0.50514500  0.21546800  1
  C  753  1  0.87848600  0.52520900  0.19820700  1
  C  754  1  0.86194400  0.52330800  0.17746900  1
  C  757  1  0.82681200  0.49985700  0.15701300  1
  C  758  1  0.82530600  0.47893900  0.14070700  1
  C  759  1  0.80461400  0.47702500  0.12410600  1
  C  760  1  0.78735100  0.49708900  0.12124400  1
  C  761  1  0.79020600  0.51851400  0.13654800  1
  C  762  1  0.80878700  0.51892100  0.15500400  1
  C  775  1  0.77537600  0.53940500  0.13364000  1
  C  776  1  0.80119400  0.45508100  0.11090900  1
  C  777  1  0.89159600  0.54715300  0.20175900  1
  C  778  1  0.86885000  0.46283000  0.22742600  1
  C  783  1  0.15744700  0.50251800  0.82704600  1
  C  784  1  0.15556400  0.48344900  0.80900300  1
  C  785  1  0.13713800  0.48375000  0.79038500  1
  C  786  1  0.12184500  0.50516200  0.78737500  1
  C  787  1  0.12468500  0.52531700  0.80451900  1
  C  788  1  0.14113100  0.52343400  0.82534700  1
  C  791  1  0.17637400  0.50013400  0.84593400  1
  C  792  1  0.17837100  0.47912900  0.86211700  1
  C  793  1  0.19919100  0.47749500  0.87866600  1
  C  794  1  0.21637700  0.49765900  0.88117700  1
  C  795  1  0.21306300  0.51910300  0.86599400  1
  C  796  1  0.19419400  0.51940000  0.84784500  1
  C  809  1  0.22765100  0.54018600  0.86882700  1
  C  810  1  0.20346400  0.45618100  0.89262600  1
  C  811  1  0.11159200  0.54724700  0.80079600  1
  C  812  1  0.13421600  0.46277100  0.77567200  1
  C  817  1  0.39891800  0.26514600  0.93115200  1
  C  818  1  0.39920600  0.23887300  0.93116100  1
  C  819  1  0.41539100  0.22579400  0.91568800  1
  C  820  1  0.43138600  0.23773700  0.89874700  1
  C  821  1  0.43071200  0.26406400  0.89819500  1
  C  822  1  0.41497700  0.27750500  0.91439600  1
  C  827  1  0.39679600  0.20088400  0.94013600  1
  C  831  1  0.60390300  0.73733700  0.93133000  1
  C  832  1  0.60337700  0.76361000  0.93150700  1
  C  833  1  0.58735500  0.77666100  0.91583900  1
  C  834  1  0.57160900  0.76470100  0.89868000  1
  C  835  1  0.57242500  0.73838200  0.89806300  1
  C  836  1  0.58814000  0.72495900  0.91430400  1
  C  841  1  0.60569300  0.80160600  0.94045000  1
  C  845  1  0.60349000  0.26507700  0.07123000  1
  C  846  1  0.60306100  0.23880000  0.07113900  1
  C  847  1  0.58710500  0.22575100  0.08687600  1
  C  848  1  0.57143300  0.23771500  0.10410800  1
  C  849  1  0.57220400  0.26403400  0.10465900  1
  C  850  1  0.58781500  0.27745700  0.08832600  1
  C  855  1  0.60513000  0.20082300  0.06199700  1
  C  859  1  0.39912500  0.73793800  0.07154200  1
  C  860  1  0.39947400  0.76420800  0.07152300  1
  C  861  1  0.41557200  0.77723000  0.08713500  1
  C  862  1  0.43133800  0.76525700  0.10427500  1
  C  863  1  0.43058900  0.73892800  0.10477900  1
  C  864  1  0.41489500  0.72551900  0.08851500  1
  C  869  1  0.39735900  0.80219000  0.06244900  1
  C  873  1  0.93117800  0.39889000  0.26516200  1
  C  874  1  0.93118400  0.39917700  0.23889100  1
  C  875  1  0.91570500  0.41536000  0.22581500  1
  C  876  1  0.89876600  0.43135100  0.23776300  1
  C  877  1  0.89821500  0.43067600  0.26409000  1
  C  878  1  0.91442200  0.41494500  0.27752700  1
  C  883  1  0.94015100  0.39676900  0.20090100  1
  C  887  1  0.93090300  0.60397000  0.73768700  1
  C  888  1  0.93113000  0.60336400  0.76395600  1
  C  889  1  0.91551400  0.58727900  0.77698400  1
  C  890  1  0.89835100  0.57155500  0.76500000  1
  C  891  1  0.89769900  0.57243500  0.73868500  1
  C  892  1  0.91390000  0.58820300  0.72528300  1
  C  897  1  0.94017800  0.60553900  0.80193500  1
  C  901  1  0.07109100  0.60345100  0.26513800  1
  C  902  1  0.07101100  0.60301800  0.23886400  1
  C  903  1  0.08672300  0.58703400  0.22582000  1
  C  904  1  0.10391900  0.57132900  0.23779500  1
  C  905  1  0.10445800  0.57210000  0.26411400  1
  C  906  1  0.08815000  0.58774200  0.27752700  1
  C  911  1  0.06189800  0.60511100  0.20087800  1
  C  915  1  0.07148600  0.39918000  0.73801400  1
  C  916  1  0.07147300  0.39950800  0.76428700  1
  C  917  1  0.08709100  0.41559200  0.77731700  1
  C  918  1  0.10423100  0.43136400  0.76535500  1
  C  919  1  0.10473000  0.43063700  0.73902500  1
  C  920  1  0.08846000  0.41495800  0.72560400  1
  C  925  1  0.06240500  0.39736400  0.80226800  1
  C  929  1  0.26525700  0.93144000  0.39928600  1
  C  930  1  0.23898400  0.93153100  0.39958600  1
  C  931  1  0.22586300  0.91601700  0.41569600  1
  C  932  1  0.23775800  0.89896400  0.43160800  1
  C  933  1  0.26408200  0.89834000  0.43092700  1
  C  934  1  0.27757000  0.91456900  0.41526100  1
  C  939  1  0.20101800  0.94060600  0.39720100  1
  C  943  1  0.73754500  0.93083400  0.60412400  1
  C  944  1  0.76381400  0.93108900  0.60349900  1
  C  945  1  0.77684700  0.91551700  0.58737200  1
  C  946  1  0.76487200  0.89837100  0.57162400  1
  C  947  1  0.73855800  0.89769300  0.57252000  1
  C  948  1  0.72515100  0.91385000  0.58833000  1
  C  953  1  0.80178500  0.94017300  0.60566100  1
  C  957  1  0.26516400  0.07106800  0.60341000  1
  C  958  1  0.23888800  0.07099200  0.60300100  1
  C  959  1  0.22583500  0.08670600  0.58702600  1
  C  960  1  0.23779700  0.10390000  0.57131000  1
  C  961  1  0.26411600  0.10443700  0.57206100  1
  C  962  1  0.27754000  0.08812600  0.58769200  1
  C  967  1  0.20090300  0.06188400  0.60512400  1
  C  971  1  0.73791300  0.07158800  0.39913600  1
  C  972  1  0.76418600  0.07155100  0.39947200  1
  C  973  1  0.77722400  0.08714600  0.41557200  1
  C  974  1  0.76527400  0.10428800  0.43135100  1
  C  975  1  0.73894500  0.10481000  0.43061500  1
  C  976  1  0.72551500  0.08856300  0.41492100  1
  C  981  1  0.80215800  0.06244900  0.39733800  1
  C  985  1  0.26497300  0.39880300  0.07169900  1
  C  986  1  0.23870000  0.39917500  0.07158400  1
  C  987  1  0.22560800  0.41533700  0.08707000  1
  C  988  1  0.23752700  0.43123400  0.10412000  1
  C  989  1  0.26385000  0.43048700  0.10476500  1
  C  990  1  0.27731000  0.41476700  0.08856300  1
  C  995  1  0.20073500  0.39688800  0.06247500  1
  C  999  1  0.73785600  0.60355500  0.07138800  1
  C  1000  1  0.76412500  0.60300300  0.07123800  1
  C  1001  1  0.77712900  0.58681100  0.08675700  1
  C  1002  1  0.76511400  0.57092700  0.10374600  1
  C  1003  1  0.73879600  0.57176900  0.10434500  1
  C  1004  1  0.72541800  0.58764500  0.08823200  1
  C  1009  1  0.80212300  0.60528400  0.06229500  1
  C  1013  1  0.26540200  0.60391800  0.93136800  1
  C  1014  1  0.23912800  0.60343100  0.93151800  1
  C  1015  1  0.22607900  0.58735000  0.91591000  1
  C  1016  1  0.23804200  0.57160600  0.89874100  1
  C  1017  1  0.26435700  0.57244200  0.89811900  1
  C  1018  1  0.27778000  0.58817300  0.91433300  1
  C  1023  1  0.20117000  0.60542900  0.94076800  1
  C  1027  1  0.73759000  0.39909700  0.93141200  1
  C  1028  1  0.76386100  0.39954500  0.93158300  1
  C  1029  1  0.77691400  0.41558500  0.91593700  1
  C  1030  1  0.76498700  0.43119300  0.89862200  1
  C  1031  1  0.73866600  0.43034600  0.89797000  1
  C  1032  1  0.72521800  0.41470300  0.91425100  1
  C  1037  1  0.80180300  0.39760800  0.94086600  1
  C  1041  1  0.39930500  0.93140800  0.73769400  1
  C  1042  1  0.39977700  0.93161100  0.76396500  1
  C  1043  1  0.41591900  0.91609400  0.77704600  1
  C  1044  1  0.43166900  0.89891400  0.76511700  1
  C  1045  1  0.43080300  0.89816500  0.73880400  1
  C  1046  1  0.41511100  0.91440000  0.72535100  1
  C  1051  1  0.39772300  0.94089000  0.80190400  1
  C  1055  1  0.60391000  0.93135300  0.26533300  1
  C  1056  1  0.60331700  0.93160000  0.23906400  1
  C  1057  1  0.58719400  0.91603800  0.22602300  1
  C  1058  1  0.57144200  0.89889600  0.23799600  1
  C  1059  1  0.57233100  0.89820000  0.26430900  1
  C  1060  1  0.58812500  0.91436300  0.27772600  1
  C  1065  1  0.60544700  0.94074400  0.20110900  1
  C  1069  1  0.60375400  0.07150900  0.73757300  1
  C  1070  1  0.60329100  0.07135000  0.76384800  1
  C  1071  1  0.58708600  0.08681300  0.77691700  1
  C  1072  1  0.57117600  0.10384200  0.76497600  1
  C  1073  1  0.57197900  0.10447800  0.73866100  1
  C  1074  1  0.58784100  0.08840500  0.72521800  1
  C  1079  1  0.60542100  0.06212800  0.80180900  1
  C  1083  1  0.39874700  0.07163700  0.26485600  1
  C  1084  1  0.39914500  0.07154600  0.23858500  1
  C  1085  1  0.41521500  0.08717600  0.22554700  1
  C  1086  1  0.43091100  0.10439700  0.23749500  1
  C  1087  1  0.43012100  0.10496500  0.26382000  1
  C  1088  1  0.41445100  0.08869200  0.27725000  1
  C  1093  1  0.39709500  0.06239000  0.20061800  1
  C  1097  1  0.93133600  0.26538500  0.60395500  1
  C  1098  1  0.93150500  0.23911600  0.60348100  1
  C  1099  1  0.91599100  0.22606000  0.58731600  1
  C  1100  1  0.89884400  0.23801600  0.57155500  1
  C  1101  1  0.89812400  0.26433100  0.57243100  1
  C  1102  1  0.91436500  0.27776000  0.58813400  1
  C  1107  1  0.94076800  0.20117400  0.60550100  1
  C  1111  1  0.93131400  0.73769200  0.39908400  1
  C  1112  1  0.93159600  0.76396100  0.39968400  1
  C  1113  1  0.91593700  0.77702500  0.41569800  1
  C  1114  1  0.89867100  0.76508000  0.43133400  1
  C  1115  1  0.89794800  0.73876800  0.43044400  1
  C  1116  1  0.91419200  0.72532700  0.41475200  1
  C  1121  1  0.94077100  0.80191500  0.39758200  1
  C  1125  1  0.07172700  0.26505500  0.39885500  1
  C  1126  1  0.07162800  0.23877600  0.39921900  1
  C  1127  1  0.08720500  0.22567900  0.41529300  1
  C  1128  1  0.10427600  0.23759200  0.43118200  1
  C  1129  1  0.10482200  0.26391500  0.43049800  1
  C  1130  1  0.08864700  0.27738400  0.41476100  1
  C  1135  1  0.06253400  0.20079800  0.39692000  1
  C  1139  1  0.07103000  0.73746000  0.60324100  1
  C  1140  1  0.07082900  0.76373100  0.60284500  1
  C  1141  1  0.08630200  0.77683400  0.58667700  1
  C  1142  1  0.10346100  0.76495600  0.57086200  1
  C  1143  1  0.10414100  0.73863300  0.57164300  1
  C  1144  1  0.08803100  0.72513600  0.58742200  1
  C  1149  1  0.06156000  0.80166800  0.60498500  1
  C  1153  1  0.60563700  0.73518300  0.07537200  1
  C  1154  1  0.60724500  0.76118400  0.07268400  1
  C  1155  1  0.59248200  0.77692800  0.08698000  1
  C  1156  1  0.57586400  0.76769700  0.10505100  1
  C  1157  1  0.57499400  0.74167600  0.10860200  1
  C  1158  1  0.58950100  0.72556700  0.09379900  1
  C  1163  1  0.61434900  0.79790500  0.06155900  1
  C  1167  1  0.39686800  0.26780700  0.07600000  1
  C  1168  1  0.39514900  0.24188400  0.07265900  1
  C  1169  1  0.40965500  0.22569000  0.08671600  1
  C  1170  1  0.42623000  0.23438000  0.10509600  1
  C  1171  1  0.42729700  0.26032400  0.10919900  1
  C  1172  1  0.41295400  0.27688200  0.09473000  1
  C  1177  1  0.38756300  0.20548100  0.06085600  1
  C  1181  1  0.39686100  0.73488700  0.92635800  1
  C  1182  1  0.39515800  0.76080900  0.92971700  1
  C  1183  1  0.40968600  0.77699300  0.91567300  1
  C  1184  1  0.42623400  0.76829600  0.89727100  1
  C  1185  1  0.42724300  0.74235800  0.89312000  1
  C  1186  1  0.41289300  0.72580500  0.90758800  1
  C  1191  1  0.38769800  0.79720300  0.94162300  1
  C  1195  1  0.60531900  0.26761400  0.92705000  1
  C  1196  1  0.60726200  0.24165000  0.92982300  1
  C  1197  1  0.59263300  0.22569600  0.91563800  1
  C  1198  1  0.57584900  0.23470200  0.89761100  1
  C  1199  1  0.57460900  0.26069700  0.89400300  1
  C  1200  1  0.58899100  0.27701200  0.90868600  1
  C  1205  1  0.61484600  0.20505500  0.94102800  1
  C  1209  1  0.07603300  0.60551600  0.73461600  1
  C  1210  1  0.07289800  0.60704200  0.76057600  1
  C  1211  1  0.08696900  0.59228700  0.77652500  1
  C  1212  1  0.10521400  0.57571700  0.76755100  1
  C  1213  1  0.10916800  0.57489400  0.74158100  1
  C  1214  1  0.09463800  0.58944300  0.72525800  1
  C  1219  1  0.06128500  0.61420600  0.79712800  1
  C  1223  1  0.07608900  0.39677700  0.26805700  1
  C  1224  1  0.07270400  0.39503900  0.24214100  1
  C  1225  1  0.08677100  0.40950100  0.22591700  1
  C  1226  1  0.10520100  0.42604200  0.23456800  1
  C  1227  1  0.10934400  0.42712400  0.26050400  1
  C  1228  1  0.09486800  0.41282600  0.27709400  1
  C  1233  1  0.06083100  0.38745100  0.20576200  1
  C  1237  1  0.92633800  0.39697200  0.73511200  1
  C  1238  1  0.92971900  0.39524300  0.76102800  1
  C  1239  1  0.91569000  0.40975700  0.77723900  1
  C  1240  1  0.89728000  0.42631400  0.76857700  1
  C  1241  1  0.89310900  0.42735300  0.74264400  1
  C  1242  1  0.90756200  0.41301900  0.72606300  1
  C  1247  1  0.94164900  0.38774100  0.79740500  1
  C  1251  1  0.92696200  0.60533400  0.26760500  1
  C  1252  1  0.92975400  0.60726400  0.24164100  1
  C  1253  1  0.91559000  0.59261800  0.22568400  1
  C  1254  1  0.89756500  0.57582900  0.23468500  1
  C  1255  1  0.89393800  0.57460200  0.26067900  1
  C  1256  1  0.90860200  0.58900100  0.27699800  1
  C  1261  1  0.94098300  0.61483500  0.20505000  1
  C  1265  1  0.73453000  0.07583800  0.60545100  1
  C  1266  1  0.76050000  0.07278800  0.60701600  1
  C  1267  1  0.77642700  0.08690000  0.59228000  1
  C  1268  1  0.76742200  0.10510700  0.57568600  1
  C  1269  1  0.74144100  0.10897600  0.57481800  1
  C  1270  1  0.72514100  0.09440200  0.58934600  1
  C  1275  1  0.79708000  0.06129600  0.61424500  1
  C  1279  1  0.26714000  0.07513700  0.39719700  1
  C  1280  1  0.24119500  0.07239000  0.39493900  1
  C  1281  1  0.22503900  0.08669600  0.40923900  1
  C  1282  1  0.23381100  0.10475400  0.42611300  1
  C  1283  1  0.25980900  0.10826400  0.42775100  1
  C  1284  1  0.27631500  0.09350400  0.41365100  1
  C  1289  1  0.20469300  0.06138500  0.38665900  1
  C  1293  1  0.73495800  0.92647100  0.39693500  1
  C  1294  1  0.76087900  0.92981200  0.39520800  1
  C  1295  1  0.77707000  0.91577200  0.40973700  1
  C  1296  1  0.76837600  0.89739000  0.42630800  1
  C  1297  1  0.74243600  0.89326000  0.42734500  1
  C  1298  1  0.72587900  0.90772300  0.41299700  1
  C  1303  1  0.79727500  0.94168200  0.38770000  1
  C  1307  1  0.26758400  0.92694000  0.60536200  1
  C  1308  1  0.24162400  0.92974700  0.60732100  1
  C  1309  1  0.22564400  0.91557300  0.59271100  1
  C  1310  1  0.23461200  0.89752600  0.57592900  1
  C  1311  1  0.26060400  0.89388800  0.57467100  1
  C  1312  1  0.27694900  0.90856000  0.58903400  1
  C  1317  1  0.20505000  0.94100000  0.61492800  1
  C  1321  1  0.73480200  0.60557200  0.92632500  1
  C  1322  1  0.76070600  0.60734200  0.92977600  1
  C  1323  1  0.77697500  0.59287100  0.91577000  1
  C  1324  1  0.76838300  0.57633600  0.89730600  1
  C  1325  1  0.74246200  0.57526400  0.89306600  1
  C  1326  1  0.72582200  0.58953400  0.90751300  1
  C  1331  1  0.79703900  0.61489000  0.94180700  1
  C  1335  1  0.26811800  0.39687400  0.92673700  1
  C  1336  1  0.24219500  0.39516300  0.93007900  1
  C  1337  1  0.22601000  0.40966000  0.91600400  1
  C  1338  1  0.23470700  0.42621300  0.89760600  1
  C  1339  1  0.26065100  0.42726000  0.89349900  1
  C  1340  1  0.27720200  0.41292500  0.90798200  1
  C  1345  1  0.20579100  0.38760200  0.94189000  1
  C  1349  1  0.73514400  0.39712100  0.07566000  1
  C  1350  1  0.76110200  0.39513700  0.07286700  1
  C  1351  1  0.77708600  0.40974800  0.08703500  1
  C  1352  1  0.76812100  0.42658100  0.10503700  1
  C  1353  1  0.74212900  0.42785100  0.10867300  1
  C  1354  1  0.72578100  0.41347500  0.09401800  1
  C  1359  1  0.79767700  0.38749400  0.06163500  1
  C  1363  1  0.26754700  0.60497500  0.07529600  1
  C  1364  1  0.24156800  0.60684700  0.07257200  1
  C  1365  1  0.22565700  0.59213100  0.08672600  1
  C  1366  1  0.23470000  0.57529000  0.10468400  1
  C  1367  1  0.26071200  0.57408900  0.10822000  1
  C  1368  1  0.27698600  0.58856600  0.09356700  1
  C  1373  1  0.20493800  0.61446500  0.06150200  1
  C  1377  1  0.60543300  0.07529200  0.26688500  1
  C  1378  1  0.60745500  0.07260600  0.24091400  1
  C  1379  1  0.59293200  0.08687300  0.22491900  1
  C  1380  1  0.57609800  0.10488200  0.23388000  1
  C  1381  1  0.57474500  0.10836700  0.25990000  1
  C  1382  1  0.58903200  0.09360900  0.27624700  1
  C  1387  1  0.61537000  0.06162500  0.20432500  1
  C  1391  1  0.39713200  0.07563800  0.73524000  1
  C  1392  1  0.39523000  0.07281600  0.76120100  1
  C  1393  1  0.40987600  0.08697500  0.77715700  1
  C  1394  1  0.42670000  0.10496900  0.76815800  1
  C  1395  1  0.42792300  0.10860400  0.74216500  1
  C  1396  1  0.41348600  0.09397800  0.72584600  1
  C  1401  1  0.38759100  0.06164100  0.79779200  1
  C  1405  1  0.39672900  0.92643800  0.26784800  1
  C  1406  1  0.39500500  0.92985100  0.24193600  1
  C  1407  1  0.40951500  0.91583300  0.22571200  1
  C  1408  1  0.42606100  0.89740700  0.23436100  1
  C  1409  1  0.42709300  0.89320400  0.26028800  1
  C  1410  1  0.41275900  0.90764300  0.27688200  1
  C  1415  1  0.38751800  0.94182900  0.20557200  1
  C  1419  1  0.60539400  0.92649400  0.73429200  1
  C  1420  1  0.60700000  0.92979900  0.76022700  1
  C  1421  1  0.59229100  0.91583000  0.77630900  1
  C  1422  1  0.57569700  0.89752400  0.76750400  1
  C  1423  1  0.57477900  0.89342000  0.74156000  1
  C  1424  1  0.58929200  0.90783100  0.72510200  1
  C  1429  1  0.61428100  0.94163600  0.79668600  1
  C  1433  1  0.07555400  0.73516600  0.39715600  1
  C  1434  1  0.07276900  0.76112500  0.39515200  1
  C  1435  1  0.08693700  0.77711600  0.40975300  1
  C  1436  1  0.10496100  0.76816000  0.42656800  1
  C  1437  1  0.10860500  0.74217000  0.42784400  1
  C  1438  1  0.09391900  0.72581200  0.41350800  1
  C  1443  1  0.06152200  0.79769200  0.38750700  1
  C  1447  1  0.07526800  0.26756200  0.60509800  1
  C  1448  1  0.07253000  0.24158100  0.60689900  1
  C  1449  1  0.08669300  0.22569900  0.59215900  1
  C  1450  1  0.10462100  0.23478300  0.57530700  1
  C  1451  1  0.10814400  0.26079800  0.57414700  1
  C  1452  1  0.09351400  0.27704000  0.58868300  1
  C  1457  1  0.06154900  0.20492900  0.61453500  1
  C  1461  1  0.92739300  0.73581300  0.60530100  1
  C  1462  1  0.93011500  0.76176400  0.60754600  1
  C  1463  1  0.91582600  0.77790100  0.59320500  1
  C  1464  1  0.89777900  0.76910600  0.57632700  1
  C  1465  1  0.89427100  0.74310500  0.57473200  1
  C  1466  1  0.90903200  0.72661900  0.58885400  1
  C  1471  1  0.94114700  0.79827500  0.61575300  1
  C  1475  1  0.92673400  0.26795100  0.39686600  1
  C  1476  1  0.93000700  0.24202000  0.39514100  1
  C  1477  1  0.91592300  0.22586500  0.40966400  1
  C  1478  1  0.89754100  0.23460100  0.42621500  1
  C  1479  1  0.89347700  0.26055200  0.42725100  1
  C  1480  1  0.90799700  0.27707400  0.41291700  1
  C  1485  1  0.94180700  0.20559800  0.38765200  1
  N  8  1  0.26730700  0.39752000  0.99720700  1
  N  15  1  0.39751300  0.26740600  0.00567400  1
  N  17  1  0.34284700  0.36222700  0.96146400  1
  N  18  1  0.36215400  0.34288000  0.04142800  1
  N  42  1  0.73575000  0.60476000  0.99685400  1
  N  49  1  0.60484300  0.73411600  0.00614100  1
  N  51  1  0.66038200  0.64034300  0.96100500  1
  N  52  1  0.64081000  0.65866400  0.04080200  1
  N  76  1  0.73444100  0.39824200  0.00623700  1
  N  83  1  0.60420200  0.26831300  0.99632600  1
  N  85  1  0.65906200  0.36219700  0.04104600  1
  N  86  1  0.64038200  0.34367000  0.96159800  1
  N  110  1  0.26867700  0.60451300  0.00610600  1
  N  117  1  0.39769300  0.73578100  0.99683800  1
  N  119  1  0.34398800  0.64058700  0.04096400  1
  N  120  1  0.36208200  0.66036100  0.96115400  1
  N  144  1  0.99718100  0.26731900  0.39755400  1
  N  151  1  0.00571300  0.39751100  0.26744300  1
  N  153  1  0.96145300  0.34284800  0.36224700  1
  N  154  1  0.04141000  0.36217300  0.34296400  1
  N  178  1  0.99648800  0.73428500  0.60426900  1
  N  185  1  0.00549300  0.60520600  0.73548600  1
  N  187  1  0.96151000  0.65902300  0.64029500  1
  N  188  1  0.04128800  0.64063100  0.66003600  1
  N  212  1  0.00613600  0.73446200  0.39829200  1
  N  219  1  0.99621700  0.60423700  0.26834300  1
  N  221  1  0.04092800  0.65908200  0.36223600  1
  N  222  1  0.96147300  0.64043300  0.34368500  1
  N  246  1  0.00604100  0.26868500  0.60470200  1
  N  253  1  0.99678700  0.39779900  0.73586900  1
  N  255  1  0.04086600  0.34404000  0.64068500  1
  N  256  1  0.96102900  0.36220300  0.66047800  1
  N  280  1  0.39747200  0.99699000  0.26693200  1
  N  287  1  0.26857900  0.00607600  0.39832700  1
  N  289  1  0.36208400  0.96109800  0.34237400  1
  N  290  1  0.34388400  0.04090400  0.36225800  1
  N  314  1  0.60501400  0.99700500  0.73532200  1
  N  321  1  0.73524000  0.00534000  0.60523400  1
  N  323  1  0.64043100  0.96121300  0.65986100  1
  N  324  1  0.65971100  0.04108200  0.64049000  1
  N  348  1  0.39821200  0.00619600  0.73452700  1
  N  355  1  0.26837400  0.99618900  0.60419800  1
  N  357  1  0.36221900  0.04094900  0.65911400  1
  N  358  1  0.34372000  0.96144500  0.64037900  1
  N  382  1  0.60475400  0.00604500  0.26840400  1
  N  389  1  0.73571300  0.99691400  0.39774400  1
  N  391  1  0.64063100  0.04107100  0.34370400  1
  N  392  1  0.66030700  0.96120400  0.36213600  1
  N  416  1  0.76714200  0.89747400  0.49692900  1
  N  423  1  0.89764500  0.76765800  0.50595500  1
  N  425  1  0.84269600  0.86198100  0.46134300  1
  N  426  1  0.86189000  0.84320700  0.54125800  1
  N  450  1  0.23538800  0.10484000  0.49660700  1
  N  457  1  0.10437400  0.23413100  0.50595400  1
  N  459  1  0.16001600  0.14074400  0.46102000  1
  N  460  1  0.14042000  0.15872400  0.54069700  1
  N  484  1  0.23437300  0.89827500  0.50643900  1
  N  491  1  0.10407700  0.76843200  0.49590700  1
  N  493  1  0.15886000  0.86216500  0.54092000  1
  N  494  1  0.14046200  0.84385200  0.46146600  1
  N  518  1  0.76831100  0.10483000  0.50616500  1
  N  525  1  0.89778200  0.23566300  0.49677300  1
  N  527  1  0.84369400  0.14075900  0.54104100  1
  N  528  1  0.86191100  0.16027600  0.46124300  1
  N  552  1  0.49689500  0.76698700  0.89752000  1
  N  559  1  0.50643100  0.89819900  0.76841700  1
  N  561  1  0.46130800  0.84241700  0.86175100  1
  N  562  1  0.54108700  0.86203700  0.84378700  1
  N  586  1  0.49678200  0.23541200  0.10500300  1
  N  593  1  0.50557400  0.10514700  0.23506600  1
  N  595  1  0.46115000  0.15994100  0.14060500  1
  N  596  1  0.54105600  0.14070300  0.15952000  1
  N  620  1  0.50628300  0.23446200  0.89826700  1
  N  627  1  0.49612000  0.10414600  0.76842400  1
  N  629  1  0.54091800  0.15899600  0.86220200  1
  N  630  1  0.46154400  0.14048600  0.84380500  1
  N  654  1  0.50618000  0.76824000  0.10490500  1
  N  661  1  0.49661700  0.89783200  0.23559400  1
  N  663  1  0.54097400  0.84367900  0.14080900  1
  N  664  1  0.46119500  0.86187100  0.16019100  1
  N  688  1  0.89741400  0.49689900  0.76731100  1
  N  695  1  0.76735900  0.50587400  0.89756700  1
  N  697  1  0.86189200  0.46139500  0.84288700  1
  N  698  1  0.84287600  0.54133300  0.86191100  1
  N  722  1  0.10499700  0.49660500  0.23560700  1
  N  729  1  0.23406000  0.50597000  0.10436700  1
  N  731  1  0.14083100  0.46086900  0.16028100  1
  N  732  1  0.15863000  0.54060800  0.14045200  1
  N  756  1  0.89828200  0.50627100  0.23446900  1
  N  763  1  0.76838500  0.49595900  0.10423300  1
  N  765  1  0.86218200  0.54083600  0.15898500  1
  N  766  1  0.84381300  0.46142900  0.14052400  1
  N  790  1  0.10484700  0.50618400  0.76838700  1
  N  797  1  0.23568100  0.49674900  0.89785500  1
  N  799  1  0.14078400  0.54098700  0.84380200  1
  N  800  1  0.16031900  0.46117400  0.86197600  1
  N  825  1  0.41365900  0.20187300  0.92178500  1
  N  829  1  0.38887300  0.27824300  0.94952800  1
  N  830  1  0.44954400  0.22448000  0.88846600  1
  N  839  1  0.58896900  0.80058000  0.92197300  1
  N  843  1  0.61403700  0.72411700  0.94959000  1
  N  844  1  0.55342600  0.77786300  0.88831700  1
  N  853  1  0.58847300  0.20186900  0.08053100  1
  N  857  1  0.61343300  0.27818500  0.05280700  1
  N  858  1  0.55320500  0.22455600  0.11436100  1
  N  867  1  0.41403200  0.80114500  0.08096700  1
  N  871  1  0.38907200  0.72488100  0.05313600  1
  N  872  1  0.44963700  0.77835800  0.11447400  1
  N  881  1  0.92179800  0.41362900  0.20189300  1
  N  885  1  0.94955400  0.38885100  0.27826000  1
  N  886  1  0.88847900  0.44950500  0.22450800  1
  N  895  1  0.92171300  0.58880400  0.80089400  1
  N  899  1  0.94918300  0.61410400  0.72451300  1
  N  900  1  0.88801200  0.55334600  0.77813100  1
  N  909  1  0.08039800  0.58841700  0.20193400  1
  N  913  1  0.05267800  0.61342400  0.27823700  1
  N  914  1  0.11416500  0.55309000  0.22464200  1
  N  923  1  0.08092700  0.41403400  0.80123300  1
  N  927  1  0.05307200  0.38914800  0.72495600  1
  N  928  1  0.11443000  0.44965100  0.77846900  1
  N  937  1  0.20195600  0.92217900  0.41398200  1
  N  941  1  0.27843600  0.94976400  0.38924900  1
  N  942  1  0.22447300  0.88862900  0.44971100  1
  N  951  1  0.80075100  0.92173900  0.58889100  1
  N  955  1  0.72436100  0.94909300  0.61427900  1
  N  956  1  0.77800300  0.88807400  0.55339100  1
  N  965  1  0.20194900  0.08038400  0.58842800  1
  N  969  1  0.27826900  0.05265300  0.61337500  1
  N  970  1  0.22462300  0.11414300  0.55308400  1
  N  979  1  0.80113600  0.08096100  0.41402100  1
  N  983  1  0.72484200  0.05318900  0.38909100  1
  N  984  1  0.77838900  0.11446400  0.44965000  1
  N  993  1  0.20170200  0.41368500  0.08088600  1
  N  997  1  0.27815000  0.38869700  0.05340600  1
  N  998  1  0.22427500  0.44938200  0.11442400  1
  N  1007  1  0.80105200  0.58840400  0.08062600  1
  N  1011  1  0.72475100  0.61371600  0.05308200  1
  N  1012  1  0.77823900  0.55264600  0.11394500  1
  N  1021  1  0.20221300  0.58867300  0.92232300  1
  N  1025  1  0.27850100  0.61388300  0.94978300  1
  N  1026  1  0.22492800  0.55325300  0.88865700  1
  N  1035  1  0.80080300  0.41416300  0.92223900  1
  N  1039  1  0.72441800  0.38903300  0.94973500  1
  N  1040  1  0.77806600  0.44949700  0.88841200  1
  N  1049  1  0.41442100  0.92238900  0.80093200  1
  N  1053  1  0.38921900  0.94968500  0.72447800  1
  N  1054  1  0.44994900  0.88870400  0.77824800  1
  N  1063  1  0.58868600  0.92230000  0.20212700  1
  N  1067  1  0.61392900  0.94971100  0.27847700  1
  N  1068  1  0.55310300  0.88872800  0.22492400  1
  N  1077  1  0.58850100  0.08042200  0.80078300  1
  N  1081  1  0.61387200  0.05318600  0.72445500  1
  N  1082  1  0.55280400  0.11383000  0.77814200  1
  N  1091  1  0.41371600  0.08095700  0.20164000  1
  N  1095  1  0.38866900  0.05328300  0.27797000  1
  N  1096  1  0.44915900  0.11465300  0.22436800  1
  N  1105  1  0.92227800  0.20217000  0.58879200  1
  N  1109  1  0.94970100  0.27853800  0.61395000  1
  N  1110  1  0.88864600  0.22491100  0.55325300  1
  N  1119  1  0.92222000  0.80091700  0.41422800  1
  N  1123  1  0.94961200  0.72447400  0.38904400  1
  N  1124  1  0.88839100  0.77818300  0.44959000  1
  N  1133  1  0.08089800  0.20179700  0.41376700  1
  N  1137  1  0.05339500  0.27818700  0.38876700  1
  N  1138  1  0.11448700  0.22431300  0.44936000  1
  N  1147  1  0.08001600  0.80071800  0.58823700  1
  N  1151  1  0.05280400  0.72425700  0.61344400  1
  N  1152  1  0.11358400  0.77813300  0.55257300  1
  N  1161  1  0.59732100  0.80006300  0.07966800  1
  N  1165  1  0.61890400  0.72101100  0.06018600  1
  N  1166  1  0.56071800  0.78190300  0.11836800  1
  N  1175  1  0.40451000  0.20276700  0.07896600  1
  N  1179  1  0.38348600  0.28240100  0.06140600  1
  N  1180  1  0.44093900  0.21975900  0.11839800  1
  N  1189  1  0.40464000  0.79990900  0.92350700  1
  N  1193  1  0.38353100  0.72026600  0.94096300  1
  N  1194  1  0.44098000  0.78291000  0.88400600  1
  N  1203  1  0.59776700  0.20264100  0.92299700  1
  N  1207  1  0.61851300  0.28196200  0.94207800  1
  N  1208  1  0.56084700  0.22027300  0.88442100  1
  N  1217  1  0.07935000  0.59716600  0.79955000  1
  N  1221  1  0.06132300  0.61900200  0.72024200  1
  N  1222  1  0.11843800  0.56066300  0.78194200  1
  N  1231  1  0.07897500  0.40435700  0.20300900  1
  N  1235  1  0.06150400  0.38344700  0.28270200  1
  N  1236  1  0.11850300  0.44071600  0.21991300  1
  N  1245  1  0.92353400  0.40468100  0.80014500  1
  N  1249  1  0.94092000  0.38364200  0.72046800  1
  N  1250  1  0.88401600  0.44102600  0.78322400  1
  N  1259  1  0.92296200  0.59774400  0.20263100  1
  N  1263  1  0.94197400  0.61854500  0.28195900  1
  N  1264  1  0.88438900  0.56081500  0.22025500  1
  N  1273  1  0.79947000  0.07935900  0.59719800  1
  N  1277  1  0.72020400  0.06108500  0.61894400  1
  N  1278  1  0.78179900  0.11836800  0.56065000  1
  N  1287  1  0.20205300  0.07945200  0.40366600  1
  N  1291  1  0.28163200  0.06018300  0.38403500  1
  N  1292  1  0.21913000  0.11821600  0.44059300  1
  N  1301  1  0.79998700  0.92358100  0.40465600  1
  N  1305  1  0.72034200  0.94107400  0.38359200  1
  N  1306  1  0.78299800  0.88411800  0.44104100  1
  N  1315  1  0.20260100  0.92296200  0.59785800  1
  N  1319  1  0.28196100  0.94195200  0.61854700  1
  N  1320  1  0.22015800  0.88434300  0.56094500  1
  N  1329  1  0.79985500  0.59800300  0.92365500  1
  N  1333  1  0.72007800  0.61887400  0.94084400  1
  N  1334  1  0.78307600  0.56166300  0.88404400  1
  N  1343  1  0.20308500  0.40453000  0.92376100  1
  N  1347  1  0.28273400  0.38353300  0.94133800  1
  N  1348  1  0.22010800  0.44094100  0.88429600  1
  N  1357  1  0.80012500  0.40461700  0.07962100  1
  N  1361  1  0.72076600  0.38398100  0.06060700  1
  N  1362  1  0.78259200  0.44159300  0.11817400  1
  N  1371  1  0.20258100  0.59729700  0.07945600  1
  N  1375  1  0.28183600  0.61836800  0.06034700  1
  N  1376  1  0.22030700  0.56028200  0.11794900  1
  N  1385  1  0.59830000  0.07965700  0.20187500  1
  N  1389  1  0.61876400  0.06032900  0.28121900  1
  N  1390  1  0.56138000  0.11835500  0.21943000  1
  N  1399  1  0.40472500  0.07961900  0.80021000  1
  N  1403  1  0.38389500  0.06064400  0.72089400  1
  N  1404  1  0.44174200  0.11810300  0.78260500  1
  N  1413  1  0.40444800  0.92370900  0.20281500  1
  N  1417  1  0.38342100  0.94100600  0.28252000  1
  N  1418  1  0.44078300  0.88415900  0.21971000  1
  N  1427  1  0.59724300  0.92359000  0.79927300  1
  N  1431  1  0.61884000  0.94106900  0.71975100  1
  N  1432  1  0.56069400  0.88438900  0.78203300  1
  N  1441  1  0.07954800  0.80015500  0.40458400  1
  N  1445  1  0.06050600  0.72078200  0.38401800  1
  N  1446  1  0.11810200  0.78264100  0.44157300  1
  N  1455  1  0.07946500  0.20261100  0.59732300  1
  N  1459  1  0.06036200  0.28181400  0.61857300  1
  N  1460  1  0.11789800  0.22041500  0.56028500  1
  N  1469  1  0.92310000  0.80089100  0.59872200  1
  N  1473  1  0.94235900  0.72134400  0.61847800  1
  N  1474  1  0.88430400  0.78374700  0.56181000  1
  N  1483  1  0.92366300  0.20292700  0.40456900  1
  N  1487  1  0.94139200  0.28251600  0.38353100  1
  N  1488  1  0.88423300  0.22003200  0.44097200  1
  O  826  1  0.38756300  0.22340900  0.94748700  1
  O  840  1  0.61488300  0.77909600  0.94790400  1
  O  854  1  0.61420800  0.22334800  0.05446100  1
  O  868  1  0.38807600  0.77970200  0.05505100  1
  O  882  1  0.94750800  0.38753700  0.22342400  1
  O  896  1  0.94755600  0.61483100  0.77944300  1
  O  910  1  0.05436600  0.61420300  0.22340000  1
  O  924  1  0.05500200  0.38810200  0.77977400  1
  O  938  1  0.22356400  0.94794500  0.38800900  1
  O  952  1  0.77929300  0.94751000  0.61498300  1
  O  966  1  0.22343200  0.05434900  0.61419700  1
  O  980  1  0.77966300  0.05507300  0.38806300  1
  O  994  1  0.22326100  0.38761800  0.05517400  1
  O  1008  1  0.77963700  0.61460000  0.05492900  1
  O  1022  1  0.22369200  0.61461000  0.94819000  1
  O  1036  1  0.77930600  0.38829900  0.94820100  1
  O  1050  1  0.38838600  0.94814900  0.77939100  1
  O  1064  1  0.61476800  0.94806500  0.22360800  1
  O  1078  1  0.61464500  0.05478800  0.77927600  1
  O  1092  1  0.38780400  0.05501800  0.22311000  1
  O  1106  1  0.94803800  0.22367300  0.61485700  1
  O  1120  1  0.94813200  0.77940400  0.38831700  1
  O  1134  1  0.05508300  0.22335200  0.38783800  1
  O  1148  1  0.05432400  0.77914400  0.61430300  1
  O  1162  1  0.62126100  0.77405500  0.05599000  1
  O  1176  1  0.38094200  0.22951200  0.05575100  1
  O  1190  1  0.38105700  0.77317500  0.94671800  1
  O  1204  1  0.62150600  0.22900100  0.94649300  1
  O  1218  1  0.05607600  0.62112700  0.77320300  1
  O  1232  1  0.05574800  0.38086000  0.22980500  1
  O  1246  1  0.94672300  0.38112600  0.77336700  1
  O  1260  1  0.94642600  0.62151000  0.22899500  1
  O  1274  1  0.77315900  0.05601300  0.62113000  1
  O  1288  1  0.22872700  0.05580300  0.38044000  1
  O  1302  1  0.77324600  0.94678800  0.38107700  1
  O  1316  1  0.22900600  0.94643700  0.62156700  1
  O  1330  1  0.77298000  0.62148900  0.94680300  1
  O  1344  1  0.22982000  0.38097900  0.94700400  1
  O  1358  1  0.77371500  0.38090800  0.05615700  1
  O  1372  1  0.22886300  0.62117500  0.05601700  1
  O  1386  1  0.62184400  0.05604200  0.22829100  1
  O  1400  1  0.38092100  0.05619700  0.77384500  1
  O  1414  1  0.38089900  0.94688000  0.22961400  1
  O  1428  1  0.62113400  0.94669000  0.77270700  1
  O  1442  1  0.05608100  0.77372900  0.38089100  1
  O  1456  1  0.05604300  0.22884100  0.62127500  1
  O  1470  1  0.94674800  0.77424800  0.62197800  1
  O  1484  1  0.94694800  0.22961200  0.38100500  1
