# generated using pymatgen
data_H36C57N5
_symmetry_space_group_name_H-M   'P 1'
_cell_length_a   25.92570000
_cell_length_b   30.68300000
_cell_length_c   59.22880000
_cell_angle_alpha   88.51480000
_cell_angle_beta   89.95600000
_cell_angle_gamma   88.30340000
_symmetry_Int_Tables_number   1
_chemical_formula_structural   H36C57N5
_chemical_formula_sum   'H288 C456 N40'
_cell_volume   47078.74666712
_cell_formula_units_Z   8
loop_
 _symmetry_equiv_pos_site_id
 _symmetry_equiv_pos_as_xyz
  1  'x, y, z'
loop_
 _atom_site_type_symbol
 _atom_site_label
 _atom_site_symmetry_multiplicity
 _atom_site_fract_x
 _atom_site_fract_y
 _atom_site_fract_z
 _atom_site_occupancy
  H  20  1  0.28248900  0.87239000  0.63044400  1
  H  21  1  0.20699000  0.85162000  0.65070000  1
  H  22  1  0.25147200  0.92609800  0.70565800  1
  H  23  1  0.32592100  0.94896500  0.68521000  1
  H  24  1  0.16732500  0.95767700  0.67162000  1
  H  25  1  0.09885200  0.00992500  0.67327500  1
  H  26  1  0.14897000  0.80048000  0.67502800  1
  H  27  1  0.14600000  0.73110300  0.69433700  1
  H  28  1  0.19684600  0.78855300  0.75411800  1
  H  29  1  0.19917800  0.85792000  0.73456400  1
  H  30  1  0.08334400  0.87119700  0.71307800  1
  H  31  1  0.01381900  0.92309500  0.71407100  1
  H  51  1  0.71549500  0.41272600  0.78228800  1
  H  52  1  0.78971500  0.39189700  0.76082700  1
  H  53  1  0.88064700  0.39125800  0.81965500  1
  H  54  1  0.80790600  0.41525100  0.84098700  1
  H  55  1  0.96965000  0.37973800  0.80142900  1
  H  56  1  0.03623500  0.43248800  0.80053600  1
  H  57  1  0.89287300  0.29647100  0.79319400  1
  H  58  1  0.89173100  0.22860200  0.77406800  1
  H  59  1  0.87943400  0.29746600  0.71153000  1
  H  60  1  0.88109200  0.36489100  0.73083800  1
  H  61  1  0.89791800  0.44297800  0.74534300  1
  H  62  1  0.96550200  0.49499100  0.74371900  1
  H  82  1  0.33665000  0.61011500  0.79960200  1
  H  83  1  0.26266200  0.63005300  0.77777100  1
  H  84  1  0.19115500  0.51487400  0.80019300  1
  H  85  1  0.26477200  0.49554600  0.82236000  1
  H  86  1  0.10174500  0.57359100  0.80510600  1
  H  87  1  0.03275000  0.52299600  0.80490200  1
  H  88  1  0.13407000  0.66328600  0.78730500  1
  H  89  1  0.13367600  0.73282500  0.76783100  1
  H  90  1  0.20670700  0.67431600  0.71197600  1
  H  91  1  0.20612400  0.60505600  0.73153100  1
  H  92  1  0.14396300  0.53744800  0.73939700  1
  H  93  1  0.07422200  0.48770800  0.73873600  1
  H  113  1  0.76571700  0.11129400  0.63560600  1
  H  114  1  0.83886800  0.13266700  0.65690800  1
  H  115  1  0.81586100  0.02932800  0.70358500  1
  H  116  1  0.74385900  0.00665000  0.68210200  1
  H  117  1  0.93944700  0.07410800  0.65981800  1
  H  118  1  0.00985900  0.02200600  0.65932500  1
  H  119  1  0.93292800  0.16465400  0.68356500  1
  H  120  1  0.93663000  0.23197800  0.70302300  1
  H  121  1  0.83047400  0.18468400  0.75124700  1
  H  122  1  0.82785600  0.11724600  0.73179000  1
  H  123  1  0.91709400  0.04722800  0.72911600  1
  H  124  1  0.98855600  0.99589000  0.72907800  1
  H  144  1  0.77888600  0.11160300  0.33956600  1
  H  145  1  0.85450700  0.13207400  0.31932300  1
  H  146  1  0.80984400  0.05751500  0.26442500  1
  H  147  1  0.73525400  0.03492900  0.28487200  1
  H  148  1  0.89402400  0.02587400  0.29837500  1
  H  149  1  0.96252000  0.97363600  0.29673000  1
  H  150  1  0.91253000  0.18309200  0.29501800  1
  H  151  1  0.91551900  0.25247800  0.27571900  1
  H  152  1  0.86455800  0.19508900  0.21594200  1
  H  153  1  0.86220500  0.12571300  0.23548500  1
  H  154  1  0.97812600  0.11244200  0.25701600  1
  H  155  1  0.04765300  0.06055500  0.25603000  1
  H  175  1  0.34601300  0.57124900  0.18772600  1
  H  176  1  0.27171100  0.59179400  0.20919900  1
  H  177  1  0.18086100  0.59253500  0.15034600  1
  H  178  1  0.25372500  0.56883900  0.12899000  1
  H  179  1  0.09185700  0.60384300  0.16855500  1
  H  180  1  0.02524200  0.55111800  0.16946100  1
  H  181  1  0.16849800  0.68717900  0.17684000  1
  H  182  1  0.16964000  0.75504000  0.19597400  1
  H  183  1  0.18204000  0.68615800  0.25850200  1
  H  184  1  0.18038700  0.61873900  0.23918800  1
  H  185  1  0.16346300  0.54071300  0.22470100  1
  H  186  1  0.09585400  0.48873200  0.22633900  1
  H  206  1  0.72467500  0.37329600  0.17066100  1
  H  207  1  0.79875000  0.35353000  0.19246400  1
  H  208  1  0.87014400  0.46858200  0.16977200  1
  H  209  1  0.79641500  0.48773800  0.14762800  1
  H  210  1  0.95960900  0.41005500  0.16495200  1
  H  211  1  0.02862600  0.46063600  0.16513700  1
  H  212  1  0.92730700  0.32034300  0.18274600  1
  H  213  1  0.92770900  0.25079100  0.20220600  1
  H  214  1  0.85488500  0.30930200  0.25811300  1
  H  215  1  0.85548000  0.37857000  0.23857200  1
  H  216  1  0.91743100  0.44627200  0.23065300  1
  H  217  1  0.98719100  0.49599900  0.23129400  1
  H  237  1  0.29572100  0.87191000  0.33441800  1
  H  238  1  0.22248000  0.85078600  0.31310800  1
  H  239  1  0.24570200  0.95428100  0.26654900  1
  H  240  1  0.31780600  0.97671900  0.28804900  1
  H  241  1  0.12196200  0.90947000  0.31022200  1
  H  242  1  0.05152700  0.96154900  0.31071600  1
  H  243  1  0.12853300  0.81896900  0.28648200  1
  H  244  1  0.12482700  0.75164100  0.26702700  1
  H  245  1  0.23093100  0.79895000  0.21878500  1
  H  246  1  0.23355800  0.86639100  0.23824200  1
  H  247  1  0.14441400  0.93647300  0.24094200  1
  H  248  1  0.07294000  0.98779800  0.24098200  1
  H  273  1  0.73710700  0.05186000  0.61117000  1
  H  274  1  0.66530000  0.02911600  0.59001300  1
  H  275  1  0.65488400  0.02938400  0.67167700  1
  H  276  1  0.58383200  0.00567100  0.65072600  1
  H  277  1  0.48134900  0.95129700  0.64971300  1
  H  278  1  0.40952500  0.92570700  0.67030100  1
  H  279  1  0.39119700  0.95939800  0.59029700  1
  H  280  1  0.31877200  0.93522300  0.61113300  1
  H  281  1  0.44952600  0.98581800  0.54175100  1
  H  282  1  0.44951500  0.98801300  0.50176200  1
  H  283  1  0.61190800  0.99467000  0.50179000  1
  H  284  1  0.61169700  0.99452600  0.54177700  1
  H  309  1  0.31424600  0.52787200  0.85748600  1
  H  310  1  0.38912400  0.50674300  0.87890600  1
  H  311  1  0.40648000  0.54528900  0.79939200  1
  H  312  1  0.48125200  0.52422900  0.82064100  1
  H  313  1  0.60116700  0.49451900  0.82198600  1
  H  314  1  0.67440700  0.47148800  0.80113900  1
  H  315  1  0.65582000  0.42133700  0.87884900  1
  H  316  1  0.72795200  0.39637200  0.85759200  1
  H  317  1  0.61278700  0.48453100  0.92858000  1
  H  318  1  0.61243200  0.48859500  0.96845200  1
  H  319  1  0.44954300  0.49238500  0.96820900  1
  H  320  1  0.44991500  0.49034700  0.92826700  1
  H  345  1  0.32470400  0.93104500  0.35892100  1
  H  346  1  0.39668500  0.95345400  0.38006300  1
  H  347  1  0.40675100  0.95372400  0.29838500  1
  H  348  1  0.47799200  0.97710400  0.31932900  1
  H  349  1  0.57970400  0.03312200  0.32032000  1
  H  350  1  0.65168800  0.05840900  0.29971400  1
  H  351  1  0.66970500  0.02524100  0.37977900  1
  H  352  1  0.74226500  0.04907800  0.35893800  1
  H  353  1  0.59310900  0.03639300  0.42812300  1
  H  354  1  0.59225100  0.03589400  0.46808700  1
  H  355  1  0.46926000  0.94875700  0.46847100  1
  H  356  1  0.46854200  0.95086600  0.42845900  1
  H  381  1  0.74689900  0.45494200  0.11259900  1
  H  382  1  0.67197700  0.47578000  0.09115000  1
  H  383  1  0.65477900  0.43818000  0.17077900  1
  H  384  1  0.57993500  0.45898900  0.14949100  1
  H  385  1  0.46055000  0.48988000  0.14798000  1
  H  386  1  0.38719800  0.51261700  0.16879200  1
  H  387  1  0.40606900  0.56341400  0.09119900  1
  H  388  1  0.33373400  0.58807600  0.11244600  1
  H  389  1  0.46421500  0.53767000  0.04028800  1
  H  390  1  0.46528200  0.53573600  0.00029100  1
  H  391  1  0.59598800  0.45040500  0.00313700  1
  H  392  1  0.59634600  0.45394400  0.04297000  1
  H  412  1  0.28248900  0.70943300  0.44472400  1
  H  413  1  0.20699000  0.68866300  0.46498000  1
  H  414  1  0.25147200  0.76314100  0.51993800  1
  H  415  1  0.32592100  0.78600800  0.49949000  1
  H  416  1  0.16732500  0.79472000  0.48590000  1
  H  417  1  0.09885200  0.84696800  0.48755500  1
  H  418  1  0.14897000  0.63752300  0.48930800  1
  H  419  1  0.14600000  0.56814600  0.50861700  1
  H  420  1  0.19684600  0.62559600  0.56839800  1
  H  421  1  0.19917800  0.69496300  0.54884400  1
  H  422  1  0.08334400  0.70824000  0.52735800  1
  H  423  1  0.01381900  0.76013800  0.52835100  1
  H  443  1  0.71549500  0.24976900  0.59656800  1
  H  444  1  0.78971500  0.22894000  0.57510700  1
  H  445  1  0.88064700  0.22830100  0.63393500  1
  H  446  1  0.80790600  0.25229400  0.65526700  1
  H  447  1  0.96965000  0.21678100  0.61570900  1
  H  448  1  0.03623500  0.26953100  0.61481600  1
  H  449  1  0.89287300  0.13351400  0.60747400  1
  H  450  1  0.89173100  0.06564500  0.58834800  1
  H  451  1  0.87943400  0.13450900  0.52581000  1
  H  452  1  0.88109200  0.20193400  0.54511800  1
  H  453  1  0.89791800  0.28002100  0.55962300  1
  H  454  1  0.96550200  0.33203400  0.55799900  1
  H  474  1  0.33665000  0.44715800  0.61388200  1
  H  475  1  0.26266200  0.46709600  0.59205100  1
  H  476  1  0.19115500  0.35191700  0.61447300  1
  H  477  1  0.26477200  0.33258900  0.63664000  1
  H  478  1  0.10174500  0.41063400  0.61938600  1
  H  479  1  0.03275000  0.36003900  0.61918200  1
  H  480  1  0.13407000  0.50032900  0.60158500  1
  H  481  1  0.13367600  0.56986800  0.58211100  1
  H  482  1  0.20670700  0.51135900  0.52625600  1
  H  483  1  0.20612400  0.44209900  0.54581100  1
  H  484  1  0.14396300  0.37449100  0.55367700  1
  H  485  1  0.07422200  0.32475100  0.55301600  1
  H  505  1  0.76571700  0.94833730  0.44988600  1
  H  506  1  0.83886800  0.96971030  0.47118800  1
  H  507  1  0.81586100  0.86637100  0.51786500  1
  H  508  1  0.74385900  0.84369300  0.49638200  1
  H  509  1  0.93944700  0.91115130  0.47409800  1
  H  510  1  0.00985900  0.85904900  0.47360500  1
  H  511  1  0.93292800  0.00169700  0.49784500  1
  H  512  1  0.93663000  0.06902100  0.51730300  1
  H  513  1  0.83047400  0.02172700  0.56552700  1
  H  514  1  0.82785600  0.95428930  0.54607000  1
  H  515  1  0.91709400  0.88427100  0.54339600  1
  H  516  1  0.98855600  0.83293300  0.54335800  1
  H  536  1  0.77888600  0.94864630  0.15384600  1
  H  537  1  0.85450700  0.96911730  0.13360300  1
  H  538  1  0.80984400  0.89455800  0.07870500  1
  H  539  1  0.73525400  0.87197200  0.09915200  1
  H  540  1  0.89402400  0.86291700  0.11265500  1
  H  541  1  0.96252000  0.81067900  0.11101000  1
  H  542  1  0.91253000  0.02013500  0.10929800  1
  H  543  1  0.91551900  0.08952100  0.08999900  1
  H  544  1  0.86455800  0.03213200  0.03022200  1
  H  545  1  0.86220500  0.96275630  0.04976500  1
  H  546  1  0.97812600  0.94948530  0.07129600  1
  H  547  1  0.04765300  0.89759800  0.07031000  1
  H  567  1  0.34601300  0.40829200  0.00200600  1
  H  568  1  0.27171100  0.42883700  0.02347900  1
  H  569  1  0.18086100  0.42957800  0.96462550  1
  H  570  1  0.25372500  0.40588200  0.94326950  1
  H  571  1  0.09185700  0.44088600  0.98283450  1
  H  572  1  0.02524200  0.38816100  0.98374050  1
  H  573  1  0.16849800  0.52422200  0.99111954  1
  H  574  1  0.16964000  0.59208300  0.01025400  1
  H  575  1  0.18204000  0.52320100  0.07278200  1
  H  576  1  0.18038700  0.45578200  0.05346800  1
  H  577  1  0.16346300  0.37775600  0.03898100  1
  H  578  1  0.09585400  0.32577500  0.04061900  1
  H  598  1  0.72467500  0.21033900  0.98494050  1
  H  599  1  0.79875000  0.19057300  0.00674400  1
  H  600  1  0.87014400  0.30562500  0.98405150  1
  H  601  1  0.79641500  0.32478100  0.96190750  1
  H  602  1  0.95960900  0.24709800  0.97923150  1
  H  603  1  0.02862600  0.29767900  0.97941650  1
  H  604  1  0.92730700  0.15738600  0.99702554  1
  H  605  1  0.92770900  0.08783400  0.01648600  1
  H  606  1  0.85488500  0.14634500  0.07239300  1
  H  607  1  0.85548000  0.21561300  0.05285200  1
  H  608  1  0.91743100  0.28331500  0.04493300  1
  H  609  1  0.98719100  0.33304200  0.04557400  1
  H  629  1  0.29572100  0.70895300  0.14869800  1
  H  630  1  0.22248000  0.68782900  0.12738800  1
  H  631  1  0.24570200  0.79132400  0.08082900  1
  H  632  1  0.31780600  0.81376200  0.10232900  1
  H  633  1  0.12196200  0.74651300  0.12450200  1
  H  634  1  0.05152700  0.79859200  0.12499600  1
  H  635  1  0.12853300  0.65601200  0.10076200  1
  H  636  1  0.12482700  0.58868400  0.08130700  1
  H  637  1  0.23093100  0.63599300  0.03306500  1
  H  638  1  0.23355800  0.70343400  0.05252200  1
  H  639  1  0.14441400  0.77351600  0.05522200  1
  H  640  1  0.07294000  0.82484100  0.05526200  1
  H  665  1  0.73710700  0.88890300  0.42545000  1
  H  666  1  0.66530000  0.86615900  0.40429300  1
  H  667  1  0.65488400  0.86642700  0.48595700  1
  H  668  1  0.58383200  0.84271400  0.46500600  1
  H  669  1  0.48134900  0.78834000  0.46399300  1
  H  670  1  0.40952500  0.76275000  0.48458100  1
  H  671  1  0.39119700  0.79644100  0.40457700  1
  H  672  1  0.31877200  0.77226600  0.42541300  1
  H  673  1  0.44952600  0.82286100  0.35603100  1
  H  674  1  0.44951500  0.82505600  0.31604200  1
  H  675  1  0.61190800  0.83171300  0.31607000  1
  H  676  1  0.61169700  0.83156900  0.35605700  1
  H  701  1  0.31424600  0.36491500  0.67176600  1
  H  702  1  0.38912400  0.34378600  0.69318600  1
  H  703  1  0.40648000  0.38233200  0.61367200  1
  H  704  1  0.48125200  0.36127200  0.63492100  1
  H  705  1  0.60116700  0.33156200  0.63626600  1
  H  706  1  0.67440700  0.30853100  0.61541900  1
  H  707  1  0.65582000  0.25838000  0.69312900  1
  H  708  1  0.72795200  0.23341500  0.67187200  1
  H  709  1  0.61278700  0.32157400  0.74286000  1
  H  710  1  0.61243200  0.32563800  0.78273200  1
  H  711  1  0.44954300  0.32942800  0.78248900  1
  H  712  1  0.44991500  0.32739000  0.74254700  1
  H  737  1  0.32470400  0.76808800  0.17320100  1
  H  738  1  0.39668500  0.79049700  0.19434300  1
  H  739  1  0.40675100  0.79076700  0.11266500  1
  H  740  1  0.47799200  0.81414700  0.13360900  1
  H  741  1  0.57970400  0.87016500  0.13460000  1
  H  742  1  0.65168800  0.89545200  0.11399400  1
  H  743  1  0.66970500  0.86228400  0.19405900  1
  H  744  1  0.74226500  0.88612100  0.17321800  1
  H  745  1  0.59310900  0.87343600  0.24240300  1
  H  746  1  0.59225100  0.87293700  0.28236700  1
  H  747  1  0.46926000  0.78580000  0.28275100  1
  H  748  1  0.46854200  0.78790900  0.24273900  1
  H  773  1  0.74689900  0.29198500  0.92687850  1
  H  774  1  0.67197700  0.31282300  0.90542950  1
  H  775  1  0.65477900  0.27522300  0.98505850  1
  H  776  1  0.57993500  0.29603200  0.96377050  1
  H  777  1  0.46055000  0.32692300  0.96225950  1
  H  778  1  0.38719800  0.34966000  0.98307150  1
  H  779  1  0.40606900  0.40045700  0.90547850  1
  H  780  1  0.33373400  0.42511900  0.92672550  1
  H  781  1  0.46421500  0.37471300  0.85456800  1
  H  782  1  0.46528200  0.37277900  0.81457100  1
  H  783  1  0.59598800  0.28744800  0.81741700  1
  H  784  1  0.59634600  0.29098700  0.85725000  1
  C  2  1  0.22298000  0.88599800  0.68027100  1
  C  3  1  0.17500000  0.83542800  0.70293700  1
  C  4  1  0.13365400  0.90869000  0.69252500  1
  C  5  1  0.13569600  0.94969000  0.68095900  1
  C  6  1  0.09465700  0.98067700  0.68168000  1
  C  7  1  0.04895700  0.97219300  0.69388600  1
  C  8  1  0.04644500  0.93130000  0.70541400  1
  C  9  1  0.08767400  0.90035800  0.70467700  1
  C  10  1  0.23272500  0.87116600  0.65829500  1
  C  11  1  0.27684400  0.88414700  0.64628700  1
  C  12  1  0.31242700  0.91292300  0.65564900  1
  C  13  1  0.30236100  0.92724200  0.67786300  1
  C  14  1  0.25851300  0.91396400  0.68999300  1
  C  15  1  0.15956000  0.79806100  0.69165000  1
  C  16  1  0.15804800  0.75727400  0.70307800  1
  C  17  1  0.17129600  0.75250300  0.72625000  1
  C  18  1  0.18623900  0.79041000  0.73747800  1
  C  19  1  0.18816700  0.83119200  0.72601500  1
  C  33  1  0.84226300  0.38965300  0.78816200  1
  C  34  1  0.88777000  0.33699400  0.76380000  1
  C  35  1  0.92799100  0.40622600  0.77332000  1
  C  36  1  0.96874700  0.40376000  0.78912600  1
  C  37  1  0.00755300  0.43495400  0.78866200  1
  C  38  1  0.00739900  0.46888500  0.77200800  1
  C  39  1  0.96722200  0.47055200  0.75581300  1
  C  40  1  0.92755700  0.44007800  0.75671300  1
  C  41  1  0.79365200  0.39645700  0.77777700  1
  C  42  1  0.75008900  0.40922900  0.79051400  1
  C  43  1  0.75347200  0.41660400  0.81403700  1
  C  44  1  0.80263500  0.40957800  0.82422200  1
  C  45  1  0.84598200  0.39591500  0.81161800  1
  C  46  1  0.89045300  0.29683000  0.77595500  1
  C  47  1  0.88926700  0.25699800  0.76463400  1
  C  48  1  0.88563000  0.25590200  0.74076700  1
  C  49  1  0.88324500  0.29646100  0.72873200  1
  C  50  1  0.88408000  0.33628300  0.74004100  1
  C  64  1  0.21800600  0.57505500  0.78666600  1
  C  65  1  0.16872200  0.62762300  0.76093500  1
  C  66  1  0.12882400  0.56055700  0.77217800  1
  C  67  1  0.09551000  0.55617400  0.79092200  1
  C  68  1  0.05540200  0.52616300  0.79082700  1
  C  69  1  0.04657300  0.50057900  0.77173700  1
  C  70  1  0.07884100  0.50625400  0.75267100  1
  C  71  1  0.11979000  0.53544900  0.75300600  1
  C  72  1  0.26197400  0.60153700  0.78703200  1
  C  73  1  0.30611000  0.58970700  0.79988400  1
  C  74  1  0.30805900  0.55099400  0.81335300  1
  C  75  1  0.26456900  0.52432700  0.81321400  1
  C  76  1  0.22095500  0.53588600  0.79996400  1
  C  77  1  0.14842200  0.66536100  0.77123400  1
  C  78  1  0.14897400  0.70626000  0.75983200  1
  C  79  1  0.16983600  0.71080400  0.73778100  1
  C  80  1  0.18995700  0.67257200  0.72760900  1
  C  81  1  0.18974100  0.63173000  0.73903700  1
  C  95  1  0.83369700  0.08329900  0.68234100  1
  C  96  1  0.88005800  0.13479700  0.70588400  1
  C  97  1  0.92210700  0.06567600  0.69453800  1
  C  98  1  0.94993700  0.05794600  0.67450100  1
  C  99  1  0.99155300  0.02741400  0.67434800  1
  C  100  1  0.00679800  0.00357400  0.69419400  1
  C  101  1  0.97864900  0.01181300  0.71425000  1
  C  102  1  0.93700900  0.04238100  0.71443600  1
  C  103  1  0.81847200  0.10643400  0.66243800  1
  C  104  1  0.77581500  0.09335800  0.64980500  1
  C  105  1  0.74698900  0.05670300  0.65660600  1
  C  106  1  0.76260700  0.03388500  0.67670800  1
  C  107  1  0.80513800  0.04696400  0.68937700  1
  C  108  1  0.91127800  0.16873100  0.69784000  1
  C  109  1  0.91298900  0.20840600  0.70925200  1
  C  110  1  0.88392000  0.21540200  0.72919400  1
  C  111  1  0.85284100  0.18096900  0.73714700  1
  C  112  1  0.85077100  0.14139500  0.72564800  1
  C  126  1  0.83842900  0.09763400  0.28978000  1
  C  127  1  0.88644400  0.14817300  0.26710900  1
  C  128  1  0.92776200  0.07490700  0.27752200  1
  C  129  1  0.92568900  0.03388500  0.28906200  1
  C  130  1  0.96672600  0.00289600  0.28833900  1
  C  131  1  0.01246400  0.01140900  0.27616500  1
  C  132  1  0.01500000  0.05232300  0.26466100  1
  C  133  1  0.97376700  0.08326000  0.26539400  1
  C  134  1  0.82869400  0.11259200  0.31173200  1
  C  135  1  0.78452000  0.09975700  0.32374100  1
  C  136  1  0.74882400  0.07105800  0.31439500  1
  C  137  1  0.75889200  0.05660900  0.29220400  1
  C  138  1  0.80280500  0.06973400  0.28007200  1
  C  139  1  0.90192600  0.18552200  0.27839800  1
  C  140  1  0.90347200  0.22631300  0.26697500  1
  C  141  1  0.89019000  0.23110400  0.24380800  1
  C  142  1  0.87522400  0.19321000  0.23257400  1
  C  143  1  0.87325400  0.15242600  0.24403600  1
  C  157  1  0.21919400  0.59405800  0.18185200  1
  C  158  1  0.17363800  0.64664200  0.20623000  1
  C  159  1  0.13346800  0.57739400  0.19668300  1
  C  160  1  0.09272100  0.57985300  0.18087300  1
  C  161  1  0.05390100  0.54867200  0.18134500  1
  C  162  1  0.05401900  0.51477300  0.19801500  1
  C  163  1  0.09417700  0.51312600  0.21421800  1
  C  164  1  0.13384600  0.54359700  0.21332200  1
  C  165  1  0.26780100  0.58729000  0.19224400  1
  C  166  1  0.31141900  0.57468700  0.17949700  1
  C  167  1  0.30810000  0.56745900  0.15595700  1
  C  168  1  0.25893300  0.57441600  0.14576800  1
  C  169  1  0.21552500  0.58790300  0.15838400  1
  C  170  1  0.17093300  0.68681300  0.19408000  1
  C  171  1  0.17210300  0.72664200  0.20540400  1
  C  172  1  0.17578100  0.72773000  0.22927000  1
  C  173  1  0.17819300  0.68716700  0.24130200  1
  C  174  1  0.17732700  0.64735000  0.22999000  1
  C  188  1  0.84336200  0.40848300  0.18342900  1
  C  189  1  0.89279700  0.35601200  0.20914600  1
  C  190  1  0.93256000  0.42311800  0.19788000  1
  C  191  1  0.96587200  0.42747500  0.17913300  1
  C  192  1  0.00597700  0.45748900  0.17921500  1
  C  193  1  0.01482800  0.48309300  0.19829600  1
  C  194  1  0.98253600  0.47746700  0.21735800  1
  C  195  1  0.94160800  0.44824900  0.21704200  1
  C  196  1  0.79939700  0.38198800  0.18315200  1
  C  197  1  0.75519900  0.39372400  0.17032100  1
  C  198  1  0.75318700  0.43233800  0.15678100  1
  C  199  1  0.79667200  0.45902200  0.15682800  1
  C  200  1  0.84034300  0.44756700  0.17006600  1
  C  201  1  0.91300000  0.31826500  0.19882300  1
  C  202  1  0.91246500  0.27736100  0.21022200  1
  C  203  1  0.89165700  0.27281100  0.23228100  1
  C  204  1  0.87159100  0.31104400  0.24247000  1
  C  205  1  0.87182700  0.35189600  0.23105400  1
  C  219  1  0.22774400  0.90025300  0.28773300  1
  C  220  1  0.18137300  0.84883600  0.26415300  1
  C  221  1  0.13934800  0.91795700  0.27550900  1
  C  222  1  0.11146800  0.92563300  0.29553900  1
  C  223  1  0.06983700  0.95615100  0.29569300  1
  C  224  1  0.05462700  0.98003500  0.27585500  1
  C  225  1  0.08281700  0.97183900  0.25580500  1
  C  226  1  0.12448100  0.94129300  0.25562000  1
  C  227  1  0.24292100  0.87701800  0.30761100  1
  C  228  1  0.28564800  0.88993800  0.32024500  1
  C  229  1  0.31458500  0.92655000  0.31347800  1
  C  230  1  0.29900100  0.94948700  0.29340600  1
  C  231  1  0.25637800  0.93657700  0.28074200  1
  C  232  1  0.15016300  0.81489800  0.27220000  1
  C  233  1  0.14843200  0.77522800  0.26078500  1
  C  234  1  0.17750500  0.76822600  0.24084500  1
  C  235  1  0.20857900  0.80266100  0.23288800  1
  C  236  1  0.21064600  0.84223800  0.24438500  1
  C  249  1  0.57328600  0.00082100  0.60543200  1
  C  251  1  0.53056000  0.98905000  0.57034100  1
  C  253  1  0.48773000  0.97327300  0.60531900  1
  C  255  1  0.53060200  0.99006100  0.54615100  1
  C  256  1  0.57697900  0.99329000  0.53364800  1
  C  257  1  0.57703300  0.99363600  0.50983500  1
  C  258  1  0.53072300  0.99145700  0.49722400  1
  C  259  1  0.48434700  0.98860600  0.50982400  1
  C  260  1  0.48428600  0.98759200  0.53363700  1
  C  261  1  0.61672900  0.01472600  0.61802000  1
  C  262  1  0.66229900  0.02890100  0.60724000  1
  C  263  1  0.70476700  0.04276000  0.61977800  1
  C  264  1  0.70373500  0.04304700  0.64369400  1
  C  265  1  0.65814400  0.02901800  0.65446200  1
  C  266  1  0.61575500  0.01520900  0.64195100  1
  C  267  1  0.44412400  0.95810300  0.61772900  1
  C  268  1  0.44736600  0.94823400  0.64120800  1
  C  269  1  0.40458300  0.93324300  0.65349800  1
  C  270  1  0.35625900  0.92766600  0.64298800  1
  C  271  1  0.35301300  0.93764800  0.61951400  1
  C  272  1  0.39593900  0.95228400  0.60715500  1
  C  285  1  0.48810300  0.49985800  0.86468400  1
  C  287  1  0.53165100  0.48618800  0.89989300  1
  C  289  1  0.57606600  0.47408800  0.86507600  1
  C  291  1  0.53139900  0.48699700  0.92405400  1
  C  292  1  0.48470200  0.48992900  0.93643300  1
  C  293  1  0.48450500  0.49147500  0.96020200  1
  C  294  1  0.53094400  0.49085200  0.97285600  1
  C  295  1  0.57760500  0.48808000  0.96038100  1
  C  296  1  0.57786300  0.48587800  0.93663300  1
  C  297  1  0.44317800  0.51321400  0.85206900  1
  C  298  1  0.39365500  0.51501500  0.86219000  1
  C  299  1  0.34928400  0.52709300  0.84950600  1
  C  300  1  0.35285000  0.53877900  0.82630500  1
  C  301  1  0.40227800  0.53762500  0.81620600  1
  C  302  1  0.44642400  0.52471500  0.82878200  1
  C  303  1  0.62074400  0.46051200  0.85269400  1
  C  304  1  0.62750900  0.47375200  0.82982400  1
  C  305  1  0.67091900  0.45974300  0.81736900  1
  C  306  1  0.70930600  0.43108300  0.82695800  1
  C  307  1  0.70227500  0.41784700  0.84986400  1
  C  308  1  0.65934000  0.43251100  0.86250600  1
  C  321  1  0.48857900  0.98196000  0.36462300  1
  C  323  1  0.53086800  0.99467300  0.39971000  1
  C  325  1  0.57328600  0.01120000  0.36472200  1
  C  327  1  0.53086300  0.99373100  0.42390100  1
  C  328  1  0.49494100  0.96913600  0.43651000  1
  C  329  1  0.49517700  0.96813400  0.46033000  1
  C  330  1  0.53077100  0.99215500  0.47283100  1
  C  331  1  0.56641400  0.01698000  0.46012200  1
  C  332  1  0.56673500  0.01750500  0.43631400  1
  C  333  1  0.44523300  0.96783400  0.35204500  1
  C  334  1  0.39965400  0.95369900  0.36283600  1
  C  335  1  0.35706100  0.94007500  0.35030300  1
  C  336  1  0.35796800  0.93998400  0.32638200  1
  C  337  1  0.40358000  0.95394400  0.31560500  1
  C  338  1  0.44608900  0.96753200  0.32811100  1
  C  339  1  0.61682000  0.02655300  0.35232900  1
  C  340  1  0.61366900  0.03623000  0.32883400  1
  C  341  1  0.65654900  0.05101500  0.31653500  1
  C  342  1  0.70487900  0.05653000  0.32705500  1
  C  343  1  0.70802200  0.04672600  0.35054900  1
  C  344  1  0.66499900  0.03232200  0.36291600  1
  C  357  1  0.57310200  0.48306000  0.10540800  1
  C  359  1  0.52990500  0.49727500  0.07015900  1
  C  361  1  0.48578400  0.51046100  0.10493200  1
  C  363  1  0.53032700  0.49624700  0.04600200  1
  C  364  1  0.56847600  0.47173300  0.03428900  1
  C  365  1  0.56841300  0.46981100  0.01054400  1
  C  366  1  0.53072900  0.49281300  0.99718500  1
  C  367  1  0.49284300  0.51761800  0.00896700  1
  C  368  1  0.49238400  0.51904900  0.03275200  1
  C  369  1  0.61796300  0.46954400  0.11801900  1
  C  370  1  0.66746700  0.46765200  0.10788400  1
  C  371  1  0.71187000  0.45577700  0.12058700  1
  C  372  1  0.70835400  0.44439300  0.14382400  1
  C  373  1  0.65893900  0.44562600  0.15393900  1
  C  374  1  0.61474900  0.45835700  0.14134000  1
  C  375  1  0.44117700  0.52420300  0.11732800  1
  C  376  1  0.43428100  0.51074200  0.14016000  1
  C  377  1  0.39076500  0.52454200  0.15260000  1
  C  378  1  0.35235400  0.55320200  0.14303300  1
  C  379  1  0.35947200  0.56663700  0.12016000  1
  C  380  1  0.40255100  0.55219800  0.10753500  1
  C  394  1  0.22298000  0.72304100  0.49455100  1
  C  395  1  0.17500000  0.67247100  0.51721700  1
  C  396  1  0.13365400  0.74573300  0.50680500  1
  C  397  1  0.13569600  0.78673300  0.49523900  1
  C  398  1  0.09465700  0.81772000  0.49596000  1
  C  399  1  0.04895700  0.80923600  0.50816600  1
  C  400  1  0.04644500  0.76834300  0.51969400  1
  C  401  1  0.08767400  0.73740100  0.51895700  1
  C  402  1  0.23272500  0.70820900  0.47257500  1
  C  403  1  0.27684400  0.72119000  0.46056700  1
  C  404  1  0.31242700  0.74996600  0.46992900  1
  C  405  1  0.30236100  0.76428500  0.49214300  1
  C  406  1  0.25851300  0.75100700  0.50427300  1
  C  407  1  0.15956000  0.63510400  0.50593000  1
  C  408  1  0.15804800  0.59431700  0.51735800  1
  C  409  1  0.17129600  0.58954600  0.54053000  1
  C  410  1  0.18623900  0.62745300  0.55175800  1
  C  411  1  0.18816700  0.66823500  0.54029500  1
  C  425  1  0.84226300  0.22669600  0.60244200  1
  C  426  1  0.88777000  0.17403700  0.57808000  1
  C  427  1  0.92799100  0.24326900  0.58760000  1
  C  428  1  0.96874700  0.24080300  0.60340600  1
  C  429  1  0.00755300  0.27199700  0.60294200  1
  C  430  1  0.00739900  0.30592800  0.58628800  1
  C  431  1  0.96722200  0.30759500  0.57009300  1
  C  432  1  0.92755700  0.27712100  0.57099300  1
  C  433  1  0.79365200  0.23350000  0.59205700  1
  C  434  1  0.75008900  0.24627200  0.60479400  1
  C  435  1  0.75347200  0.25364700  0.62831700  1
  C  436  1  0.80263500  0.24662100  0.63850200  1
  C  437  1  0.84598200  0.23295800  0.62589800  1
  C  438  1  0.89045300  0.13387300  0.59023500  1
  C  439  1  0.88926700  0.09404100  0.57891400  1
  C  440  1  0.88563000  0.09294500  0.55504700  1
  C  441  1  0.88324500  0.13350400  0.54301200  1
  C  442  1  0.88408000  0.17332600  0.55432100  1
  C  456  1  0.21800600  0.41209800  0.60094600  1
  C  457  1  0.16872200  0.46466600  0.57521500  1
  C  458  1  0.12882400  0.39760000  0.58645800  1
  C  459  1  0.09551000  0.39321700  0.60520200  1
  C  460  1  0.05540200  0.36320600  0.60510700  1
  C  461  1  0.04657300  0.33762200  0.58601700  1
  C  462  1  0.07884100  0.34329700  0.56695100  1
  C  463  1  0.11979000  0.37249200  0.56728600  1
  C  464  1  0.26197400  0.43858000  0.60131200  1
  C  465  1  0.30611000  0.42675000  0.61416400  1
  C  466  1  0.30805900  0.38803700  0.62763300  1
  C  467  1  0.26456900  0.36137000  0.62749400  1
  C  468  1  0.22095500  0.37292900  0.61424400  1
  C  469  1  0.14842200  0.50240400  0.58551400  1
  C  470  1  0.14897400  0.54330300  0.57411200  1
  C  471  1  0.16983600  0.54784700  0.55206100  1
  C  472  1  0.18995700  0.50961500  0.54188900  1
  C  473  1  0.18974100  0.46877300  0.55331700  1
  C  487  1  0.83369700  0.92034230  0.49662100  1
  C  488  1  0.88005800  0.97184030  0.52016400  1
  C  489  1  0.92210700  0.90271930  0.50881800  1
  C  490  1  0.94993700  0.89498900  0.48878100  1
  C  491  1  0.99155300  0.86445700  0.48862800  1
  C  492  1  0.00679800  0.84061700  0.50847400  1
  C  493  1  0.97864900  0.84885600  0.52853000  1
  C  494  1  0.93700900  0.87942400  0.52871600  1
  C  495  1  0.81847200  0.94347730  0.47671800  1
  C  496  1  0.77581500  0.93040130  0.46408500  1
  C  497  1  0.74698900  0.89374600  0.47088600  1
  C  498  1  0.76260700  0.87092800  0.49098800  1
  C  499  1  0.80513800  0.88400700  0.50365700  1
  C  500  1  0.91127800  0.00577400  0.51212000  1
  C  501  1  0.91298900  0.04544900  0.52353200  1
  C  502  1  0.88392000  0.05244500  0.54347400  1
  C  503  1  0.85284100  0.01801200  0.55142700  1
  C  504  1  0.85077100  0.97843830  0.53992800  1
  C  518  1  0.83842900  0.93467730  0.10406000  1
  C  519  1  0.88644400  0.98521630  0.08138900  1
  C  520  1  0.92776200  0.91195030  0.09180200  1
  C  521  1  0.92568900  0.87092800  0.10334200  1
  C  522  1  0.96672600  0.83993900  0.10261900  1
  C  523  1  0.01246400  0.84845200  0.09044500  1
  C  524  1  0.01500000  0.88936600  0.07894100  1
  C  525  1  0.97376700  0.92030330  0.07967400  1
  C  526  1  0.82869400  0.94963530  0.12601200  1
  C  527  1  0.78452000  0.93680030  0.13802100  1
  C  528  1  0.74882400  0.90810130  0.12867500  1
  C  529  1  0.75889200  0.89365200  0.10648400  1
  C  530  1  0.80280500  0.90677730  0.09435200  1
  C  531  1  0.90192600  0.02256500  0.09267800  1
  C  532  1  0.90347200  0.06335600  0.08125500  1
  C  533  1  0.89019000  0.06814700  0.05808800  1
  C  534  1  0.87522400  0.03025300  0.04685400  1
  C  535  1  0.87325400  0.98946930  0.05831600  1
  C  549  1  0.21919400  0.43110100  0.99613154  1
  C  550  1  0.17363800  0.48368500  0.02051000  1
  C  551  1  0.13346800  0.41443700  0.01096300  1
  C  552  1  0.09272100  0.41689600  0.99515254  1
  C  553  1  0.05390100  0.38571500  0.99562454  1
  C  554  1  0.05401900  0.35181600  0.01229500  1
  C  555  1  0.09417700  0.35016900  0.02849800  1
  C  556  1  0.13384600  0.38064000  0.02760200  1
  C  557  1  0.26780100  0.42433300  0.00652400  1
  C  558  1  0.31141900  0.41173000  0.99377654  1
  C  559  1  0.30810000  0.40450200  0.97023650  1
  C  560  1  0.25893300  0.41145900  0.96004750  1
  C  561  1  0.21552500  0.42494600  0.97266350  1
  C  562  1  0.17093300  0.52385600  0.00836000  1
  C  563  1  0.17210300  0.56368500  0.01968400  1
  C  564  1  0.17578100  0.56477300  0.04355000  1
  C  565  1  0.17819300  0.52421000  0.05558200  1
  C  566  1  0.17732700  0.48439300  0.04427000  1
  C  580  1  0.84336200  0.24552600  0.99770854  1
  C  581  1  0.89279700  0.19305500  0.02342600  1
  C  582  1  0.93256000  0.26016100  0.01216000  1
  C  583  1  0.96587200  0.26451800  0.99341254  1
  C  584  1  0.00597700  0.29453200  0.99349454  1
  C  585  1  0.01482800  0.32013600  0.01257600  1
  C  586  1  0.98253600  0.31451000  0.03163800  1
  C  587  1  0.94160800  0.28529200  0.03132200  1
  C  588  1  0.79939700  0.21903100  0.99743154  1
  C  589  1  0.75519900  0.23076700  0.98460050  1
  C  590  1  0.75318700  0.26938100  0.97106050  1
  C  591  1  0.79667200  0.29606500  0.97110750  1
  C  592  1  0.84034300  0.28461000  0.98434550  1
  C  593  1  0.91300000  0.15530800  0.01310300  1
  C  594  1  0.91246500  0.11440400  0.02450200  1
  C  595  1  0.89165700  0.10985400  0.04656100  1
  C  596  1  0.87159100  0.14808700  0.05675000  1
  C  597  1  0.87182700  0.18893900  0.04533400  1
  C  611  1  0.22774400  0.73729600  0.10201300  1
  C  612  1  0.18137300  0.68587900  0.07843300  1
  C  613  1  0.13934800  0.75500000  0.08978900  1
  C  614  1  0.11146800  0.76267600  0.10981900  1
  C  615  1  0.06983700  0.79319400  0.10997300  1
  C  616  1  0.05462700  0.81707800  0.09013500  1
  C  617  1  0.08281700  0.80888200  0.07008500  1
  C  618  1  0.12448100  0.77833600  0.06990000  1
  C  619  1  0.24292100  0.71406100  0.12189100  1
  C  620  1  0.28564800  0.72698100  0.13452500  1
  C  621  1  0.31458500  0.76359300  0.12775800  1
  C  622  1  0.29900100  0.78653000  0.10768600  1
  C  623  1  0.25637800  0.77362000  0.09502200  1
  C  624  1  0.15016300  0.65194100  0.08648000  1
  C  625  1  0.14843200  0.61227100  0.07506500  1
  C  626  1  0.17750500  0.60526900  0.05512500  1
  C  627  1  0.20857900  0.63970400  0.04716800  1
  C  628  1  0.21064600  0.67928100  0.05866500  1
  C  641  1  0.57328600  0.83786400  0.41971200  1
  C  643  1  0.53056000  0.82609300  0.38462100  1
  C  645  1  0.48773000  0.81031600  0.41959900  1
  C  647  1  0.53060200  0.82710400  0.36043100  1
  C  648  1  0.57697900  0.83033300  0.34792800  1
  C  649  1  0.57703300  0.83067900  0.32411500  1
  C  650  1  0.53072300  0.82850000  0.31150400  1
  C  651  1  0.48434700  0.82564900  0.32410400  1
  C  652  1  0.48428600  0.82463500  0.34791700  1
  C  653  1  0.61672900  0.85176900  0.43230000  1
  C  654  1  0.66229900  0.86594400  0.42152000  1
  C  655  1  0.70476700  0.87980300  0.43405800  1
  C  656  1  0.70373500  0.88009000  0.45797400  1
  C  657  1  0.65814400  0.86606100  0.46874200  1
  C  658  1  0.61575500  0.85225200  0.45623100  1
  C  659  1  0.44412400  0.79514600  0.43200900  1
  C  660  1  0.44736600  0.78527700  0.45548800  1
  C  661  1  0.40458300  0.77028600  0.46777800  1
  C  662  1  0.35625900  0.76470900  0.45726800  1
  C  663  1  0.35301300  0.77469100  0.43379400  1
  C  664  1  0.39593900  0.78932700  0.42143500  1
  C  677  1  0.48810300  0.33690100  0.67896400  1
  C  679  1  0.53165100  0.32323100  0.71417300  1
  C  681  1  0.57606600  0.31113100  0.67935600  1
  C  683  1  0.53139900  0.32404000  0.73833400  1
  C  684  1  0.48470200  0.32697200  0.75071300  1
  C  685  1  0.48450500  0.32851800  0.77448200  1
  C  686  1  0.53094400  0.32789500  0.78713600  1
  C  687  1  0.57760500  0.32512300  0.77466100  1
  C  688  1  0.57786300  0.32292100  0.75091300  1
  C  689  1  0.44317800  0.35025700  0.66634900  1
  C  690  1  0.39365500  0.35205800  0.67647000  1
  C  691  1  0.34928400  0.36413600  0.66378600  1
  C  692  1  0.35285000  0.37582200  0.64058500  1
  C  693  1  0.40227800  0.37466800  0.63048600  1
  C  694  1  0.44642400  0.36175800  0.64306200  1
  C  695  1  0.62074400  0.29755500  0.66697400  1
  C  696  1  0.62750900  0.31079500  0.64410400  1
  C  697  1  0.67091900  0.29678600  0.63164900  1
  C  698  1  0.70930600  0.26812600  0.64123800  1
  C  699  1  0.70227500  0.25489000  0.66414400  1
  C  700  1  0.65934000  0.26955400  0.67678600  1
  C  713  1  0.48857900  0.81900300  0.17890300  1
  C  715  1  0.53086800  0.83171600  0.21399000  1
  C  717  1  0.57328600  0.84824300  0.17900200  1
  C  719  1  0.53086300  0.83077400  0.23818100  1
  C  720  1  0.49494100  0.80617900  0.25079000  1
  C  721  1  0.49517700  0.80517700  0.27461000  1
  C  722  1  0.53077100  0.82919800  0.28711100  1
  C  723  1  0.56641400  0.85402300  0.27440200  1
  C  724  1  0.56673500  0.85454800  0.25059400  1
  C  725  1  0.44523300  0.80487700  0.16632500  1
  C  726  1  0.39965400  0.79074200  0.17711600  1
  C  727  1  0.35706100  0.77711800  0.16458300  1
  C  728  1  0.35796800  0.77702700  0.14066200  1
  C  729  1  0.40358000  0.79098700  0.12988500  1
  C  730  1  0.44608900  0.80457500  0.14239100  1
  C  731  1  0.61682000  0.86359600  0.16660900  1
  C  732  1  0.61366900  0.87327300  0.14311400  1
  C  733  1  0.65654900  0.88805800  0.13081500  1
  C  734  1  0.70487900  0.89357300  0.14133500  1
  C  735  1  0.70802200  0.88376900  0.16482900  1
  C  736  1  0.66499900  0.86936500  0.17719600  1
  C  749  1  0.57310200  0.32010300  0.91968750  1
  C  751  1  0.52990500  0.33431800  0.88443900  1
  C  753  1  0.48578400  0.34750400  0.91921150  1
  C  755  1  0.53032700  0.33333333  0.86028200  1
  C  756  1  0.56847600  0.30877600  0.84856900  1
  C  757  1  0.56841300  0.30685400  0.82482400  1
  C  758  1  0.53072900  0.32985600  0.81146500  1
  C  759  1  0.49284300  0.35466100  0.82324700  1
  C  760  1  0.49238400  0.35609200  0.84703200  1
  C  761  1  0.61796300  0.30658700  0.93229850  1
  C  762  1  0.66746700  0.30469500  0.92216350  1
  C  763  1  0.71187000  0.29282000  0.93486650  1
  C  764  1  0.70835400  0.28143600  0.95810350  1
  C  765  1  0.65893900  0.28266900  0.96821850  1
  C  766  1  0.61474900  0.29540000  0.95561950  1
  C  767  1  0.44117700  0.36124600  0.93160750  1
  C  768  1  0.43428100  0.34778500  0.95443950  1
  C  769  1  0.39076500  0.36158500  0.96687950  1
  C  770  1  0.35235400  0.39024500  0.95731250  1
  C  771  1  0.35947200  0.40368000  0.93443950  1
  C  772  1  0.40255100  0.38924100  0.92181450  1
  N  1  1  0.17560200  0.87668400  0.69134700  1
  N  32  1  0.88646100  0.37713800  0.77531500  1
  N  63  1  0.17292700  0.58714600  0.77323800  1
  N  94  1  0.87845900  0.09477000  0.69440500  1
  N  125  1  0.88580600  0.10690700  0.27869000  1
  N  156  1  0.17498000  0.60650400  0.19470800  1
  N  187  1  0.88848300  0.39648900  0.19684800  1
  N  218  1  0.18299700  0.88886200  0.27563700  1
  N  250  1  0.57214500  0.00158100  0.58241400  1
  N  252  1  0.48892400  0.97520000  0.58232300  1
  N  254  1  0.53048800  0.98636600  0.61621800  1
  N  286  1  0.48896600  0.49879800  0.88767800  1
  N  288  1  0.57464300  0.47384900  0.88808200  1
  N  290  1  0.53229200  0.48739500  0.85397300  1
  N  322  1  0.48980200  0.98106800  0.38764400  1
  N  324  1  0.57199500  0.00950400  0.38771500  1
  N  326  1  0.53095600  0.99724700  0.35382200  1
  N  358  1  0.57217000  0.48379100  0.08242600  1
  N  360  1  0.48728300  0.51073900  0.08191700  1
  N  362  1  0.52922200  0.49640000  0.11607400  1
  N  393  1  0.17560200  0.71372700  0.50562700  1
  N  424  1  0.88646100  0.21418100  0.58959500  1
  N  455  1  0.17292700  0.42418900  0.58751800  1
  N  486  1  0.87845900  0.93181330  0.50868500  1
  N  517  1  0.88580600  0.94395030  0.09297000  1
  N  548  1  0.17498000  0.44354700  0.00898800  1
  N  579  1  0.88848300  0.23353200  0.01112800  1
  N  610  1  0.18299700  0.72590500  0.08991700  1
  N  642  1  0.57214500  0.83862400  0.39669400  1
  N  644  1  0.48892400  0.81224300  0.39660300  1
  N  646  1  0.53048800  0.82340900  0.43049800  1
  N  678  1  0.48896600  0.33584100  0.70195800  1
  N  680  1  0.57464300  0.31089200  0.70236200  1
  N  682  1  0.53229200  0.32443800  0.66825300  1
  N  714  1  0.48980200  0.81811100  0.20192400  1
  N  716  1  0.57199500  0.84654700  0.20199500  1
  N  718  1  0.53095600  0.83429000  0.16810200  1
  N  750  1  0.57217000  0.32083400  0.89670600  1
  N  752  1  0.48728300  0.34778200  0.89619700  1
  N  754  1  0.52922200  0.33344300  0.93035350  1
