# generated using pymatgen
data_H5C14N6O
_symmetry_space_group_name_H-M   'P 1'
_cell_length_a   39.91760000
_cell_length_b   46.00080000
_cell_length_c   60.44420000
_cell_angle_alpha   90.00370000
_cell_angle_beta   90.40020000
_cell_angle_gamma   89.47420000
_symmetry_Int_Tables_number   1
_chemical_formula_structural   H5C14N6O
_chemical_formula_sum   'H160 C448 N192 O32'
_cell_volume   110982.76963681
_cell_formula_units_Z   32
loop_
 _symmetry_equiv_pos_site_id
 _symmetry_equiv_pos_as_xyz
  1  'x, y, z'
loop_
 _atom_site_type_symbol
 _atom_site_label
 _atom_site_symmetry_multiplicity
 _atom_site_fract_x
 _atom_site_fract_y
 _atom_site_fract_z
 _atom_site_occupancy
  H  7  1  0.87465700  0.83404300  0.84546700  1
  H  8  1  0.85623800  0.81443400  0.91194800  1
  H  15  1  0.98416100  0.91124200  0.81027000  1
  H  16  1  0.93169800  0.90672400  0.86950700  1
  H  19  1  0.94102900  0.88438400  0.90614500  1
  H  20  1  0.91616600  0.82754400  0.81315400  1
  H  31  1  0.14633400  0.18504700  0.84466500  1
  H  32  1  0.16408300  0.20485000  0.91134200  1
  H  39  1  0.03935400  0.10763000  0.80696400  1
  H  40  1  0.08902700  0.11227200  0.86771300  1
  H  43  1  0.07971500  0.13452100  0.90441000  1
  H  44  1  0.10492200  0.19251300  0.81221400  1
  H  55  1  0.87768700  0.18636600  0.63220700  1
  H  56  1  0.85869600  0.20580700  0.56552900  1
  H  63  1  0.98630000  0.10748800  0.66862800  1
  H  64  1  0.93326800  0.11287300  0.60902300  1
  H  67  1  0.94384800  0.13483900  0.57232600  1
  H  68  1  0.91990300  0.19366300  0.66384700  1
  H  79  1  0.14559600  0.83226800  0.63369100  1
  H  80  1  0.16295900  0.81398500  0.56684000  1
  H  87  1  0.03611600  0.90767100  0.67186500  1
  H  88  1  0.08565700  0.90464100  0.61135400  1
  H  91  1  0.07606400  0.88306600  0.57438200  1
  H  92  1  0.10571900  0.82431600  0.66632200  1
  H  103  1  0.14615100  0.18456600  0.13263200  1
  H  104  1  0.16195500  0.20830800  0.06657100  1
  H  111  1  0.03574500  0.10827800  0.16726900  1
  H  112  1  0.08680200  0.11447700  0.10752200  1
  H  115  1  0.07511400  0.13984300  0.07165800  1
  H  116  1  0.10466400  0.19146900  0.16525400  1
  H  127  1  0.87354100  0.83568700  0.13343900  1
  H  128  1  0.85839900  0.81201100  0.06717000  1
  H  135  1  0.98117400  0.91240000  0.17068400  1
  H  136  1  0.93269300  0.90630100  0.10952900  1
  H  139  1  0.94439900  0.88129500  0.07350600  1
  H  140  1  0.91500300  0.82777400  0.16610500  1
  H  151  1  0.14310700  0.83368900  0.34602900  1
  H  152  1  0.15959800  0.81006500  0.41226000  1
  H  159  1  0.03353500  0.91164500  0.31026400  1
  H  160  1  0.08522700  0.90458000  0.37033800  1
  H  163  1  0.07230900  0.87954300  0.40623500  1
  H  164  1  0.10081100  0.82590900  0.31407000  1
  H  175  1  0.87430800  0.18558400  0.34453000  1
  H  176  1  0.85941700  0.20783800  0.41101100  1
  H  183  1  0.98448400  0.11092600  0.30682600  1
  H  184  1  0.93610000  0.11538400  0.36777500  1
  H  187  1  0.94786600  0.13973800  0.40410400  1
  H  188  1  0.91416300  0.19393300  0.31168100  1
  H  199  1  0.37593000  0.33313100  0.84498100  1
  H  200  1  0.35591000  0.31256000  0.91104700  1
  H  207  1  0.48507700  0.41096400  0.81087200  1
  H  208  1  0.43240000  0.40575600  0.86998000  1
  H  211  1  0.43993600  0.38338900  0.90670900  1
  H  212  1  0.41748200  0.32713000  0.81297800  1
  H  223  1  0.64568500  0.68536000  0.84413700  1
  H  224  1  0.66519100  0.70580900  0.91045600  1
  H  231  1  0.53933200  0.60714000  0.80740800  1
  H  232  1  0.58932400  0.61227900  0.86800300  1
  H  235  1  0.58193800  0.63429100  0.90490700  1
  H  236  1  0.60413800  0.69238800  0.81209800  1
  H  247  1  0.37890100  0.68722300  0.63274700  1
  H  248  1  0.35811300  0.70757800  0.56648200  1
  H  255  1  0.48732300  0.60777900  0.66797300  1
  H  256  1  0.43400400  0.61387900  0.60852500  1
  H  259  1  0.44279400  0.63598800  0.57173300  1
  H  260  1  0.42116300  0.69401000  0.66405600  1
  H  271  1  0.64511100  0.33181600  0.63424100  1
  H  272  1  0.66448000  0.31348600  0.56767300  1
  H  279  1  0.53610100  0.40831400  0.67129400  1
  H  280  1  0.58552100  0.40429300  0.61073700  1
  H  283  1  0.55388000  0.35297700  0.58423600  1
  H  284  1  0.60527200  0.32474400  0.66666667  1
  H  295  1  0.64562700  0.68468400  0.13316000  1
  H  296  1  0.66305000  0.70910500  0.06747600  1
  H  303  1  0.53576900  0.60779800  0.16688900  1
  H  304  1  0.58712000  0.61438600  0.10728000  1
  H  307  1  0.57728800  0.63948300  0.07114500  1
  H  308  1  0.60404200  0.69126200  0.16536500  1
  H  319  1  0.37479600  0.33490800  0.13400700  1
  H  320  1  0.35799400  0.31025400  0.06815900  1
  H  327  1  0.48219300  0.41207700  0.17012700  1
  H  328  1  0.43348700  0.40532900  0.10910200  1
  H  331  1  0.44338100  0.38027400  0.07291700  1
  H  332  1  0.41637200  0.32733700  0.16632100  1
  H  343  1  0.64273400  0.33376000  0.34547800  1
  H  344  1  0.66111000  0.30968300  0.41136300  1
  H  351  1  0.53362500  0.41230500  0.31068100  1
  H  352  1  0.58565100  0.40482600  0.37059600  1
  H  355  1  0.57460500  0.38003300  0.40677200  1
  H  356  1  0.60041200  0.32639400  0.31393900  1
  H  367  1  0.37540400  0.68635000  0.34397600  1
  H  368  1  0.35876300  0.70959000  0.41003000  1
  H  375  1  0.48551400  0.61134300  0.30741200  1
  H  376  1  0.43689200  0.61645000  0.36824500  1
  H  379  1  0.44684500  0.64090000  0.40471400  1
  H  380  1  0.41540700  0.69440700  0.31146400  1
  H  396  1  0.86905900  0.85920700  0.03868800  1
  H  398  1  0.90538100  0.80506400  0.94111700  1
  H  410  1  0.15095500  0.16100100  0.03797700  1
  H  412  1  0.11457800  0.21434400  0.93971700  1
  H  424  1  0.87206500  0.16052100  0.43900900  1
  H  426  1  0.90790000  0.21478800  0.53680900  1
  H  438  1  0.14804700  0.85748800  0.44072500  1
  H  440  1  0.11298500  0.80418000  0.53847900  1
  H  452  1  0.36703700  0.35682000  0.03896000  1
  H  454  1  0.40273800  0.30359600  0.94106100  1
  H  466  1  0.65406800  0.66226200  0.03828000  1
  H  468  1  0.61787600  0.71459300  0.93974200  1
  H  480  1  0.36991700  0.66292200  0.43873600  1
  H  482  1  0.40492700  0.71633700  0.53686700  1
  H  494  1  0.65149700  0.35658900  0.44040200  1
  H  496  1  0.61636700  0.30445000  0.53843100  1
  H  508  1  0.05935400  0.06347000  0.87116900  1
  H  510  1  0.96511900  0.96104000  0.81897200  1
  H  522  1  0.05638500  0.95282800  0.60828200  1
  H  524  1  0.96479300  0.05789200  0.66010100  1
  H  536  1  0.96080000  0.95606400  0.10632400  1
  H  538  1  0.05554200  0.05882900  0.15783600  1
  H  550  1  0.96361300  0.06622200  0.37051500  1
  H  552  1  0.05591400  0.96082500  0.31953400  1
  H  564  1  0.56007500  0.56311100  0.87155900  1
  H  566  1  0.46552200  0.46056100  0.81977500  1
  H  578  1  0.55706400  0.45314500  0.60768500  1
  H  580  1  0.46539300  0.55840100  0.65923900  1
  H  592  1  0.46160300  0.45543200  0.10570500  1
  H  594  1  0.55583600  0.55846900  0.15738700  1
  H  606  1  0.46443000  0.56697800  0.37118200  1
  H  608  1  0.55625400  0.46135300  0.32003400  1
  H  620  1  0.71919100  0.70327400  0.89207600  1
  H  622  1  0.81659500  0.80701700  0.84366300  1
  H  634  1  0.30203700  0.31569200  0.89204500  1
  H  636  1  0.20402800  0.21183300  0.84345200  1
  H  648  1  0.71864500  0.31678100  0.58658200  1
  H  650  1  0.81958900  0.21235600  0.63368000  1
  H  662  1  0.30428400  0.70398000  0.58534800  1
  H  664  1  0.20410100  0.80631900  0.63479100  1
  H  676  1  0.30295400  0.31415700  0.08510400  1
  H  678  1  0.20425600  0.21211900  0.13453800  1
  H  690  1  0.71792200  0.70504100  0.08516200  1
  H  692  1  0.81606100  0.80805800  0.13475400  1
  H  704  1  0.30347100  0.70447700  0.39266300  1
  H  706  1  0.20121000  0.80709700  0.34442100  1
  H  718  1  0.71590000  0.31403400  0.39381000  1
  H  720  1  0.81598500  0.21243400  0.34333500  1
  H  732  1  0.01795900  0.86829700  0.79656900  1
  H  734  1  0.00404000  0.86183100  0.68660700  1
  H  746  1  0.00499700  0.14797100  0.79177800  1
  H  748  1  0.97625500  0.19801000  0.69028200  1
  H  760  1  0.00215500  0.15122200  0.18153900  1
  H  762  1  0.01642300  0.15695000  0.29168500  1
  H  774  1  0.01534400  0.87245900  0.18643600  1
  H  776  1  0.04362900  0.82153600  0.28780500  1
  H  788  1  0.51879000  0.36843700  0.79660400  1
  H  790  1  0.50401700  0.36274700  0.68658800  1
  H  802  1  0.50506300  0.64677300  0.79164100  1
  H  804  1  0.47728500  0.69799800  0.69029200  1
  H  816  1  0.50217700  0.65024200  0.18163000  1
  H  818  1  0.51731500  0.65698100  0.29170300  1
  H  830  1  0.51620900  0.37264900  0.18644000  1
  H  832  1  0.54341000  0.32224400  0.28812800  1
  C  1  1  0.91066600  0.85189200  0.86761000  1
  C  2  1  0.88185600  0.83541200  0.86168000  1
  C  3  1  0.86213100  0.82108000  0.87769900  1
  C  4  1  0.87095500  0.82391200  0.90018300  1
  C  5  1  0.89902200  0.84001800  0.90708000  1
  C  6  1  0.91861600  0.85392300  0.89072700  1
  C  9  1  0.92985200  0.86743100  0.85098300  1
  C  10  1  0.93992300  0.85528300  0.83017500  1
  C  11  1  0.96045100  0.87098500  0.81516900  1
  C  12  1  0.96948700  0.89965400  0.82086700  1
  C  13  1  0.95930300  0.91287900  0.84075200  1
  C  14  1  0.93947600  0.89662600  0.85535400  1
  C  25  1  0.11015200  0.16721300  0.86634500  1
  C  26  1  0.13898900  0.18370700  0.86078400  1
  C  27  1  0.15854700  0.19808900  0.87703600  1
  C  28  1  0.14949100  0.19531600  0.89940000  1
  C  29  1  0.12139400  0.17917300  0.90594900  1
  C  30  1  0.10201000  0.16515200  0.88935300  1
  C  33  1  0.09119100  0.15174400  0.84940600  1
  C  34  1  0.08134500  0.16413500  0.82853400  1
  C  35  1  0.06156900  0.14841600  0.81291000  1
  C  36  1  0.05294800  0.11952700  0.81815500  1
  C  37  1  0.06196000  0.10652900  0.83835900  1
  C  38  1  0.08164600  0.12246600  0.85346000  1
  C  49  1  0.91376400  0.16826800  0.61033500  1
  C  50  1  0.88481200  0.18492100  0.61604100  1
  C  51  1  0.86481900  0.19921800  0.59983300  1
  C  52  1  0.87360900  0.19630200  0.57741800  1
  C  53  1  0.90185000  0.17996400  0.57077500  1
  C  54  1  0.92162500  0.16593600  0.58730400  1
  C  57  1  0.93282300  0.15251200  0.62715100  1
  C  58  1  0.94353600  0.16478200  0.64780200  1
  C  59  1  0.96297300  0.14822700  0.66329600  1
  C  60  1  0.97142200  0.11929900  0.65796900  1
  C  61  1  0.96074800  0.10620200  0.63811000  1
  C  62  1  0.94138200  0.12288700  0.62315900  1
  C  73  1  0.10834300  0.84998800  0.61213900  1
  C  74  1  0.13790000  0.83381700  0.61758000  1
  C  75  1  0.15770400  0.82005200  0.60119800  1
  C  76  1  0.14820000  0.82311100  0.57884800  1
  C  77  1  0.11937200  0.83898600  0.57242500  1
  C  78  1  0.09972400  0.85240900  0.58913700  1
  C  81  1  0.08915300  0.86488100  0.62921400  1
  C  82  1  0.08036700  0.85218600  0.65004400  1
  C  83  1  0.06019700  0.86747300  0.66568300  1
  C  84  1  0.04999700  0.89615300  0.66058400  1
  C  85  1  0.05852600  0.90958300  0.64058000  1
  C  86  1  0.07862600  0.89412000  0.62543100  1
  C  97  1  0.10874900  0.16889100  0.11052200  1
  C  98  1  0.13839700  0.18419900  0.11649100  1
  C  99  1  0.15789300  0.19904000  0.10061500  1
  C  100  1  0.14810600  0.19765700  0.07822000  1
  C  101  1  0.11957600  0.18221600  0.07127400  1
  C  102  1  0.09957300  0.16861900  0.08755900  1
  C  105  1  0.08961200  0.15297800  0.12691900  1
  C  106  1  0.08006000  0.16455700  0.14800200  1
  C  107  1  0.05955800  0.14857400  0.16283400  1
  C  108  1  0.05028400  0.12010000  0.15673900  1
  C  109  1  0.06002200  0.10738400  0.13655400  1
  C  110  1  0.07953200  0.12404700  0.12200800  1
  C  121  1  0.91093200  0.85167700  0.11181000  1
  C  122  1  0.88138000  0.83617200  0.11739100  1
  C  123  1  0.86212000  0.82126200  0.10126200  1
  C  124  1  0.87205900  0.82275700  0.07899400  1
  C  125  1  0.90047700  0.83843900  0.07241600  1
  C  126  1  0.92023600  0.85215700  0.08896400  1
  C  129  1  0.92980900  0.86747900  0.12855500  1
  C  130  1  0.93926500  0.85553800  0.14963500  1
  C  131  1  0.95899700  0.87151400  0.16511200  1
  C  132  1  0.96772700  0.90028500  0.15955500  1
  C  133  1  0.95902600  0.91287100  0.13913000  1
  C  134  1  0.93964900  0.89656700  0.12406700  1
  C  145  1  0.10565400  0.84955700  0.36788400  1
  C  146  1  0.13544900  0.83411300  0.36212200  1
  C  147  1  0.15523700  0.81930100  0.37817700  1
  C  148  1  0.14551700  0.82073800  0.40049900  1
  C  149  1  0.11680800  0.83638000  0.40720900  1
  C  150  1  0.09659700  0.85010800  0.39076400  1
  C  153  1  0.08658900  0.86568900  0.35132300  1
  C  154  1  0.07635700  0.85397300  0.33039700  1
  C  155  1  0.05692200  0.87083500  0.31511000  1
  C  156  1  0.04826500  0.89958400  0.32085100  1
  C  157  1  0.05851900  0.91217400  0.34100800  1
  C  158  1  0.07758100  0.89507500  0.35587800  1
  C  169  1  0.91268900  0.16971700  0.36605800  1
  C  170  1  0.88246000  0.18489600  0.36058300  1
  C  171  1  0.86294900  0.19922400  0.37684300  1
  C  172  1  0.87328300  0.19746400  0.39911200  1
  C  173  1  0.90237800  0.18200700  0.40558300  1
  C  174  1  0.92239000  0.16888700  0.38892200  1
  C  177  1  0.93182300  0.15449000  0.34917200  1
  C  178  1  0.94019100  0.16672100  0.32812600  1
  C  179  1  0.96033600  0.15118300  0.31262900  1
  C  180  1  0.97071300  0.12264300  0.31804500  1
  C  181  1  0.96250800  0.10962600  0.33828100  1
  C  182  1  0.94269100  0.12545000  0.35340100  1
  C  193  1  0.41115600  0.35091100  0.86764100  1
  C  194  1  0.38266400  0.33429000  0.86129800  1
  C  195  1  0.36199000  0.32016100  0.87686900  1
  C  196  1  0.37051900  0.32257500  0.89953000  1
  C  197  1  0.39830100  0.33872600  0.90689900  1
  C  198  1  0.41826100  0.35290200  0.89087200  1
  C  201  1  0.43070100  0.36661900  0.85124900  1
  C  202  1  0.44088700  0.35473900  0.83036700  1
  C  203  1  0.46142600  0.37063200  0.81548500  1
  C  204  1  0.47043000  0.39923000  0.82139300  1
  C  205  1  0.46017600  0.41222800  0.84134800  1
  C  206  1  0.44031500  0.39577900  0.85581800  1
  C  217  1  0.61046600  0.66731000  0.86634400  1
  C  218  1  0.63886700  0.68410200  0.86037200  1
  C  219  1  0.65934000  0.69828600  0.87620300  1
  C  220  1  0.65071500  0.69574100  0.89875600  1
  C  221  1  0.62302300  0.67939100  0.90577100  1
  C  222  1  0.60327700  0.66511900  0.88948300  1
  C  225  1  0.59116600  0.65170800  0.84960900  1
  C  226  1  0.58109900  0.66393200  0.82871200  1
  C  227  1  0.56135400  0.64804700  0.81317200  1
  C  228  1  0.55287500  0.61916500  0.81854200  1
  C  229  1  0.56203300  0.60632000  0.83877600  1
  C  230  1  0.58174500  0.62241400  0.85377400  1
  C  241  1  0.41423400  0.66928500  0.61032400  1
  C  242  1  0.38557400  0.68603100  0.61647200  1
  C  243  1  0.36460100  0.70009900  0.60071300  1
  C  244  1  0.37302000  0.69760600  0.57811100  1
  C  245  1  0.40102100  0.68130200  0.57097400  1
  C  246  1  0.42123200  0.66703900  0.58716800  1
  C  249  1  0.43369200  0.65334300  0.62688300  1
  C  250  1  0.44452900  0.66533200  0.64761300  1
  C  251  1  0.46401700  0.64858500  0.66295900  1
  C  252  1  0.47245100  0.61973100  0.65740300  1
  C  253  1  0.46170000  0.60686900  0.63747000  1
  C  254  1  0.44226800  0.62376000  0.62267300  1
  C  265  1  0.60867500  0.34969500  0.61221500  1
  C  266  1  0.63785500  0.33324600  0.61802700  1
  C  267  1  0.65860700  0.31982100  0.60202200  1
  C  268  1  0.64963600  0.32287500  0.57947800  1
  C  269  1  0.62115100  0.33894400  0.57263500  1
  C  270  1  0.60075400  0.35195400  0.58909500  1
  C  273  1  0.58917400  0.36485300  0.62902700  1
  C  274  1  0.58030100  0.35248900  0.64996100  1
  C  275  1  0.56011700  0.36801600  0.66545200  1
  C  276  1  0.54994900  0.39662000  0.66010300  1
  C  277  1  0.55848200  0.40973900  0.63997300  1
  C  278  1  0.57855100  0.39401100  0.62494100  1
  C  289  1  0.60912900  0.66884700  0.11053100  1
  C  290  1  0.63840000  0.68440200  0.11690400  1
  C  291  1  0.65881200  0.69900900  0.10143700  1
  C  292  1  0.64936400  0.69791300  0.07887200  1
  C  293  1  0.62121200  0.68229300  0.07146600  1
  C  294  1  0.60084700  0.66844200  0.08743400  1
  C  297  1  0.58964100  0.65285400  0.12673500  1
  C  298  1  0.57991300  0.66429600  0.14783500  1
  C  299  1  0.55943400  0.64818300  0.16259700  1
  C  300  1  0.55027100  0.61971900  0.15640300  1
  C  301  1  0.56013600  0.60712300  0.13619900  1
  C  302  1  0.57966700  0.62391400  0.12173900  1
  C  313  1  0.41145400  0.35072300  0.11182700  1
  C  314  1  0.38216100  0.33515500  0.11784400  1
  C  315  1  0.36191300  0.32048000  0.10214500  1
  C  316  1  0.37156100  0.32151000  0.07970400  1
  C  317  1  0.39973600  0.33717400  0.07263400  1
  C  318  1  0.41991400  0.35114500  0.08884000  1
  C  321  1  0.43073400  0.36665700  0.12833200  1
  C  322  1  0.44030700  0.35496400  0.14947900  1
  C  323  1  0.46007100  0.37111200  0.16483600  1
  C  324  1  0.46877600  0.39981700  0.15907500  1
  C  325  1  0.46001400  0.41217700  0.13858400  1
  C  326  1  0.44058300  0.39570200  0.12365000  1
  C  337  1  0.60617800  0.34977000  0.36787300  1
  C  338  1  0.63560500  0.33410100  0.36169200  1
  C  339  1  0.65635400  0.31958500  0.37734600  1
  C  340  1  0.64707900  0.32080000  0.39985800  1
  C  341  1  0.61871300  0.33657200  0.40703200  1
  C  342  1  0.59805900  0.35046700  0.39090100  1
  C  345  1  0.58673200  0.36598400  0.35151200  1
  C  346  1  0.57632900  0.35442600  0.33056300  1
  C  347  1  0.55688300  0.37141400  0.31535800  1
  C  348  1  0.54833400  0.40014500  0.32121500  1
  C  349  1  0.55870900  0.41260100  0.34139500  1
  C  350  1  0.57781300  0.39537000  0.35616700  1
  C  361  1  0.41312600  0.67075200  0.36605400  1
  C  362  1  0.38310500  0.68594400  0.36013800  1
  C  363  1  0.36258700  0.70000200  0.37596600  1
  C  364  1  0.37262500  0.69874400  0.39841100  1
  C  365  1  0.40152400  0.68335800  0.40537400  1
  C  366  1  0.42199700  0.67000900  0.38905600  1
  C  369  1  0.43268700  0.65539000  0.34941500  1
  C  370  1  0.44115600  0.66736200  0.32829000  1
  C  371  1  0.46135400  0.65165700  0.31292100  1
  C  372  1  0.47175000  0.62319900  0.31855200  1
  C  373  1  0.46349500  0.61041400  0.33886500  1
  C  374  1  0.44360600  0.62640400  0.35385400  1
  C  385  1  0.89850100  0.84697000  0.01244500  1
  C  387  1  0.92284200  0.81673800  0.98401400  1
  C  388  1  0.90779600  0.83393900  0.96706000  1
  C  390  1  0.88404600  0.86454100  0.99544700  1
  C  391  1  0.86465400  0.88695100  0.99898500  1
  C  392  1  0.94084600  0.79354900  0.98031600  1
  C  395  1  0.89081000  0.84973100  0.03490400  1
  C  397  1  0.90670100  0.82612900  0.94472900  1
  C  399  1  0.12173500  0.17325700  0.01135200  1
  C  401  1  0.09724400  0.20310800  0.98252200  1
  C  402  1  0.11227100  0.18573300  0.96579900  1
  C  404  1  0.13620100  0.15552600  0.99458400  1
  C  405  1  0.15562700  0.13317400  0.99842000  1
  C  406  1  0.07914600  0.22620600  0.97853000  1
  C  409  1  0.12934900  0.17066400  0.03390700  1
  C  411  1  0.11333500  0.19330900  0.94342800  1
  C  413  1  0.90134300  0.17278500  0.46546300  1
  C  415  1  0.92517000  0.20302600  0.49405700  1
  C  416  1  0.91050500  0.18585900  0.51090200  1
  C  418  1  0.88730400  0.15523100  0.48235100  1
  C  419  1  0.86836200  0.13282600  0.47867700  1
  C  420  1  0.94270100  0.22622100  0.49786800  1
  C  423  1  0.89358000  0.17008400  0.44295000  1
  C  425  1  0.90937500  0.19370500  0.53321300  1
  C  427  1  0.11898900  0.84547700  0.46710700  1
  C  429  1  0.09481000  0.81578600  0.49568000  1
  C  430  1  0.10966200  0.83301200  0.51255500  1
  C  432  1  0.13328800  0.86306800  0.48400900  1
  C  433  1  0.15258700  0.88519700  0.48035900  1
  C  434  1  0.07701600  0.79279100  0.49949000  1
  C  437  1  0.12656300  0.84798200  0.44462500  1
  C  439  1  0.11107100  0.82524400  0.53488400  1
  C  441  1  0.39636000  0.34503000  0.01253800  1
  C  443  1  0.42084800  0.31517500  0.98392700  1
  C  444  1  0.40552800  0.33234100  0.96705500  1
  C  446  1  0.38156000  0.36253800  0.99562100  1
  C  447  1  0.36194800  0.38476400  0.99929900  1
  C  448  1  0.43911400  0.29217700  0.98009600  1
  C  451  1  0.38893200  0.34769600  0.03506000  1
  C  453  1  0.40448500  0.32462800  0.94469100  1
  C  455  1  0.62490800  0.67389100  0.01145400  1
  C  457  1  0.59989200  0.70315500  0.98246600  1
  C  458  1  0.61546900  0.68601700  0.96582100  1
  C  460  1  0.63999900  0.65641800  0.99476200  1
  C  461  1  0.65996300  0.63446200  0.99873000  1
  C  462  1  0.58121200  0.72586600  0.97835400  1
  C  465  1  0.63224800  0.67143900  0.03407200  1
  C  467  1  0.61640900  0.69356400  0.94343300  1
  C  469  1  0.39903700  0.67479800  0.46537500  1
  C  471  1  0.42290900  0.70472300  0.49415300  1
  C  472  1  0.40802400  0.68755000  0.51091100  1
  C  474  1  0.38469700  0.65727300  0.48217600  1
  C  475  1  0.36559600  0.63501000  0.47835400  1
  C  476  1  0.44063000  0.72776700  0.49810500  1
  C  479  1  0.39156100  0.67217800  0.44280100  1
  C  481  1  0.40692000  0.69529100  0.53325400  1
  C  483  1  0.62251900  0.34527500  0.46702100  1
  C  485  1  0.59750700  0.31640700  0.49576900  1
  C  486  1  0.61308000  0.33333333  0.51255800  1
  C  488  1  0.63762100  0.36250800  0.48384200  1
  C  489  1  0.65768300  0.38407500  0.48005300  1
  C  490  1  0.57890500  0.29394500  0.49970700  1
  C  493  1  0.62980400  0.34757500  0.44446600  1
  C  495  1  0.61433100  0.32552400  0.53489500  1
  C  497  1  0.02882400  0.03573000  0.85285100  1
  C  499  1  0.98619700  0.01412800  0.82975500  1
  C  500  1  0.98913100  0.98737700  0.84134800  1
  C  502  1  0.03117200  0.00921900  0.86481400  1
  C  503  1  0.05191900  0.00471600  0.88117400  1
  C  504  1  0.96629600  0.01895900  0.81296800  1
  C  507  1  0.04778200  0.06059400  0.85676000  1
  C  509  1  0.97324700  0.96201700  0.83455500  1
  C  511  1  0.02621000  0.98120100  0.62634000  1
  C  513  1  0.98388300  0.00394000  0.64898300  1
  C  514  1  0.98798500  0.03078400  0.63780600  1
  C  516  1  0.02975300  0.00784600  0.61479200  1
  C  517  1  0.05103300  0.01192300  0.59891100  1
  C  518  1  0.96345400  0.99960400  0.66532800  1
  C  521  1  0.04461100  0.95582200  0.62251900  1
  C  523  1  0.97294000  0.05663700  0.64460200  1
  C  525  1  0.99152500  0.98391000  0.12441700  1
  C  527  1  0.03439300  0.00577600  0.14717300  1
  C  528  1  0.03094400  0.03258000  0.13568600  1
  C  530  1  0.98859600  0.01049200  0.11258600  1
  C  531  1  0.96740600  0.01492900  0.09646700  1
  C  532  1  0.05465800  0.00101400  0.16378200  1
  C  535  1  0.97272500  0.95890600  0.12061000  1
  C  537  1  0.04678600  0.05802800  0.14239300  1
  C  539  1  0.99416300  0.03778300  0.35276900  1
  C  541  1  0.03675700  0.01475300  0.33050200  1
  C  542  1  0.03213700  0.98789200  0.34157300  1
  C  544  1  0.99006700  0.01110800  0.36420000  1
  C  545  1  0.96830000  0.00710900  0.37979800  1
  C  546  1  0.05755100  0.01898600  0.31434100  1
  C  549  1  0.97591000  0.06329900  0.35646500  1
  C  551  1  0.04714800  0.96194500  0.33488900  1
  C  553  1  0.52935600  0.53534200  0.85339500  1
  C  555  1  0.48638500  0.51369300  0.83059800  1
  C  556  1  0.48964600  0.48688600  0.84209300  1
  C  558  1  0.53205000  0.50876900  0.86525800  1
  C  559  1  0.55314700  0.50424600  0.88141700  1
  C  560  1  0.46616000  0.51853500  0.81398300  1
  C  563  1  0.54828100  0.56026000  0.85722500  1
  C  565  1  0.47379100  0.46148600  0.83532900  1
  C  567  1  0.52664100  0.48153400  0.62558100  1
  C  569  1  0.48414400  0.50440000  0.64802700  1
  C  570  1  0.48857100  0.53128500  0.63695700  1
  C  572  1  0.53051900  0.50823000  0.61414400  1
  C  573  1  0.55207300  0.51228900  0.59842600  1
  C  574  1  0.46347900  0.50009600  0.66424600  1
  C  577  1  0.54497200  0.45608200  0.62181100  1
  C  579  1  0.47361400  0.55719300  0.64375700  1
  C  581  1  0.49226600  0.48333200  0.12382300  1
  C  583  1  0.53490200  0.50536200  0.14669500  1
  C  584  1  0.53143800  0.53215500  0.13518500  1
  C  586  1  0.48933000  0.50990400  0.11197600  1
  C  587  1  0.46823700  0.51426900  0.09579000  1
  C  588  1  0.55506500  0.50067000  0.16336800  1
  C  591  1  0.47355600  0.45826800  0.11998300  1
  C  593  1  0.54713700  0.55766500  0.14193300  1
  C  595  1  0.49494700  0.53848800  0.35342600  1
  C  597  1  0.53735500  0.51532300  0.33107100  1
  C  598  1  0.53268500  0.48846200  0.34214100  1
  C  600  1  0.49080700  0.51181400  0.36485300  1
  C  601  1  0.46909100  0.50786700  0.38049100  1
  C  602  1  0.55808500  0.51950400  0.31486500  1
  C  605  1  0.47676600  0.56405500  0.35714500  1
  C  607  1  0.54755000  0.46246000  0.33540400  1
  C  609  1  0.74013900  0.73572600  0.87350000  1
  C  611  1  0.75870000  0.77511900  0.85020600  1
  C  612  1  0.78912700  0.77763200  0.86239500  1
  C  614  1  0.77069300  0.73822300  0.88561400  1
  C  615  1  0.77909400  0.72261000  0.90278500  1
  C  616  1  0.75051200  0.79191700  0.83369500  1
  C  619  1  0.71476300  0.71626600  0.87921600  1
  C  621  1  0.81468600  0.79762700  0.85837600  1
  C  623  1  0.28090400  0.28313500  0.87348400  1
  C  625  1  0.26200100  0.24367300  0.85020200  1
  C  626  1  0.23168200  0.24128300  0.86224400  1
  C  628  1  0.25046100  0.28074100  0.88545900  1
  C  629  1  0.24226200  0.29642500  0.90255900  1
  C  630  1  0.26995900  0.22679800  0.83376000  1
  C  633  1  0.30639600  0.30256200  0.87929500  1
  C  635  1  0.20602200  0.22133300  0.85813800  1
  C  637  1  0.74083200  0.28385600  0.60460400  1
  C  639  1  0.76073100  0.24398500  0.62737400  1
  C  640  1  0.79111000  0.24207900  0.61531500  1
  C  642  1  0.77134600  0.28198400  0.59263300  1
  C  643  1  0.77908800  0.29813300  0.57575900  1
  C  644  1  0.75315500  0.22663800  0.64353400  1
  C  647  1  0.71478700  0.30319300  0.59908500  1
  C  649  1  0.81722300  0.22213000  0.61910700  1
  C  651  1  0.28253600  0.73624800  0.60405800  1
  C  653  1  0.26307900  0.77528200  0.62764300  1
  C  654  1  0.23231900  0.77741700  0.61574900  1
  C  656  1  0.25163700  0.73834900  0.59225200  1
  C  657  1  0.24344400  0.72271100  0.57512200  1
  C  658  1  0.27098900  0.79213300  0.64410600  1
  C  661  1  0.30848000  0.71714500  0.59810200  1
  C  663  1  0.20615900  0.79706600  0.62002400  1
  C  665  1  0.28095900  0.28320000  0.10459000  1
  C  667  1  0.26222600  0.24389500  0.12791800  1
  C  668  1  0.23167900  0.24159400  0.11583200  1
  C  670  1  0.25024500  0.28097600  0.09262000  1
  C  671  1  0.24180000  0.29674600  0.07554100  1
  C  672  1  0.27041900  0.22700800  0.14437300  1
  C  675  1  0.30665500  0.30221800  0.09863100  1
  C  677  1  0.20601000  0.22169900  0.11988700  1
  C  679  1  0.73970300  0.73638200  0.10459400  1
  C  681  1  0.75830100  0.77594600  0.12788700  1
  C  682  1  0.78873700  0.77834200  0.11597500  1
  C  684  1  0.77030300  0.73872000  0.09278900  1
  C  685  1  0.77874900  0.72292100  0.07580300  1
  C  686  1  0.75012300  0.79288000  0.14424600  1
  C  689  1  0.71411300  0.71717900  0.09854000  1
  C  691  1  0.81428300  0.79839300  0.12011900  1
  C  693  1  0.28025700  0.73585900  0.37363800  1
  C  695  1  0.26017100  0.77561200  0.35081000  1
  C  696  1  0.22969100  0.77733000  0.36277200  1
  C  698  1  0.24960000  0.73747600  0.38546900  1
  C  699  1  0.24182300  0.72119600  0.40226200  1
  C  700  1  0.26773700  0.79302700  0.33468900  1
  C  703  1  0.30661100  0.71696500  0.37942100  1
  C  705  1  0.20346300  0.79716900  0.35893900  1
  C  707  1  0.73818000  0.28297900  0.37421700  1
  C  709  1  0.75724800  0.24379600  0.35063200  1
  C  710  1  0.78814300  0.24164900  0.36236800  1
  C  712  1  0.76925100  0.28092600  0.38582400  1
  C  713  1  0.77773200  0.29670100  0.40282000  1
  C  714  1  0.74906700  0.22686400  0.33427400  1
  C  717  1  0.71218100  0.30188000  0.38042300  1
  C  719  1  0.81416000  0.22186500  0.35805000  1
  C  721  1  0.00753800  0.85681400  0.76439200  1
  C  723  1  0.98966800  0.84142000  0.72796400  1
  C  724  1  0.01946000  0.85207400  0.71818600  1
  C  726  1  0.03742900  0.86734500  0.75454300  1
  C  727  1  0.06061600  0.88176000  0.76497600  1
  C  728  1  0.96536200  0.82978400  0.71669500  1
  C  731  1  0.99961200  0.86126600  0.78676500  1
  C  733  1  0.02414000  0.85601300  0.69545100  1
  C  735  1  0.01704900  0.16178500  0.76092100  1
  C  737  1  0.00694300  0.19601900  0.73132900  1
  C  738  1  0.99391700  0.17389400  0.71732100  1
  C  740  1  0.00460700  0.13951400  0.74686800  1
  C  741  1  0.00212900  0.11230000  0.75256900  1
  C  742  1  0.00908100  0.22315300  0.72554300  1
  C  745  1  0.02348700  0.15712500  0.78336500  1
  C  747  1  0.98065800  0.17808200  0.69592000  1
  C  749  1  0.01279100  0.16200100  0.21382300  1
  C  751  1  0.03065600  0.17720100  0.25029000  1
  C  752  1  0.00093600  0.16635100  0.26004700  1
  C  754  1  0.98296900  0.15128700  0.22364400  1
  C  755  1  0.95977400  0.13698000  0.21313400  1
  C  756  1  0.05490300  0.18891000  0.26157200  1
  C  759  1  0.02060500  0.15791700  0.19139800  1
  C  761  1  0.99626900  0.16246700  0.28278500  1
  C  763  1  0.00336500  0.85849200  0.21727400  1
  C  765  1  0.01295400  0.82401700  0.24676300  1
  C  766  1  0.02633300  0.84593100  0.26081900  1
  C  768  1  0.01614000  0.88056000  0.23137500  1
  C  769  1  0.01899700  0.90776700  0.22574600  1
  C  770  1  0.01038900  0.79689200  0.25248900  1
  C  773  1  0.99685200  0.86333600  0.19486800  1
  C  775  1  0.03948100  0.84152600  0.28221600  1
  C  777  1  0.50810700  0.35721700  0.76440500  1
  C  779  1  0.48992500  0.34216600  0.72795900  1
  C  780  1  0.51962300  0.35293000  0.71812800  1
  C  782  1  0.53790000  0.36786200  0.75449800  1
  C  783  1  0.56118200  0.38216400  0.76493000  1
  C  784  1  0.46555200  0.33058500  0.71672000  1
  C  787  1  0.50038500  0.36142800  0.78684000  1
  C  789  1  0.52416800  0.35694600  0.69538800  1
  C  791  1  0.51721200  0.66107600  0.76092100  1
  C  793  1  0.50769800  0.69554900  0.73141000  1
  C  794  1  0.49461900  0.67359800  0.71726500  1
  C  796  1  0.50473100  0.63897200  0.74672700  1
  C  797  1  0.50202400  0.61173200  0.75230300  1
  C  798  1  0.51013100  0.72270200  0.72573000  1
  C  801  1  0.52349700  0.65621500  0.78336500  1
  C  803  1  0.48158000  0.67800600  0.69582900  1
  C  805  1  0.51304200  0.66137600  0.21381800  1
  C  807  1  0.53120800  0.67689300  0.25014600  1
  C  808  1  0.50158300  0.66611700  0.26007100  1
  C  810  1  0.48331500  0.65073100  0.22380700  1
  C  811  1  0.46003400  0.63634400  0.21345000  1
  C  812  1  0.55553700  0.68871700  0.26127900  1
  C  815  1  0.52065800  0.65714400  0.19137500  1
  C  817  1  0.49709900  0.66245400  0.28284800  1
  C  819  1  0.50404700  0.35878800  0.21727700  1
  C  821  1  0.51314900  0.32453600  0.24697800  1
  C  822  1  0.52651300  0.34651300  0.26098500  1
  C  824  1  0.51680900  0.38092000  0.23132700  1
  C  825  1  0.51985300  0.40806800  0.22557800  1
  C  826  1  0.51038800  0.29747000  0.25282200  1
  C  829  1  0.49770400  0.36347800  0.19482600  1
  C  831  1  0.53943900  0.34221600  0.28245500  1
  N  21  1  0.97087000  0.93904400  0.84664500  1
  N  22  1  0.96968500  0.86125600  0.79494100  1
  N  23  1  0.90410600  0.84471600  0.92880100  1
  N  24  1  0.83552700  0.80438800  0.87383300  1
  N  45  1  0.04915700  0.08038800  0.84180800  1
  N  46  1  0.05278300  0.15854700  0.79262200  1
  N  47  1  0.11615100  0.17458800  0.92762400  1
  N  48  1  0.18519500  0.21475000  0.87346100  1
  N  69  1  0.97146700  0.07962700  0.63245400  1
  N  70  1  0.97446000  0.15634600  0.68318900  1
  N  71  1  0.90693200  0.17514800  0.54911700  1
  N  72  1  0.83792100  0.21587100  0.60356500  1
  N  93  1  0.04563800  0.93595600  0.63744700  1
  N  94  1  0.05321600  0.85776700  0.68619500  1
  N  95  1  0.11364400  0.84384500  0.55078100  1
  N  96  1  0.18492800  0.80363300  0.60468000  1
  N  117  1  0.04844600  0.08125500  0.13050200  1
  N  118  1  0.05051900  0.15788900  0.18320400  1
  N  119  1  0.11161800  0.18186900  0.04961400  1
  N  120  1  0.18478400  0.21535400  0.10455600  1
  N  141  1  0.97169700  0.93905000  0.13553700  1
  N  142  1  0.96766900  0.86162400  0.18548700  1
  N  143  1  0.90858900  0.83878000  0.05085500  1
  N  144  1  0.83537500  0.80475600  0.10490500  1
  N  165  1  0.04783100  0.93872800  0.34682800  1
  N  166  1  0.04562700  0.86314900  0.29507100  1
  N  167  1  0.10892100  0.83686300  0.42879300  1
  N  168  1  0.18241400  0.80303400  0.37436000  1
  N  189  1  0.97530900  0.08323100  0.34157700  1
  N  190  1  0.96720300  0.16060900  0.29203200  1
  N  191  1  0.91080900  0.18140900  0.42716000  1
  N  192  1  0.83565100  0.21550900  0.37328300  1
  N  213  1  0.47164900  0.43840900  0.84733800  1
  N  214  1  0.47055300  0.36118400  0.79515600  1
  N  215  1  0.40287500  0.34323000  0.92872000  1
  N  216  1  0.33575700  0.30377800  0.87042000  1
  N  237  1  0.54938400  0.58012400  0.84231000  1
  N  238  1  0.55259800  0.65807100  0.79284000  1
  N  239  1  0.61837800  0.67488000  0.92754400  1
  N  240  1  0.68546700  0.71478400  0.87001700  1
  N  261  1  0.47231200  0.58028100  0.63169600  1
  N  262  1  0.47540600  0.65641100  0.68295300  1
  N  263  1  0.40558100  0.67669900  0.54921000  1
  N  264  1  0.33799400  0.71625000  0.60704300  1
  N  285  1  0.54571800  0.43614200  0.63669200  1
  N  286  1  0.55317700  0.35853400  0.68603200  1
  N  287  1  0.61608100  0.34401800  0.55092500  1
  N  288  1  0.68546500  0.30363400  0.60803400  1
  N  309  1  0.54872000  0.58094500  0.13008900  1
  N  310  1  0.55045000  0.65740800  0.18300300  1
  N  311  1  0.61382400  0.68199200  0.04970200  1
  N  312  1  0.68523100  0.71510100  0.10797500  1
  N  333  1  0.47256600  0.43838200  0.13488700  1
  N  334  1  0.46865500  0.36147100  0.18530000  1
  N  335  1  0.40730600  0.33735100  0.05096100  1
  N  336  1  0.33543900  0.30446100  0.10843000  1
  N  357  1  0.54817400  0.43918700  0.34728900  1
  N  358  1  0.54564000  0.36388300  0.29526000  1
  N  359  1  0.61144900  0.33706800  0.42873400  1
  N  360  1  0.68311200  0.30369500  0.37092500  1
  N  381  1  0.47620300  0.58400300  0.34227000  1
  N  382  1  0.46811700  0.66080500  0.29223200  1
  N  383  1  0.40939500  0.68293200  0.42706600  1
  N  384  1  0.33542500  0.71571300  0.36981000  1
  N  386  1  0.91720800  0.82381100  0.00555900  1
  N  389  1  0.88895400  0.85700500  0.97392800  1
  N  393  1  0.95673500  0.77309700  0.97699100  1
  N  394  1  0.84747400  0.90665800  0.00213300  1
  N  400  1  0.10293500  0.19628900  0.00416000  1
  N  403  1  0.13120400  0.16279600  0.97297500  1
  N  407  1  0.06317700  0.24657800  0.97495300  1
  N  408  1  0.17283700  0.11351800  0.00183500  1
  N  414  1  0.91959600  0.19594400  0.47247400  1
  N  417  1  0.89212900  0.16278800  0.50390200  1
  N  421  1  0.95817000  0.24667600  0.50129800  1
  N  422  1  0.85157300  0.11312500  0.47540900  1
  N  428  1  0.10042700  0.82258700  0.47410200  1
  N  431  1  0.12841000  0.85577200  0.50556300  1
  N  435  1  0.06131600  0.77250700  0.50290600  1
  N  436  1  0.16968700  0.90465400  0.47710500  1
  N  442  1  0.41529500  0.32208400  0.00551800  1
  N  445  1  0.38643700  0.35518700  0.97405000  1
  N  449  1  0.45522900  0.27189900  0.97663900  1
  N  450  1  0.34458100  0.40431000  0.00258000  1
  N  456  1  0.60556300  0.69651400  0.00414100  1
  N  459  1  0.63496900  0.66349500  0.97310900  1
  N  463  1  0.56473300  0.74589500  0.97465800  1
  N  464  1  0.67764200  0.61515400  0.00226700  1
  N  470  1  0.41744600  0.69779100  0.47252500  1
  N  473  1  0.38946500  0.66465600  0.50378000  1
  N  477  1  0.45626000  0.74808800  0.50167200  1
  N  478  1  0.34867500  0.61543400  0.47495100  1
  N  484  1  0.60317400  0.32296000  0.47415000  1
  N  487  1  0.63263600  0.35547100  0.50544700  1
  N  491  1  0.56250300  0.27412900  0.50325000  1
  N  492  1  0.67544500  0.40303800  0.47667000  1
  N  498  1  0.00600000  0.03648200  0.83600500  1
  N  501  1  0.01180800  0.98647300  0.85832300  1
  N  505  1  0.94881400  0.02324500  0.79813500  1
  N  506  1  0.07025000  0.00074800  0.89561000  1
  N  512  1  0.00305000  0.98094300  0.64277300  1
  N  515  1  0.01103200  0.03118200  0.62126500  1
  N  519  1  0.94549100  0.99576800  0.67977100  1
  N  520  1  0.06983200  0.01552900  0.58490500  1
  N  526  1  0.01470700  0.98327700  0.14105000  1
  N  529  1  0.00786400  0.03337100  0.11894800  1
  N  533  1  0.07245000  0.99679300  0.17846700  1
  N  534  1  0.94867300  0.01884800  0.08225000  1
  N  540  1  0.01769100  0.03789400  0.33656500  1
  N  543  1  0.00868500  0.98763600  0.35786500  1
  N  547  1  0.07581800  0.02273500  0.30005300  1
  N  548  1  0.94905800  0.00356100  0.39355000  1
  N  554  1  0.50620900  0.53609200  0.83674200  1
  N  557  1  0.51266400  0.48598200  0.85886800  1
  N  561  1  0.44839500  0.52283000  0.79929800  1
  N  562  1  0.57179200  0.50025300  0.89567300  1
  N  568  1  0.50324900  0.48133000  0.64187100  1
  N  571  1  0.51186000  0.53163700  0.62056500  1
  N  575  1  0.44531200  0.49628400  0.67858200  1
  N  576  1  0.57112400  0.51588600  0.58456500  1
  N  582  1  0.51533800  0.48279400  0.14052500  1
  N  585  1  0.50846500  0.53285000  0.11838000  1
  N  589  1  0.57276300  0.49650000  0.17811100  1
  N  590  1  0.44959200  0.51812900  0.08151600  1
  N  596  1  0.51840200  0.53852200  0.33717400  1
  N  599  1  0.50930100  0.48828200  0.35847500  1
  N  603  1  0.57629700  0.52321400  0.30053900  1
  N  604  1  0.44989900  0.50436400  0.39427800  1
  N  610  1  0.73591900  0.75474700  0.85636900  1
  N  613  1  0.79310500  0.75870000  0.87953400  1
  N  617  1  0.74323700  0.80682600  0.81916800  1
  N  618  1  0.78647400  0.70892500  0.91797300  1
  N  624  1  0.28490200  0.26402800  0.85642300  1
  N  627  1  0.22792600  0.26029000  0.87931900  1
  N  631  1  0.27701100  0.21181500  0.81929500  1
  N  632  1  0.23503600  0.31016000  0.91768700  1
  N  638  1  0.73729700  0.26434000  0.62139500  1
  N  641  1  0.79441500  0.26151000  0.59851200  1
  N  645  1  0.74640900  0.21125400  0.65775000  1
  N  646  1  0.78589400  0.31228200  0.56082700  1
  N  652  1  0.28645800  0.75523300  0.62119800  1
  N  655  1  0.22862500  0.75851100  0.59860500  1
  N  659  1  0.27799700  0.80709600  0.65859200  1
  N  660  1  0.23621600  0.70901800  0.55996500  1
  N  666  1  0.28515300  0.26410300  0.12167300  1
  N  669  1  0.22770800  0.26063000  0.09875500  1
  N  673  1  0.27770200  0.21203100  0.15886000  1
  N  674  1  0.23438000  0.31057500  0.06043800  1
  N  680  1  0.73548800  0.75556200  0.12158300  1
  N  683  1  0.79273000  0.75923300  0.09898700  1
  N  687  1  0.74287200  0.80790500  0.15864500  1
  N  688  1  0.78619000  0.70908500  0.06077400  1
  N  694  1  0.28375200  0.75542700  0.35687900  1
  N  697  1  0.22640600  0.75781600  0.37952300  1
  N  701  1  0.27447400  0.80846000  0.32050200  1
  N  702  1  0.23498300  0.70692600  0.41711900  1
  N  708  1  0.73399100  0.26389900  0.35716500  1
  N  711  1  0.79212100  0.26067700  0.37940600  1
  N  715  1  0.74181700  0.21184300  0.31987500  1
  N  716  1  0.78521700  0.31052100  0.41785400  1
  N  722  1  0.98511900  0.84442500  0.75021500  1
  N  725  1  0.04145300  0.86498600  0.73228700  1
  N  729  1  0.94394100  0.81954300  0.70669600  1
  N  730  1  0.08085200  0.89474900  0.77413800  1
  N  736  1  0.01727600  0.18911500  0.75228600  1
  N  739  1  0.99379300  0.14664600  0.72617700  1
  N  743  1  0.01108300  0.24709500  0.72039000  1
  N  744  1  0.99999500  0.08832000  0.75761200  1
  N  750  1  0.03517300  0.17438900  0.22802300  1
  N  753  1  0.97896200  0.15349700  0.24590800  1
  N  757  1  0.07625900  0.19922100  0.27158800  1
  N  758  1  0.93952500  0.12409500  0.20389800  1
  N  764  1  0.00269400  0.83113000  0.22583100  1
  N  767  1  0.02686600  0.87321100  0.25203900  1
  N  771  1  0.00801000  0.77296000  0.25759000  1
  N  772  1  0.02145200  0.93174100  0.22076600  1
  N  778  1  0.48557300  0.34495000  0.75024500  1
  N  781  1  0.54173800  0.36571000  0.73221400  1
  N  785  1  0.44408200  0.32039000  0.70673900  1
  N  786  1  0.58150100  0.39505000  0.77409700  1
  N  792  1  0.51777600  0.68845100  0.75238400  1
  N  795  1  0.49418000  0.64629800  0.72601700  1
  N  799  1  0.51239500  0.74665700  0.72067100  1
  N  800  1  0.49970400  0.58772900  0.75723600  1
  N  806  1  0.53553200  0.67389600  0.22787600  1
  N  809  1  0.47949400  0.65313300  0.24607600  1
  N  813  1  0.57696400  0.69912700  0.27116800  1
  N  814  1  0.43971000  0.62339200  0.20434300  1
  N  820  1  0.50312900  0.33150700  0.22597100  1
  N  823  1  0.52729000  0.37371200  0.25207400  1
  N  827  1  0.50784500  0.27359100  0.25803000  1
  N  828  1  0.52246700  0.43198800  0.22048700  1
  O  17  1  0.94745400  0.86708000  0.89752900  1
  O  18  1  0.93269900  0.82711600  0.82529700  1
  O  41  1  0.07321800  0.15183400  0.89576900  1
  O  42  1  0.08820300  0.19248600  0.82409500  1
  O  65  1  0.95038800  0.15216600  0.58081500  1
  O  66  1  0.93707200  0.19327700  0.65225300  1
  O  89  1  0.07034300  0.86551300  0.58281200  1
  O  90  1  0.08872600  0.82399600  0.65446000  1
  O  113  1  0.06985800  0.15682000  0.08096300  1
  O  114  1  0.08780500  0.19247800  0.15332600  1
  O  137  1  0.94983200  0.86427100  0.08276300  1
  O  138  1  0.93203000  0.82735800  0.15441900  1
  O  161  1  0.06694600  0.86249000  0.39708200  1
  O  162  1  0.08336200  0.82570600  0.32547700  1
  O  185  1  0.95252500  0.15700200  0.39505500  1
  O  186  1  0.93142200  0.19472000  0.32335600  1
  O  209  1  0.44677500  0.36618000  0.89811800  1
  O  210  1  0.43376600  0.32661500  0.82526800  1
  O  233  1  0.57490500  0.65152600  0.89635200  1
  O  234  1  0.58770500  0.69230200  0.82415300  1
  O  257  1  0.44970100  0.65321100  0.58021600  1
  O  258  1  0.43810500  0.69376800  0.65231400  1
  O  281  1  0.57268900  0.36625200  0.58186400  1
  O  282  1  0.58851500  0.32433600  0.65464000  1
  O  305  1  0.57150600  0.65639200  0.08038600  1
  O  306  1  0.58746100  0.69222700  0.15326300  1
  O  329  1  0.44922100  0.36334300  0.08217100  1
  O  330  1  0.43314000  0.32682800  0.15447400  1
  O  353  1  0.56876200  0.36304600  0.39768100  1
  O  354  1  0.58321600  0.32617400  0.32551500  1
  O  377  1  0.45187700  0.65807600  0.39565900  1
  O  378  1  0.43241800  0.69530700  0.32329500  1
