# generated using pymatgen
data_H32C53(NO)8
_symmetry_space_group_name_H-M   'P 1'
_cell_length_a   33.67530000
_cell_length_b   45.76500000
_cell_length_c   45.76500000
_cell_angle_alpha   90.00000000
_cell_angle_beta   90.00000000
_cell_angle_gamma   90.00000000
_symmetry_Int_Tables_number   1
_chemical_formula_structural   H32C53(NO)8
_chemical_formula_sum   'H256 C424 N64 O64'
_cell_volume   70530.73453244
_cell_formula_units_Z   8
loop_
 _symmetry_equiv_pos_site_id
 _symmetry_equiv_pos_as_xyz
  1  'x, y, z'
loop_
 _atom_site_type_symbol
 _atom_site_label
 _atom_site_symmetry_multiplicity
 _atom_site_fract_x
 _atom_site_fract_y
 _atom_site_fract_z
 _atom_site_occupancy
  H  26  1  0.96453600  0.92612600  0.26628400  1
  H  27  1  0.95034200  0.96192800  0.30214500  1
  H  28  1  0.08532000  0.95096800  0.26760400  1
  H  29  1  0.07102100  0.98651900  0.30354200  1
  H  30  1  0.04885700  0.04045000  0.30071400  1
  H  31  1  0.03400600  0.07471700  0.26327700  1
  H  32  1  0.91335000  0.04995600  0.26668200  1
  H  33  1  0.92825100  0.01571300  0.30381000  1
  H  34  1  0.94867600  0.03932700  0.35827800  1
  H  35  1  0.89653700  0.03002000  0.39177500  1
  H  36  1  0.92422500  0.94001200  0.38984800  1
  H  37  1  0.97626600  0.94942800  0.35626800  1
  H  38  1  0.05087500  0.96428000  0.35894600  1
  H  39  1  0.02352900  0.05412000  0.35506100  1
  H  40  1  0.07359500  0.06391300  0.39002900  1
  H  41  1  0.10083300  0.97387200  0.39393400  1
  H  44  1  0.98312300  0.08625900  0.22244500  1
  H  45  1  0.01115300  0.90596400  0.23054700  1
  H  47  1  0.86445700  0.95732000  0.41475500  1
  H  49  1  0.12601500  0.04711900  0.42198100  1
  H  75  1  0.46455800  0.07506200  0.73450600  1
  H  76  1  0.45030700  0.03926900  0.69865800  1
  H  77  1  0.58518900  0.04982100  0.73350300  1
  H  78  1  0.57082600  0.01427500  0.69756500  1
  H  79  1  0.54872600  0.96030300  0.69998600  1
  H  80  1  0.53395000  0.92602100  0.73743000  1
  H  81  1  0.41345200  0.95127000  0.73463100  1
  H  82  1  0.42829100  0.98551800  0.69750000  1
  H  83  1  0.44800600  0.96171400  0.64305200  1
  H  84  1  0.39548300  0.97113400  0.60991500  1
  H  85  1  0.42410100  0.06099600  0.61116100  1
  H  86  1  0.47645400  0.05147800  0.64444800  1
  H  87  1  0.55100400  0.03665600  0.64217100  1
  H  88  1  0.52296900  0.94692400  0.64562600  1
  H  89  1  0.57295200  0.93708900  0.61059900  1
  H  90  1  0.60088300  0.02703300  0.60714500  1
  H  93  1  0.48323000  0.91461700  0.77849800  1
  H  94  1  0.51114100  0.09507500  0.77036100  1
  H  96  1  0.36407700  0.04393000  0.58681900  1
  H  98  1  0.62574400  0.95379800  0.57890200  1
  H  124  1  0.21458000  0.73446700  0.92593800  1
  H  125  1  0.20035100  0.69859600  0.96171400  1
  H  126  1  0.33521100  0.73350100  0.95118400  1
  H  127  1  0.32086800  0.69753900  0.98671200  1
  H  128  1  0.29878600  0.69991800  0.04069100  1
  H  129  1  0.28401000  0.73736200  0.07496600  1
  H  130  1  0.16351500  0.73457200  0.04970700  1
  H  131  1  0.17835600  0.69743600  0.01546500  1
  H  132  1  0.19808300  0.64298600  0.03926300  1
  H  133  1  0.14555500  0.60985200  0.02984300  1
  H  134  1  0.17415100  0.61111500  0.93997900  1
  H  135  1  0.22650800  0.64439800  0.94949800  1
  H  136  1  0.30106700  0.64214100  0.96429500  1
  H  137  1  0.27306800  0.64555600  0.05403600  1
  H  138  1  0.32307400  0.61054200  0.06384600  1
  H  139  1  0.35096400  0.60712100  0.97389400  1
  H  142  1  0.23329000  0.77843500  0.08637100  1
  H  143  1  0.26114500  0.77036700  0.90596700  1
  H  145  1  0.11411900  0.58678800  0.95704700  1
  H  147  1  0.37570900  0.57873900  0.04709400  1
  H  173  1  0.71456900  0.26657700  0.07511000  1
  H  174  1  0.70034500  0.30243800  0.03932500  1
  H  175  1  0.83513900  0.26735500  0.04970900  1
  H  176  1  0.82080800  0.30331000  0.01417300  1
  H  177  1  0.79879700  0.30111400  0.96017600  1
  H  178  1  0.78401200  0.26367500  0.92589000  1
  H  179  1  0.66357600  0.26629700  0.95131800  1
  H  180  1  0.67841800  0.30342600  0.98557100  1
  H  181  1  0.69794300  0.35786000  0.96169200  1
  H  182  1  0.64541200  0.39099100  0.97112800  1
  H  183  1  0.67424300  0.38990700  0.06095200  1
  H  184  1  0.72660200  0.35662600  0.05142400  1
  H  185  1  0.80119700  0.35871000  0.03667200  1
  H  186  1  0.77294400  0.35547400  0.94696300  1
  H  187  1  0.82296900  0.39047300  0.93714300  1
  H  188  1  0.85111800  0.39370900  0.02705900  1
  H  191  1  0.73334900  0.22253400  0.91454900  1
  H  192  1  0.76109600  0.23061900  0.09504400  1
  H  194  1  0.61411900  0.41414400  0.04391800  1
  H  196  1  0.87577400  0.42214300  0.95386100  1
  H  203  1  0.92672800  0.09105200  0.18205300  1
  H  210  1  0.88750900  0.24053900  0.11971200  1
  H  211  1  0.78522400  0.18752800  0.11775700  1
  H  212  1  0.90484800  0.15252500  0.24857200  1
  H  213  1  0.81510600  0.15469600  0.15187500  1
  H  214  1  0.87759100  0.18571000  0.21329900  1
  H  229  1  0.42672300  0.90994800  0.81894400  1
  H  236  1  0.38756100  0.76044300  0.88128200  1
  H  237  1  0.28525400  0.81343300  0.88322400  1
  H  238  1  0.40488500  0.84846200  0.75242600  1
  H  239  1  0.31513300  0.84627000  0.84911300  1
  H  240  1  0.37765700  0.81526600  0.78770400  1
  H  255  1  0.17675700  0.81888500  0.09100800  1
  H  262  1  0.13756000  0.88123600  0.24050000  1
  H  263  1  0.03525600  0.88316500  0.18750900  1
  H  264  1  0.15492600  0.75237800  0.15250300  1
  H  265  1  0.06514500  0.84905600  0.15467100  1
  H  266  1  0.12768300  0.78765600  0.18569000  1
  H  281  1  0.67680900  0.18205000  0.90993200  1
  H  288  1  0.63756000  0.11972000  0.76044500  1
  H  289  1  0.53527400  0.11777200  0.81345500  1
  H  290  1  0.65490500  0.24857600  0.84847300  1
  H  291  1  0.56516300  0.15188500  0.84628800  1
  H  292  1  0.62764800  0.21330500  0.81528400  1
  H  307  1  0.79154900  0.97334800  0.42300600  1
  H  314  1  0.67021900  0.03941300  0.54718000  1
  H  315  1  0.68560100  0.94824100  0.55314500  1
  H  316  1  0.86114600  0.01946000  0.48397000  1
  H  317  1  0.73765400  0.95046600  0.51791500  1
  H  318  1  0.80665200  0.01979500  0.51760700  1
  H  333  1  0.29100200  0.02769300  0.57811600  1
  H  340  1  0.17068200  0.96153500  0.45361000  1
  H  341  1  0.18588200  0.05272700  0.44766000  1
  H  342  1  0.36143200  0.98205500  0.51730700  1
  H  343  1  0.23783600  0.05056900  0.48296900  1
  H  344  1  0.30716000  0.98153900  0.48347200  1
  H  359  1  0.04104000  0.57811600  0.97327800  1
  H  366  1  0.92061400  0.45365800  0.03942800  1
  H  367  1  0.93575200  0.44772200  0.94823000  1
  H  368  1  0.11141500  0.51725300  0.01889000  1
  H  369  1  0.98775200  0.48300000  0.95038300  1
  H  370  1  0.05710800  0.48344500  0.01939900  1
  H  385  1  0.54102300  0.42283100  0.02768900  1
  H  392  1  0.42062900  0.54729500  0.96153500  1
  H  393  1  0.43576500  0.55323400  0.05273300  1
  H  394  1  0.61141900  0.48368100  0.98207900  1
  H  395  1  0.48776200  0.51795600  0.05058400  1
  H  396  1  0.55712400  0.51749800  0.98156800  1
  H  430  1  0.96453600  0.92612600  0.55034400  1
  H  431  1  0.95034200  0.96192800  0.58620500  1
  H  432  1  0.08532000  0.95096800  0.55166400  1
  H  433  1  0.07102100  0.98651900  0.58760200  1
  H  434  1  0.04885700  0.04045000  0.58477400  1
  H  435  1  0.03400600  0.07471700  0.54733700  1
  H  436  1  0.91335000  0.04995600  0.55074200  1
  H  437  1  0.92825100  0.01571300  0.58787000  1
  H  438  1  0.94867600  0.03932700  0.64233800  1
  H  439  1  0.89653700  0.03002000  0.67583500  1
  H  440  1  0.92422500  0.94001200  0.67390800  1
  H  441  1  0.97626600  0.94942800  0.64032800  1
  H  442  1  0.05087500  0.96428000  0.64300600  1
  H  443  1  0.02352900  0.05412000  0.63912100  1
  H  444  1  0.07359500  0.06391300  0.67408900  1
  H  445  1  0.10083300  0.97387200  0.67799400  1
  H  448  1  0.98312300  0.08625900  0.50650500  1
  H  449  1  0.01115300  0.90596400  0.51460700  1
  H  451  1  0.86445700  0.95732000  0.69881500  1
  H  453  1  0.12601500  0.04711900  0.70604100  1
  H  479  1  0.46455800  0.07506200  0.01856590  1
  H  480  1  0.45030700  0.03926900  0.98271800  1
  H  481  1  0.58518900  0.04982100  0.01756290  1
  H  482  1  0.57082600  0.01427500  0.98162500  1
  H  483  1  0.54872600  0.96030300  0.98404600  1
  H  484  1  0.53395000  0.92602100  0.02148990  1
  H  485  1  0.41345200  0.95127000  0.01869090  1
  H  486  1  0.42829100  0.98551800  0.98156000  1
  H  487  1  0.44800600  0.96171400  0.92711200  1
  H  488  1  0.39548300  0.97113400  0.89397500  1
  H  489  1  0.42410100  0.06099600  0.89522100  1
  H  490  1  0.47645400  0.05147800  0.92850800  1
  H  491  1  0.55100400  0.03665600  0.92623100  1
  H  492  1  0.52296900  0.94692400  0.92968600  1
  H  493  1  0.57295200  0.93708900  0.89465900  1
  H  494  1  0.60088300  0.02703300  0.89120500  1
  H  497  1  0.48323000  0.91461700  0.06255790  1
  H  498  1  0.51114100  0.09507500  0.05442090  1
  H  500  1  0.36407700  0.04393000  0.87087900  1
  H  502  1  0.62574400  0.95379800  0.86296200  1
  H  528  1  0.21458000  0.73446700  0.20999800  1
  H  529  1  0.20035100  0.69859600  0.24577400  1
  H  530  1  0.33521100  0.73350100  0.23524400  1
  H  531  1  0.32086800  0.69753900  0.27077200  1
  H  532  1  0.29878600  0.69991800  0.32475100  1
  H  533  1  0.28401000  0.73736200  0.35902600  1
  H  534  1  0.16351500  0.73457200  0.33376700  1
  H  535  1  0.17835600  0.69743600  0.29952500  1
  H  536  1  0.19808300  0.64298600  0.32332300  1
  H  537  1  0.14555500  0.60985200  0.31390300  1
  H  538  1  0.17415100  0.61111500  0.22403900  1
  H  539  1  0.22650800  0.64439800  0.23355800  1
  H  540  1  0.30106700  0.64214100  0.24835500  1
  H  541  1  0.27306800  0.64555600  0.33809600  1
  H  542  1  0.32307400  0.61054200  0.34790600  1
  H  543  1  0.35096400  0.60712100  0.25795400  1
  H  546  1  0.23329000  0.77843500  0.37043100  1
  H  547  1  0.26114500  0.77036700  0.19002700  1
  H  549  1  0.11411900  0.58678800  0.24110700  1
  H  551  1  0.37570900  0.57873900  0.33115400  1
  H  577  1  0.71456900  0.26657700  0.35917000  1
  H  578  1  0.70034500  0.30243800  0.32338500  1
  H  579  1  0.83513900  0.26735500  0.33376900  1
  H  580  1  0.82080800  0.30331000  0.29823300  1
  H  581  1  0.79879700  0.30111400  0.24423600  1
  H  582  1  0.78401200  0.26367500  0.20995000  1
  H  583  1  0.66357600  0.26629700  0.23537800  1
  H  584  1  0.67841800  0.30342600  0.26963100  1
  H  585  1  0.69794300  0.35786000  0.24575200  1
  H  586  1  0.64541200  0.39099100  0.25518800  1
  H  587  1  0.67424300  0.38990700  0.34501200  1
  H  588  1  0.72660200  0.35662600  0.33548400  1
  H  589  1  0.80119700  0.35871000  0.32073200  1
  H  590  1  0.77294400  0.35547400  0.23102300  1
  H  591  1  0.82296900  0.39047300  0.22120300  1
  H  592  1  0.85111800  0.39370900  0.31111900  1
  H  595  1  0.73334900  0.22253400  0.19860900  1
  H  596  1  0.76109600  0.23061900  0.37910400  1
  H  598  1  0.61411900  0.41414400  0.32797800  1
  H  600  1  0.87577400  0.42214300  0.23792100  1
  H  607  1  0.92672800  0.09105200  0.46611300  1
  H  614  1  0.88750900  0.24053900  0.40377200  1
  H  615  1  0.78522400  0.18752800  0.40181700  1
  H  616  1  0.90484800  0.15252500  0.53263200  1
  H  617  1  0.81510600  0.15469600  0.43593500  1
  H  618  1  0.87759100  0.18571000  0.49735900  1
  H  633  1  0.42672300  0.90994800  0.10300400  1
  H  640  1  0.38756100  0.76044300  0.16534200  1
  H  641  1  0.28525400  0.81343300  0.16728400  1
  H  642  1  0.40488500  0.84846200  0.03648590  1
  H  643  1  0.31513300  0.84627000  0.13317300  1
  H  644  1  0.37765700  0.81526600  0.07176390  1
  H  659  1  0.17675700  0.81888500  0.37506800  1
  H  666  1  0.13756000  0.88123600  0.52456000  1
  H  667  1  0.03525600  0.88316500  0.47156900  1
  H  668  1  0.15492600  0.75237800  0.43656300  1
  H  669  1  0.06514500  0.84905600  0.43873100  1
  H  670  1  0.12768300  0.78765600  0.46975000  1
  H  685  1  0.67680900  0.18205000  0.19399200  1
  H  692  1  0.63756000  0.11972000  0.04450490  1
  H  693  1  0.53527400  0.11777200  0.09751490  1
  H  694  1  0.65490500  0.24857600  0.13253300  1
  H  695  1  0.56516300  0.15188500  0.13034800  1
  H  696  1  0.62764800  0.21330500  0.09934390  1
  H  711  1  0.79154900  0.97334800  0.70706600  1
  H  718  1  0.67021900  0.03941300  0.83124000  1
  H  719  1  0.68560100  0.94824100  0.83720500  1
  H  720  1  0.86114600  0.01946000  0.76803000  1
  H  721  1  0.73765400  0.95046600  0.80197500  1
  H  722  1  0.80665200  0.01979500  0.80166700  1
  H  737  1  0.29100200  0.02769300  0.86217600  1
  H  744  1  0.17068200  0.96153500  0.73767000  1
  H  745  1  0.18588200  0.05272700  0.73172000  1
  H  746  1  0.36143200  0.98205500  0.80136700  1
  H  747  1  0.23783600  0.05056900  0.76702900  1
  H  748  1  0.30716000  0.98153900  0.76753200  1
  H  763  1  0.04104000  0.57811600  0.25733800  1
  H  770  1  0.92061400  0.45365800  0.32348800  1
  H  771  1  0.93575200  0.44772200  0.23229000  1
  H  772  1  0.11141500  0.51725300  0.30295000  1
  H  773  1  0.98775200  0.48300000  0.23444300  1
  H  774  1  0.05710800  0.48344500  0.30345900  1
  H  789  1  0.54102300  0.42283100  0.31174900  1
  H  796  1  0.42062900  0.54729500  0.24559500  1
  H  797  1  0.43576500  0.55323400  0.33679300  1
  H  798  1  0.61141900  0.48368100  0.26613900  1
  H  799  1  0.48776200  0.51795600  0.33464400  1
  H  800  1  0.55712400  0.51749800  0.26562800  1
  C  1  1  0.09321700  0.02003700  0.39516800  1
  C  2  1  0.06980800  0.04277000  0.38323600  1
  C  3  1  0.04035800  0.03697100  0.36220200  1
  C  4  1  0.03356900  0.00836400  0.35128800  1
  C  5  1  0.05590300  0.98558400  0.36454500  1
  C  6  1  0.08542000  0.99122200  0.38553900  1
  C  7  1  0.99984700  0.00153000  0.33002500  1
  C  8  1  0.96634500  0.99513900  0.35165000  1
  C  9  1  0.95931600  0.96669600  0.36294100  1
  C  10  1  0.92873800  0.96110000  0.38313300  1
  C  11  1  0.90471800  0.98399800  0.39398000  1
  C  12  1  0.91301800  0.01271900  0.38441100  1
  C  13  1  0.94367800  0.01812500  0.36425600  1
  C  14  1  0.98974500  0.02580300  0.30827000  1
  C  15  1  0.00958100  0.97674500  0.30875500  1
  C  16  1  0.97929800  0.95926300  0.29602900  1
  C  17  1  0.98759500  0.93820500  0.27448000  1
  C  18  1  0.02663500  0.93415000  0.26386500  1
  C  19  1  0.05685300  0.95229400  0.27533700  1
  C  20  1  0.04830900  0.97329700  0.29687300  1
  C  21  1  0.01980800  0.04292800  0.29476000  1
  C  22  1  0.01118000  0.06304900  0.27236900  1
  C  23  1  0.97193900  0.06658600  0.26209100  1
  C  24  1  0.94184300  0.04901700  0.27445600  1
  C  25  1  0.95079900  0.02881100  0.29662400  1
  C  42  1  0.03394800  0.91373900  0.24196000  1
  C  43  1  0.12220200  0.02643500  0.41597500  1
  C  46  1  0.87297900  0.97803900  0.41244600  1
  C  48  1  0.96390700  0.08516600  0.23895100  1
  C  50  1  0.59291900  0.98090600  0.60568300  1
  C  51  1  0.56933200  0.95821400  0.61750000  1
  C  52  1  0.53992800  0.96403500  0.63856400  1
  C  53  1  0.53338300  0.99260900  0.64964900  1
  C  54  1  0.55586800  0.01535800  0.63647700  1
  C  55  1  0.58534100  0.00970400  0.61545700  1
  C  56  1  0.49970800  0.99945300  0.67093800  1
  C  57  1  0.46614100  0.00584600  0.64937100  1
  C  58  1  0.45930800  0.03425400  0.63792600  1
  C  59  1  0.42854300  0.03990900  0.61790400  1
  C  60  1  0.40413400  0.01709000  0.60735900  1
  C  61  1  0.41228200  0.98837700  0.61702300  1
  C  62  1  0.44316200  0.98291200  0.63698000  1
  C  63  1  0.48965900  0.97518300  0.69270800  1
  C  64  1  0.50947500  0.02424800  0.69218100  1
  C  65  1  0.47925400  0.04184100  0.70483500  1
  C  66  1  0.48758100  0.06290000  0.72637700  1
  C  67  1  0.52659400  0.06683500  0.73708400  1
  C  68  1  0.55674100  0.04855900  0.72572200  1
  C  69  1  0.54816200  0.02757000  0.70417900  1
  C  70  1  0.51970800  0.95793000  0.70607200  1
  C  71  1  0.51113200  0.93780500  0.72847100  1
  C  72  1  0.47195500  0.93439400  0.73891800  1
  C  73  1  0.44189100  0.95212200  0.72674200  1
  C  74  1  0.45080900  0.97232700  0.70456800  1
  C  91  1  0.53393200  0.08725200  0.75897900  1
  C  92  1  0.62188700  0.97449000  0.58486600  1
  C  95  1  0.37191400  0.02310600  0.58933000  1
  C  97  1  0.46396400  0.91577500  0.76203100  1
  C  99  1  0.34303200  0.60564800  0.02002300  1
  C  100  1  0.31944200  0.61744900  0.04272500  1
  C  101  1  0.29002500  0.63850500  0.03691800  1
  C  102  1  0.28346200  0.64959800  0.00834900  1
  C  103  1  0.30594600  0.63644200  0.98559100  1
  C  104  1  0.33543300  0.61542800  0.99123000  1
  C  105  1  0.24977300  0.67088100  0.00152300  1
  C  106  1  0.21621000  0.64931000  0.99513100  1
  C  107  1  0.20937000  0.63786900  0.96672200  1
  C  108  1  0.17860300  0.61784900  0.96106800  1
  C  109  1  0.15420400  0.60729300  0.98388800  1
  C  110  1  0.16235400  0.61696000  0.01260100  1
  C  111  1  0.19323800  0.63691600  0.01806700  1
  C  112  1  0.23972500  0.69264400  0.02579800  1
  C  113  1  0.25952500  0.69213300  0.97673000  1
  C  114  1  0.22929500  0.70478000  0.95914200  1
  C  115  1  0.23761000  0.72633200  0.93808700  1
  C  116  1  0.27661400  0.73705600  0.93416300  1
  C  117  1  0.30677100  0.72569400  0.95242800  1
  C  118  1  0.29820400  0.70414700  0.97341300  1
  C  119  1  0.26977400  0.70601300  0.04305000  1
  C  120  1  0.26119500  0.72840100  0.06318600  1
  C  121  1  0.22202200  0.73886100  0.06658100  1
  C  122  1  0.19195500  0.72668300  0.04885700  1
  C  123  1  0.20087500  0.70450700  0.02865300  1
  C  140  1  0.28394000  0.75896800  0.91376300  1
  C  141  1  0.37199400  0.58482400  0.02642300  1
  C  144  1  0.12196100  0.58928800  0.97787100  1
  C  146  1  0.21401900  0.76197000  0.08520200  1
  C  148  1  0.84304600  0.39527800  0.98094500  1
  C  149  1  0.81938500  0.38353300  0.95825800  1
  C  150  1  0.78995400  0.36248600  0.96407000  1
  C  151  1  0.78345400  0.35135500  0.99263100  1
  C  152  1  0.80602500  0.36444200  0.01537900  1
  C  153  1  0.83551900  0.38545100  0.00973300  1
  C  154  1  0.74976400  0.33006200  0.99943500  1
  C  155  1  0.71620000  0.35164000  0.00580900  1
  C  156  1  0.70942900  0.36313100  0.03420800  1
  C  157  1  0.67865000  0.38313500  0.03987000  1
  C  158  1  0.65418100  0.39363900  0.01706400  1
  C  159  1  0.66225500  0.38391300  0.98835900  1
  C  160  1  0.69314700  0.36396800  0.98288300  1
  C  161  1  0.73975700  0.30829200  0.97515700  1
  C  162  1  0.75950400  0.30881200  0.02423100  1
  C  163  1  0.72928000  0.29621700  0.04186600  1
  C  164  1  0.73758600  0.27466200  0.06291500  1
  C  165  1  0.77657600  0.26389600  0.06680900  1
  C  166  1  0.80672300  0.27521000  0.04850400  1
  C  167  1  0.79815900  0.29675000  0.02751100  1
  C  168  1  0.76979100  0.29498900  0.95784700  1
  C  169  1  0.76121500  0.27258600  0.93772700  1
  C  170  1  0.72205300  0.26208900  0.93436800  1
  C  171  1  0.69200100  0.27421800  0.95213900  1
  C  172  1  0.70092100  0.29638800  0.97235100  1
  C  189  1  0.78389600  0.24199000  0.08721500  1
  C  190  1  0.87202300  0.41609000  0.97453800  1
  C  193  1  0.62194000  0.41163900  0.02309100  1
  C  195  1  0.71405600  0.23898400  0.91573800  1
  C  197  1  0.91926600  0.11919100  0.21826800  1
  C  198  1  0.90413900  0.14650700  0.22703400  1
  C  199  1  0.88822200  0.16593700  0.20632400  1
  C  200  1  0.88608700  0.15808400  0.17649600  1
  C  201  1  0.90041800  0.13036800  0.16742200  1
  C  202  1  0.91692000  0.11121100  0.18849500  1
  C  204  1  0.86922900  0.17813300  0.15632400  1
  C  205  1  0.89032700  0.20322300  0.14682000  1
  C  206  1  0.87213300  0.22250800  0.12663300  1
  C  207  1  0.83341600  0.21747800  0.11600400  1
  C  208  1  0.81299200  0.19220400  0.12545200  1
  C  209  1  0.83068400  0.17278400  0.14537200  1
  C  223  1  0.41925200  0.88180800  0.78272800  1
  C  224  1  0.40417500  0.85448000  0.77396400  1
  C  225  1  0.38826400  0.83504600  0.79467600  1
  C  226  1  0.38612000  0.84290100  0.82450300  1
  C  227  1  0.40043400  0.87062300  0.83357700  1
  C  228  1  0.41692300  0.88978400  0.81250200  1
  C  230  1  0.36926800  0.82285100  0.84467500  1
  C  231  1  0.39037300  0.79776400  0.85417800  1
  C  232  1  0.37218400  0.77847400  0.87436400  1
  C  233  1  0.33347000  0.78350400  0.88499900  1
  C  234  1  0.31302800  0.80876600  0.87553900  1
  C  235  1  0.33072100  0.82819100  0.85562000  1
  C  249  1  0.16928600  0.78267400  0.11915000  1
  C  250  1  0.15420100  0.77391400  0.14647900  1
  C  251  1  0.13827900  0.79462600  0.16590600  1
  C  252  1  0.13613700  0.82445000  0.15804700  1
  C  253  1  0.15045300  0.83352000  0.13032600  1
  C  254  1  0.16694600  0.81244500  0.11116700  1
  C  256  1  0.11928000  0.84462500  0.17809600  1
  C  257  1  0.14038100  0.85413200  0.20318200  1
  C  258  1  0.12218400  0.87431400  0.22247100  1
  C  259  1  0.08346600  0.88494000  0.21744400  1
  C  260  1  0.06303300  0.87548500  0.19217600  1
  C  261  1  0.08073000  0.85556800  0.17275300  1
  C  275  1  0.66934300  0.21826500  0.88179500  1
  C  276  1  0.65420700  0.22703600  0.85448400  1
  C  277  1  0.63829400  0.20632700  0.83505000  1
  C  278  1  0.63615300  0.17649900  0.84290300  1
  C  279  1  0.65049000  0.16742200  0.87061600  1
  C  280  1  0.66700900  0.18849100  0.88977100  1
  C  282  1  0.61928900  0.15632900  0.82285300  1
  C  283  1  0.64038400  0.14682400  0.79776400  1
  C  284  1  0.62218700  0.12664000  0.77847600  1
  C  285  1  0.58347300  0.11601100  0.78350600  1
  C  286  1  0.56304000  0.12546800  0.80877700  1
  C  287  1  0.58074400  0.14538000  0.82820200  1
  C  301  1  0.83159600  0.99576400  0.45068700  1
  C  302  1  0.83496600  0.00979600  0.47797000  1
  C  303  1  0.80290700  0.01004600  0.49765500  1
  C  304  1  0.76641400  0.99662500  0.49033900  1
  C  305  1  0.76220100  0.98309700  0.46258900  1
  C  306  1  0.79484500  0.98290700  0.44306500  1
  C  308  1  0.73508600  0.99638300  0.51122200  1
  C  309  1  0.71536800  0.02235000  0.52001500  1
  C  310  1  0.68445200  0.02063200  0.54097200  1
  C  311  1  0.67264200  0.99370600  0.55319900  1
  C  312  1  0.69277300  0.96808600  0.54439100  1
  C  313  1  0.72350800  0.96942500  0.52366800  1
  C  327  1  0.33144800  0.00551000  0.55055100  1
  C  328  1  0.33513300  0.99158900  0.52323300  1
  C  329  1  0.30320200  0.99122400  0.50343200  1
  C  330  1  0.26655100  0.00446500  0.51064300  1
  C  331  1  0.26202700  0.01790000  0.53840900  1
  C  332  1  0.29452800  0.01818300  0.55805500  1
  C  334  1  0.23536700  0.00464800  0.48964900  1
  C  335  1  0.21573600  0.97865300  0.48082800  1
  C  336  1  0.18486900  0.98033100  0.45982900  1
  C  337  1  0.17303400  0.00724300  0.44757700  1
  C  338  1  0.19309100  0.03288700  0.45641200  1
  C  339  1  0.22376900  0.03158900  0.47718100  1
  C  353  1  0.08146000  0.55052300  0.99545400  1
  C  354  1  0.08511500  0.52320100  0.00937100  1
  C  355  1  0.05317100  0.50341000  0.00971800  1
  C  356  1  0.01652200  0.51064500  0.99648500  1
  C  357  1  0.01202600  0.53842000  0.98306000  1
  C  358  1  0.04454600  0.55805000  0.98278300  1
  C  360  1  0.98531100  0.48967300  0.99630400  1
  C  361  1  0.96568500  0.48085800  0.02230200  1
  C  362  1  0.93479000  0.45987900  0.02062700  1
  C  363  1  0.92292100  0.44764700  0.99371500  1
  C  364  1  0.94297700  0.45646800  0.96806800  1
  C  365  1  0.97367900  0.47722000  0.96936200  1
  C  379  1  0.58146000  0.45042000  0.00552500  1
  C  380  1  0.58511800  0.47773800  0.99159700  1
  C  381  1  0.55317500  0.49753000  0.99123900  1
  C  382  1  0.51652800  0.49030400  0.00448100  1
  C  383  1  0.51202600  0.46253200  0.01790900  1
  C  384  1  0.54453900  0.44289700  0.01818800  1
  C  386  1  0.48532400  0.51128300  0.00466100  1
  C  387  1  0.46570100  0.52009800  0.97866200  1
  C  388  1  0.43481200  0.54108100  0.98033500  1
  C  389  1  0.42293100  0.55330700  0.00724800  1
  C  390  1  0.44298100  0.54447900  0.03289600  1
  C  391  1  0.47369200  0.52373400  0.03160200  1
  C  405  1  0.09321700  0.02003700  0.67922800  1
  C  406  1  0.06980800  0.04277000  0.66729600  1
  C  407  1  0.04035800  0.03697100  0.64626200  1
  C  408  1  0.03356900  0.00836400  0.63534800  1
  C  409  1  0.05590300  0.98558400  0.64860500  1
  C  410  1  0.08542000  0.99122200  0.66959900  1
  C  411  1  0.99984700  0.00153000  0.61408500  1
  C  412  1  0.96634500  0.99513900  0.63571000  1
  C  413  1  0.95931600  0.96669600  0.64700100  1
  C  414  1  0.92873800  0.96110000  0.66719300  1
  C  415  1  0.90471800  0.98399800  0.67804000  1
  C  416  1  0.91301800  0.01271900  0.66847100  1
  C  417  1  0.94367800  0.01812500  0.64831600  1
  C  418  1  0.98974500  0.02580300  0.59233000  1
  C  419  1  0.00958100  0.97674500  0.59281500  1
  C  420  1  0.97929800  0.95926300  0.58008900  1
  C  421  1  0.98759500  0.93820500  0.55854000  1
  C  422  1  0.02663500  0.93415000  0.54792500  1
  C  423  1  0.05685300  0.95229400  0.55939700  1
  C  424  1  0.04830900  0.97329700  0.58093300  1
  C  425  1  0.01980800  0.04292800  0.57882000  1
  C  426  1  0.01118000  0.06304900  0.55642900  1
  C  427  1  0.97193900  0.06658600  0.54615100  1
  C  428  1  0.94184300  0.04901700  0.55851600  1
  C  429  1  0.95079900  0.02881100  0.58068400  1
  C  446  1  0.03394800  0.91373900  0.52602000  1
  C  447  1  0.12220200  0.02643500  0.70003500  1
  C  450  1  0.87297900  0.97803900  0.69650600  1
  C  452  1  0.96390700  0.08516600  0.52301100  1
  C  454  1  0.59291900  0.98090600  0.88974300  1
  C  455  1  0.56933200  0.95821400  0.90156000  1
  C  456  1  0.53992800  0.96403500  0.92262400  1
  C  457  1  0.53338300  0.99260900  0.93370900  1
  C  458  1  0.55586800  0.01535800  0.92053700  1
  C  459  1  0.58534100  0.00970400  0.89951700  1
  C  460  1  0.49970800  0.99945300  0.95499800  1
  C  461  1  0.46614100  0.00584600  0.93343100  1
  C  462  1  0.45930800  0.03425400  0.92198600  1
  C  463  1  0.42854300  0.03990900  0.90196400  1
  C  464  1  0.40413400  0.01709000  0.89141900  1
  C  465  1  0.41228200  0.98837700  0.90108300  1
  C  466  1  0.44316200  0.98291200  0.92104000  1
  C  467  1  0.48965900  0.97518300  0.97676800  1
  C  468  1  0.50947500  0.02424800  0.97624100  1
  C  469  1  0.47925400  0.04184100  0.98889500  1
  C  470  1  0.48758100  0.06290000  0.01043690  1
  C  471  1  0.52659400  0.06683500  0.02114390  1
  C  472  1  0.55674100  0.04855900  0.00978187  1
  C  473  1  0.54816200  0.02757000  0.98823900  1
  C  474  1  0.51970800  0.95793000  0.99013200  1
  C  475  1  0.51113200  0.93780500  0.01253090  1
  C  476  1  0.47195500  0.93439400  0.02297790  1
  C  477  1  0.44189100  0.95212200  0.01080190  1
  C  478  1  0.45080900  0.97232700  0.98862800  1
  C  495  1  0.53393200  0.08725200  0.04303890  1
  C  496  1  0.62188700  0.97449000  0.86892600  1
  C  499  1  0.37191400  0.02310600  0.87339000  1
  C  501  1  0.46396400  0.91577500  0.04609090  1
  C  503  1  0.34303200  0.60564800  0.30408300  1
  C  504  1  0.31944200  0.61744900  0.32678500  1
  C  505  1  0.29002500  0.63850500  0.32097800  1
  C  506  1  0.28346200  0.64959800  0.29240900  1
  C  507  1  0.30594600  0.63644200  0.26965100  1
  C  508  1  0.33543300  0.61542800  0.27529000  1
  C  509  1  0.24977300  0.67088100  0.28558300  1
  C  510  1  0.21621000  0.64931000  0.27919100  1
  C  511  1  0.20937000  0.63786900  0.25078200  1
  C  512  1  0.17860300  0.61784900  0.24512800  1
  C  513  1  0.15420400  0.60729300  0.26794800  1
  C  514  1  0.16235400  0.61696000  0.29666100  1
  C  515  1  0.19323800  0.63691600  0.30212700  1
  C  516  1  0.23972500  0.69264400  0.30985800  1
  C  517  1  0.25952500  0.69213300  0.26079000  1
  C  518  1  0.22929500  0.70478000  0.24320200  1
  C  519  1  0.23761000  0.72633200  0.22214700  1
  C  520  1  0.27661400  0.73705600  0.21822300  1
  C  521  1  0.30677100  0.72569400  0.23648800  1
  C  522  1  0.29820400  0.70414700  0.25747300  1
  C  523  1  0.26977400  0.70601300  0.32711000  1
  C  524  1  0.26119500  0.72840100  0.34724600  1
  C  525  1  0.22202200  0.73886100  0.35064100  1
  C  526  1  0.19195500  0.72668300  0.33291700  1
  C  527  1  0.20087500  0.70450700  0.31271300  1
  C  544  1  0.28394000  0.75896800  0.19782300  1
  C  545  1  0.37199400  0.58482400  0.31048300  1
  C  548  1  0.12196100  0.58928800  0.26193100  1
  C  550  1  0.21401900  0.76197000  0.36926200  1
  C  552  1  0.84304600  0.39527800  0.26500500  1
  C  553  1  0.81938500  0.38353300  0.24231800  1
  C  554  1  0.78995400  0.36248600  0.24813000  1
  C  555  1  0.78345400  0.35135500  0.27669100  1
  C  556  1  0.80602500  0.36444200  0.29943900  1
  C  557  1  0.83551900  0.38545100  0.29379300  1
  C  558  1  0.74976400  0.33006200  0.28349500  1
  C  559  1  0.71620000  0.35164000  0.28986900  1
  C  560  1  0.70942900  0.36313100  0.31826800  1
  C  561  1  0.67865000  0.38313500  0.32393000  1
  C  562  1  0.65418100  0.39363900  0.30112400  1
  C  563  1  0.66225500  0.38391300  0.27241900  1
  C  564  1  0.69314700  0.36396800  0.26694300  1
  C  565  1  0.73975700  0.30829200  0.25921700  1
  C  566  1  0.75950400  0.30881200  0.30829100  1
  C  567  1  0.72928000  0.29621700  0.32592600  1
  C  568  1  0.73758600  0.27466200  0.34697500  1
  C  569  1  0.77657600  0.26389600  0.35086900  1
  C  570  1  0.80672300  0.27521000  0.33256400  1
  C  571  1  0.79815900  0.29675000  0.31157100  1
  C  572  1  0.76979100  0.29498900  0.24190700  1
  C  573  1  0.76121500  0.27258600  0.22178700  1
  C  574  1  0.72205300  0.26208900  0.21842800  1
  C  575  1  0.69200100  0.27421800  0.23619900  1
  C  576  1  0.70092100  0.29638800  0.25641100  1
  C  593  1  0.78389600  0.24199000  0.37127500  1
  C  594  1  0.87202300  0.41609000  0.25859800  1
  C  597  1  0.62194000  0.41163900  0.30715100  1
  C  599  1  0.71405600  0.23898400  0.19979800  1
  C  601  1  0.91926600  0.11919100  0.50232800  1
  C  602  1  0.90413900  0.14650700  0.51109400  1
  C  603  1  0.88822200  0.16593700  0.49038400  1
  C  604  1  0.88608700  0.15808400  0.46055600  1
  C  605  1  0.90041800  0.13036800  0.45148200  1
  C  606  1  0.91692000  0.11121100  0.47255500  1
  C  608  1  0.86922900  0.17813300  0.44038400  1
  C  609  1  0.89032700  0.20322300  0.43088000  1
  C  610  1  0.87213300  0.22250800  0.41069300  1
  C  611  1  0.83341600  0.21747800  0.40006400  1
  C  612  1  0.81299200  0.19220400  0.40951200  1
  C  613  1  0.83068400  0.17278400  0.42943200  1
  C  627  1  0.41925200  0.88180800  0.06678790  1
  C  628  1  0.40417500  0.85448000  0.05802390  1
  C  629  1  0.38826400  0.83504600  0.07873590  1
  C  630  1  0.38612000  0.84290100  0.10856300  1
  C  631  1  0.40043400  0.87062300  0.11763700  1
  C  632  1  0.41692300  0.88978400  0.09656190  1
  C  634  1  0.36926800  0.82285100  0.12873500  1
  C  635  1  0.39037300  0.79776400  0.13823800  1
  C  636  1  0.37218400  0.77847400  0.15842400  1
  C  637  1  0.33347000  0.78350400  0.16905900  1
  C  638  1  0.31302800  0.80876600  0.15959900  1
  C  639  1  0.33072100  0.82819100  0.13968000  1
  C  653  1  0.16928600  0.78267400  0.40321000  1
  C  654  1  0.15420100  0.77391400  0.43053900  1
  C  655  1  0.13827900  0.79462600  0.44996600  1
  C  656  1  0.13613700  0.82445000  0.44210700  1
  C  657  1  0.15045300  0.83352000  0.41438600  1
  C  658  1  0.16694600  0.81244500  0.39522700  1
  C  660  1  0.11928000  0.84462500  0.46215600  1
  C  661  1  0.14038100  0.85413200  0.48724200  1
  C  662  1  0.12218400  0.87431400  0.50653100  1
  C  663  1  0.08346600  0.88494000  0.50150400  1
  C  664  1  0.06303300  0.87548500  0.47623600  1
  C  665  1  0.08073000  0.85556800  0.45681300  1
  C  679  1  0.66934300  0.21826500  0.16585500  1
  C  680  1  0.65420700  0.22703600  0.13854400  1
  C  681  1  0.63829400  0.20632700  0.11911000  1
  C  682  1  0.63615300  0.17649900  0.12696300  1
  C  683  1  0.65049000  0.16742200  0.15467600  1
  C  684  1  0.66700900  0.18849100  0.17383100  1
  C  686  1  0.61928900  0.15632900  0.10691300  1
  C  687  1  0.64038400  0.14682400  0.08182390  1
  C  688  1  0.62218700  0.12664000  0.06253590  1
  C  689  1  0.58347300  0.11601100  0.06756590  1
  C  690  1  0.56304000  0.12546800  0.09283690  1
  C  691  1  0.58074400  0.14538000  0.11226200  1
  C  705  1  0.83159600  0.99576400  0.73474700  1
  C  706  1  0.83496600  0.00979600  0.76203000  1
  C  707  1  0.80290700  0.01004600  0.78171500  1
  C  708  1  0.76641400  0.99662500  0.77439900  1
  C  709  1  0.76220100  0.98309700  0.74664900  1
  C  710  1  0.79484500  0.98290700  0.72712500  1
  C  712  1  0.73508600  0.99638300  0.79528200  1
  C  713  1  0.71536800  0.02235000  0.80407500  1
  C  714  1  0.68445200  0.02063200  0.82503200  1
  C  715  1  0.67264200  0.99370600  0.83725900  1
  C  716  1  0.69277300  0.96808600  0.82845100  1
  C  717  1  0.72350800  0.96942500  0.80772800  1
  C  731  1  0.33144800  0.00551000  0.83461100  1
  C  732  1  0.33513300  0.99158900  0.80729300  1
  C  733  1  0.30320200  0.99122400  0.78749200  1
  C  734  1  0.26655100  0.00446500  0.79470300  1
  C  735  1  0.26202700  0.01790000  0.82246900  1
  C  736  1  0.29452800  0.01818300  0.84211500  1
  C  738  1  0.23536700  0.00464800  0.77370900  1
  C  739  1  0.21573600  0.97865300  0.76488800  1
  C  740  1  0.18486900  0.98033100  0.74388900  1
  C  741  1  0.17303400  0.00724300  0.73163700  1
  C  742  1  0.19309100  0.03288700  0.74047200  1
  C  743  1  0.22376900  0.03158900  0.76124100  1
  C  757  1  0.08146000  0.55052300  0.27951400  1
  C  758  1  0.08511500  0.52320100  0.29343100  1
  C  759  1  0.05317100  0.50341000  0.29377800  1
  C  760  1  0.01652200  0.51064500  0.28054500  1
  C  761  1  0.01202600  0.53842000  0.26712000  1
  C  762  1  0.04454600  0.55805000  0.26684300  1
  C  764  1  0.98531100  0.48967300  0.28036400  1
  C  765  1  0.96568500  0.48085800  0.30636200  1
  C  766  1  0.93479000  0.45987900  0.30468700  1
  C  767  1  0.92292100  0.44764700  0.27777500  1
  C  768  1  0.94297700  0.45646800  0.25212800  1
  C  769  1  0.97367900  0.47722000  0.25342200  1
  C  783  1  0.58146000  0.45042000  0.28958500  1
  C  784  1  0.58511800  0.47773800  0.27565700  1
  C  785  1  0.55317500  0.49753000  0.27529900  1
  C  786  1  0.51652800  0.49030400  0.28854100  1
  C  787  1  0.51202600  0.46253200  0.30196900  1
  C  788  1  0.54453900  0.44289700  0.30224800  1
  C  790  1  0.48532400  0.51128300  0.28872100  1
  C  791  1  0.46570100  0.52009800  0.26272200  1
  C  792  1  0.43481200  0.54108100  0.26439500  1
  C  793  1  0.42293100  0.55330700  0.29130800  1
  C  794  1  0.44298100  0.54447900  0.31695600  1
  C  795  1  0.47369200  0.52373400  0.31566200  1
  N  215  1  0.89807500  0.12244300  0.13756600  1
  N  216  1  0.92932300  0.20819800  0.15725600  1
  N  221  1  0.81902600  0.23664100  0.09687600  1
  N  222  1  0.93232300  0.10095600  0.23866000  1
  N  241  1  0.39808800  0.87854800  0.86343200  1
  N  242  1  0.42937200  0.79279300  0.84374200  1
  N  247  1  0.31906800  0.76432100  0.90410500  1
  N  248  1  0.43231700  0.90005600  0.76234800  1
  N  267  1  0.14810800  0.86337500  0.12239600  1
  N  268  1  0.17938300  0.84370100  0.20815300  1
  N  273  1  0.06906700  0.90405200  0.23661900  1
  N  274  1  0.18235900  0.76229400  0.10090900  1
  N  293  1  0.64813800  0.13756700  0.87854400  1
  N  294  1  0.67938300  0.15726000  0.79278600  1
  N  299  1  0.56907100  0.09689400  0.76433700  1
  N  300  1  0.68238500  0.23864900  0.90004500  1
  N  319  1  0.72529200  0.97056400  0.45465500  1
  N  320  1  0.72635200  0.04936900  0.50728500  1
  N  325  1  0.64362700  0.99431800  0.57295500  1
  N  326  1  0.86299000  0.99610700  0.43302500  1
  N  345  1  0.22496600  0.03026600  0.54622700  1
  N  346  1  0.22674200  0.95165600  0.49359300  1
  N  351  1  0.14400500  0.00661100  0.42783100  1
  N  352  1  0.36275900  0.00531300  0.56830900  1
  N  371  1  0.97497100  0.54626400  0.97070200  1
  N  372  1  0.97672900  0.49359900  0.04930100  1
  N  377  1  0.89388800  0.42790500  0.99435300  1
  N  378  1  0.11278900  0.56826300  0.99565500  1
  N  397  1  0.47496600  0.45469400  0.03026600  1
  N  398  1  0.47674200  0.50735400  0.95166500  1
  N  403  1  0.39389800  0.57304600  0.00661200  1
  N  404  1  0.61277600  0.43266900  0.00530900  1
  N  619  1  0.89807500  0.12244300  0.42162600  1
  N  620  1  0.92932300  0.20819800  0.44131600  1
  N  625  1  0.81902600  0.23664100  0.38093600  1
  N  626  1  0.93232300  0.10095600  0.52272000  1
  N  645  1  0.39808800  0.87854800  0.14749200  1
  N  646  1  0.42937200  0.79279300  0.12780200  1
  N  651  1  0.31906800  0.76432100  0.18816500  1
  N  652  1  0.43231700  0.90005600  0.04640790  1
  N  671  1  0.14810800  0.86337500  0.40645600  1
  N  672  1  0.17938300  0.84370100  0.49221300  1
  N  677  1  0.06906700  0.90405200  0.52067900  1
  N  678  1  0.18235900  0.76229400  0.38496900  1
  N  697  1  0.64813800  0.13756700  0.16260400  1
  N  698  1  0.67938300  0.15726000  0.07684590  1
  N  703  1  0.56907100  0.09689400  0.04839690  1
  N  704  1  0.68238500  0.23864900  0.18410500  1
  N  723  1  0.72529200  0.97056400  0.73871500  1
  N  724  1  0.72635200  0.04936900  0.79134500  1
  N  729  1  0.64362700  0.99431800  0.85701500  1
  N  730  1  0.86299000  0.99610700  0.71708500  1
  N  749  1  0.22496600  0.03026600  0.83028700  1
  N  750  1  0.22674200  0.95165600  0.77765300  1
  N  755  1  0.14400500  0.00661100  0.71189100  1
  N  756  1  0.36275900  0.00531300  0.85236900  1
  N  775  1  0.97497100  0.54626400  0.25476200  1
  N  776  1  0.97672900  0.49359900  0.33333333  1
  N  781  1  0.89388800  0.42790500  0.27841300  1
  N  782  1  0.11278900  0.56826300  0.27971500  1
  N  801  1  0.47496600  0.45469400  0.31432600  1
  N  802  1  0.47674200  0.50735400  0.23572500  1
  N  807  1  0.39389800  0.57304600  0.29067200  1
  N  808  1  0.61277600  0.43266900  0.28936900  1
  O  217  1  0.93172900  0.23210700  0.17063300  1
  O  218  1  0.87703600  0.10003700  0.13406200  1
  O  219  1  0.93191600  0.11769000  0.12702400  1
  O  220  1  0.95411000  0.20818800  0.13673300  1
  O  243  1  0.43178300  0.76888600  0.83036300  1
  O  244  1  0.37703100  0.90094500  0.86693500  1
  O  245  1  0.43192500  0.88331400  0.87397300  1
  O  246  1  0.45415800  0.79280600  0.86426700  1
  O  269  1  0.18179500  0.83032400  0.23206100  1
  O  270  1  0.12705400  0.86687600  0.09999700  1
  O  271  1  0.18194500  0.87391600  0.11763100  1
  O  272  1  0.20416300  0.86422900  0.20814300  1
  O  295  1  0.68178300  0.17063900  0.76887700  1
  O  296  1  0.62709800  0.13406900  0.90095000  1
  O  297  1  0.68197300  0.12701700  0.88329200  1
  O  298  1  0.70416700  0.13673600  0.79279300  1
  O  321  1  0.73827200  0.06715500  0.52627500  1
  O  322  1  0.72870400  0.94375700  0.44926400  1
  O  323  1  0.71073000  0.98301700  0.43265300  1
  O  324  1  0.69785700  0.06068200  0.49363900  1
  O  347  1  0.23875400  0.93387400  0.47463100  1
  O  348  1  0.22813600  0.05707500  0.55168500  1
  O  349  1  0.21034300  0.01770800  0.56814500  1
  O  350  1  0.19823200  0.94031800  0.50720100  1
  O  373  1  0.98872900  0.47462000  0.06707000  1
  O  374  1  0.97814300  0.55172900  0.94389300  1
  O  375  1  0.96037000  0.56818700  0.98326800  1
  O  376  1  0.94824200  0.50722300  0.06065700  1
  O  399  1  0.48874500  0.52633200  0.93389600  1
  O  400  1  0.47813200  0.44922900  0.05707300  1
  O  401  1  0.46036200  0.43277400  0.01769800  1
  O  402  1  0.44825500  0.49373100  0.94030900  1
  O  621  1  0.93172900  0.23210700  0.45469300  1
  O  622  1  0.87703600  0.10003700  0.41812200  1
  O  623  1  0.93191600  0.11769000  0.41108400  1
  O  624  1  0.95411000  0.20818800  0.42079300  1
  O  647  1  0.43178300  0.76888600  0.11442300  1
  O  648  1  0.37703100  0.90094500  0.15099500  1
  O  649  1  0.43192500  0.88331400  0.15803300  1
  O  650  1  0.45415800  0.79280600  0.14832700  1
  O  673  1  0.18179500  0.83032400  0.51612100  1
  O  674  1  0.12705400  0.86687600  0.38405700  1
  O  675  1  0.18194500  0.87391600  0.40169100  1
  O  676  1  0.20416300  0.86422900  0.49220300  1
  O  699  1  0.68178300  0.17063900  0.05293690  1
  O  700  1  0.62709800  0.13406900  0.18501000  1
  O  701  1  0.68197300  0.12701700  0.16735200  1
  O  702  1  0.70416700  0.13673600  0.07685290  1
  O  725  1  0.73827200  0.06715500  0.81033500  1
  O  726  1  0.72870400  0.94375700  0.73332400  1
  O  727  1  0.71073000  0.98301700  0.71671300  1
  O  728  1  0.69785700  0.06068200  0.77769900  1
  O  751  1  0.23875400  0.93387400  0.75869100  1
  O  752  1  0.22813600  0.05707500  0.83574500  1
  O  753  1  0.21034300  0.01770800  0.85220500  1
  O  754  1  0.19823200  0.94031800  0.79126100  1
  O  777  1  0.98872900  0.47462000  0.35113000  1
  O  778  1  0.97814300  0.55172900  0.22795300  1
  O  779  1  0.96037000  0.56818700  0.26732800  1
  O  780  1  0.94824200  0.50722300  0.34471700  1
  O  803  1  0.48874500  0.52633200  0.21795600  1
  O  804  1  0.47813200  0.44922900  0.34113300  1
  O  805  1  0.46036200  0.43277400  0.30175800  1
  O  806  1  0.44825500  0.49373100  0.22436900  1
