# generated using pymatgen
data_Zn4H30C54O13
_symmetry_space_group_name_H-M   'P 1'
_cell_length_a   30.03330000
_cell_length_b   37.07200000
_cell_length_c   37.07200000
_cell_angle_alpha   120.00000000
_cell_angle_beta   90.00000000
_cell_angle_gamma   90.00000000
_symmetry_Int_Tables_number   1
_chemical_formula_structural   Zn4H30C54O13
_chemical_formula_sum   'Zn32 H240 C432 O104'
_cell_volume   35745.85742634
_cell_formula_units_Z   8
loop_
 _symmetry_equiv_pos_site_id
 _symmetry_equiv_pos_as_xyz
  1  'x, y, z'
loop_
 _atom_site_type_symbol
 _atom_site_label
 _atom_site_symmetry_multiplicity
 _atom_site_fract_x
 _atom_site_fract_y
 _atom_site_fract_z
 _atom_site_occupancy
  Zn  Zn1  1  0.72690000  0.37748000  0.71590000  1.0
  Zn  Zn2  1  0.81035000  0.33387000  0.66736000  1.0
  Zn  Zn3  1  0.72718000  0.28515000  0.66275000  1.0
  Zn  Zn4  1  0.72675000  0.33811000  0.62344000  1.0
  Zn  Zn5  1  0.22595000  0.71443000  0.37568000  1.0
  Zn  Zn6  1  0.22699000  0.66100000  0.28319000  1.0
  Zn  Zn7  1  0.30945000  0.66588000  0.33254667  1.0
  Zn  Zn8  1  0.22550000  0.62207000  0.33637000  1.0
  Zn  Zn9  1  0.79971000  0.83925000  0.13914000  1.0
  Zn  Zn10  1  0.73971000  0.77676000  0.14354000  1.0
  Zn  Zn11  1  0.76514000  0.85573000  0.22200000  1.0
  Zn  Zn12  1  0.70338000  0.85892000  0.15990000  1.0
  Zn  Zn13  1  0.20184000  0.70052000  0.84073000  1.0
  Zn  Zn14  1  0.23800000  0.63431000  0.85674000  1.0
  Zn  Zn15  1  0.26273000  0.63475000  0.77829000  1.0
  Zn  Zn16  1  0.29819000  0.70096000  0.86104000  1.0
  Zn  Zn17  1  0.70187000  0.84048000  0.69937000  1.0
  Zn  Zn18  1  0.76279000  0.77804000  0.63351000  1.0
  Zn  Zn19  1  0.73758000  0.85637000  0.63308000  1.0
  Zn  Zn20  1  0.79809000  0.86054000  0.69960000  1.0
  Zn  Zn21  1  0.70152000  0.30022000  0.14119000  1.0
  Zn  Zn22  1  0.76247000  0.36614000  0.14474000  1.0
  Zn  Zn23  1  0.73668000  0.36671000  0.22353000  1.0
  Zn  Zn24  1  0.79763000  0.30018000  0.16150000  1.0
  Zn  Zn25  1  0.29342000  0.20383000  0.36837000  1.0
  Zn  Zn26  1  0.22700000  0.18886000  0.30302000  1.0
  Zn  Zn27  1  0.27377000  0.11550000  0.30255000  1.0
  Zn  Zn28  1  0.20837000  0.16596000  0.36879000  1.0
  Zn  Zn29  1  0.29750000  0.13911000  0.83985000  1.0
  Zn  Zn30  1  0.26227000  0.22176000  0.85619000  1.0
  Zn  Zn31  1  0.23798000  0.14336000  0.77698000  1.0
  Zn  Zn32  1  0.20103000  0.15926000  0.85886000  1.0
  H  H1  1  0.74948000  0.03866000  0.96203000  1.0
  H  H2  1  0.74895000  0.03840000  0.07763000  1.0
  H  H3  1  0.75000000  0.92209000  0.96035000  1.0
  H  H4  1  0.25039000  0.96204000  0.04037000  1.0
  H  H5  1  0.24654000  0.07789000  0.03898000  1.0
  H  H6  1  0.24750000  0.96233000  0.92443000  1.0
  H  H7  1  0.75228000  0.74382000  0.37175000  1.0
  H  H8  1  0.75055000  0.62805000  0.37196000  1.0
  H  H9  1  0.75175000  0.62784000  0.25598000  1.0
  H  H10  1  0.25158000  0.37285000  0.74519000  1.0
  H  H11  1  0.25517000  0.25701000  0.62899000  1.0
  H  H12  1  0.24860000  0.37251000  0.62898000  1.0
  H  H13  1  0.84821000  0.58360000  0.91045000  1.0
  H  H14  1  0.96622000  0.55231000  0.83371000  1.0
  H  H15  1  0.95963000  0.66734000  0.94800000  1.0
  H  H16  1  0.53283000  0.55557000  0.72041000  1.0
  H  H17  1  0.65430000  0.58543000  0.67921000  1.0
  H  H18  1  0.54414000  0.67148000  0.72140000  1.0
  H  H19  1  0.96630000  0.28634000  0.45080000  1.0
  H  H20  1  0.84735000  0.32923000  0.41774000  1.0
  H  H21  1  0.95832000  0.28470000  0.33463000  1.0
  H  H22  1  0.34818000  0.67533000  0.09134000  1.0
  H  H23  1  0.46777000  0.71805000  0.16571000  1.0
  H  H24  1  0.45936000  0.71840000  0.05030000  1.0
  H  H25  1  0.45826000  0.94789000  0.66760000  1.0
  H  H26  1  0.34613000  0.90816000  0.58351000  1.0
  H  H27  1  0.46458000  0.83305000  0.55228000  1.0
  H  H28  1  0.03603000  0.83520000  0.27630000  1.0
  H  H29  1  0.15873000  0.90374000  0.31489000  1.0
  H  H30  1  0.04780000  0.94957000  0.27475000  1.0
  H  H31  1  0.54275000  0.04850000  0.33078000  1.0
  H  H32  1  0.65510000  0.09066000  0.41527000  1.0
  H  H33  1  0.53595000  0.16362000  0.44627000  1.0
  H  H34  1  0.65378000  0.32104000  0.90688000  1.0
  H  H35  1  0.53249000  0.27991000  0.83555000  1.0
  H  H36  1  0.54348000  0.27863000  0.95035000  1.0
  H  H37  1  0.96677000  0.16560000  0.71749000  1.0
  H  H38  1  0.84696000  0.09036000  0.67419000  1.0
  H  H39  1  0.95772000  0.05085000  0.71819000  1.0
  H  H40  1  0.46393000  0.44405000  0.27720000  1.0
  H  H41  1  0.34256000  0.41266000  0.31693000  1.0
  H  H42  1  0.45425000  0.32834000  0.27630000  1.0
  H  H43  1  0.04267000  0.72145000  0.67041000  1.0
  H  H44  1  0.15457000  0.67890000  0.58527000  1.0
  H  H45  1  0.03400000  0.71998000  0.55471000  1.0
  H  H46  1  0.15359000  0.41353000  0.09204000  1.0
  H  H47  1  0.03313000  0.44404000  0.16495000  1.0
  H  H48  1  0.04180000  0.32909000  0.05080000  1.0
  H  H49  1  0.81373000  0.54646000  0.85412000  1.0
  H  H50  1  0.94228000  0.48859000  0.80624000  1.0
  H  H51  1  0.90433000  0.42638000  0.75380000  1.0
  H  H52  1  0.77764000  0.48393000  0.80452000  1.0
  H  H53  1  0.64273000  0.50749000  0.63027000  1.0
  H  H54  1  0.59511000  0.53315000  0.75053000  1.0
  H  H55  1  0.63115000  0.46965000  0.74074000  1.0
  H  H56  1  0.67832000  0.44347000  0.62008000  1.0
  H  H57  1  0.94198000  0.32105000  0.51388000  1.0
  H  H58  1  0.81348000  0.31028000  0.45560000  1.0
  H  H59  1  0.77736000  0.32193000  0.51773000  1.0
  H  H60  1  0.90410000  0.32953000  0.57552000  1.0
  H  H61  1  0.31701000  0.70667000  0.15540000  1.0
  H  H62  1  0.44210000  0.67114000  0.18626000  1.0
  H  H63  1  0.40394000  0.66110000  0.23928000  1.0
  H  H64  1  0.27936000  0.69454000  0.20595000  1.0
  H  H65  1  0.59861000  0.21441000  0.46574000  1.0
  H  H66  1  0.64481000  0.12105000  0.49381000  1.0
  H  H67  1  0.68009000  0.17555000  0.55769000  1.0
  H  H68  1  0.63418000  0.26869000  0.52905000  1.0
  H  H69  1  0.64256000  0.37007000  0.87815000  1.0
  H  H70  1  0.59482000  0.25007000  0.78311000  1.0
  H  H71  1  0.63123000  0.26003000  0.72966000  1.0
  H  H72  1  0.67854000  0.38042000  0.82458000  1.0
  H  H73  1  0.81363000  0.14746000  0.69363000  1.0
  H  H74  1  0.94243000  0.19406000  0.68230000  1.0
  H  H75  1  0.90477000  0.24692000  0.67295000  1.0
  H  H76  1  0.77780000  0.19748000  0.68123000  1.0
  H  H77  1  0.43995000  0.81292000  0.48514000  1.0
  H  H78  1  0.31396000  0.84492000  0.55009000  1.0
  H  H79  1  0.27687000  0.79403000  0.48712000  1.0
  H  H80  1  0.40238000  0.75960000  0.42197000  1.0
  H  H81  1  0.09752000  0.78103000  0.24566000  1.0
  H  H82  1  0.14651000  0.87670000  0.36477000  1.0
  H  H83  1  0.18037000  0.82327000  0.37664000  1.0
  H  H84  1  0.13184000  0.72768000  0.25711000  1.0
  H  H85  1  0.31272000  0.44584000  0.28514000  1.0
  H  H86  1  0.43824000  0.51110000  0.32465000  1.0
  H  H87  1  0.40131000  0.57532000  0.33659000  1.0
  H  H88  1  0.27616000  0.50970000  0.29919000  1.0
  H  H89  1  0.14399000  0.62974000  0.50741000  1.0
  H  H90  1  0.09599000  0.74975000  0.53264000  1.0
  H  H91  1  0.13142000  0.73962000  0.46883000  1.0
  H  H92  1  0.17910000  0.61924000  0.44304000  1.0
  H  H93  1  0.15698000  0.48281000  0.12055000  1.0
  H  H94  1  0.08175000  0.47592000  0.21668000  1.0
  H  H95  1  0.11753000  0.53929000  0.26904000  1.0
  H  H96  1  0.19237000  0.54634000  0.17372000  1.0
  H  H97  1  0.69145000  0.91818000  0.90337000  1.0
  H  H98  1  0.80848000  0.98560000  0.90380000  1.0
  H  H99  1  0.80876000  0.94747000  0.82726000  1.0
  H  H100  1  0.69070000  0.88101000  0.82686000  1.0
  H  H101  1  0.78932000  0.90199000  0.99911000  1.0
  H  H102  1  0.70973000  0.99908000  0.09699000  1.0
  H  H103  1  0.71002000  0.96036000  0.13413000  1.0
  H  H104  1  0.78991000  0.86442000  0.03741000  1.0
  H  H105  1  0.80711000  0.09576000  0.08294000  1.0
  H  H106  1  0.69080000  0.09648000  0.01527000  1.0
  H  H107  1  0.69053000  0.17299000  0.05434000  1.0
  H  H108  1  0.80786000  0.17228000  0.12111000  1.0
  H  H109  1  0.29089000  0.90384000  0.00127000  1.0
  H  H110  1  0.20776000  0.90398000  0.90584000  1.0
  H  H111  1  0.20762000  0.82815000  0.86835000  1.0
  H  H112  1  0.29104000  0.82790000  0.96257000  1.0
  H  H113  1  0.21423000  0.10116000  0.09935000  1.0
  H  H114  1  0.28437000  0.99906000  0.09969000  1.0
  H  H115  1  0.28353000  0.03696000  0.17493000  1.0
  H  H116  1  0.21563000  0.13916000  0.17462000  1.0
  H  H117  1  0.30552000  0.01482000  0.92025000  1.0
  H  H118  1  0.18755000  0.08188000  0.98534000  1.0
  H  H119  1  0.18796000  0.11896000  0.94587000  1.0
  H  H120  1  0.30692000  0.05277000  0.88174000  1.0
  H  H121  1  0.83245000  0.61585000  0.97626000  1.0
  H  H122  1  0.90886000  0.71485000  0.97554000  1.0
  H  H123  1  0.87050000  0.76498000  0.03696000  1.0
  H  H124  1  0.79220000  0.66757000  0.03701000  1.0
  H  H125  1  0.67210000  0.02382000  0.38307000  1.0
  H  H126  1  0.59309000  0.02098000  0.28370000  1.0
  H  H127  1  0.63203000  0.96001000  0.23401000  1.0
  H  H128  1  0.71302000  0.96312000  0.33152000  1.0
  H  H129  1  0.60446000  0.71699000  0.74872000  1.0
  H  H130  1  0.66212000  0.61720000  0.63628000  1.0
  H  H131  1  0.70287000  0.66856000  0.62556000  1.0
  H  H132  1  0.64358000  0.76767000  0.73740000  1.0
  H  H133  1  0.89876000  0.25676000  0.28819000  1.0
  H  H134  1  0.84054000  0.37028000  0.38587000  1.0
  H  H135  1  0.79868000  0.37838000  0.33352000  1.0
  H  H136  1  0.85853000  0.26560000  0.23638000  1.0
  H  H137  1  0.34025000  0.63395000  0.01802000  1.0
  H  H138  1  0.39992000  0.74584000  0.03110000  1.0
  H  H139  1  0.35996000  0.73595000  0.96996000  1.0
  H  H140  1  0.29870000  0.62476000  0.95696000  1.0
  H  H141  1  0.09355000  0.74154000  0.71747000  1.0
  H  H142  1  0.17200000  0.64466000  0.61792000  1.0
  H  H143  1  0.21215000  0.63457000  0.66927000  1.0
  H  H144  1  0.13182000  0.72946000  0.76702000  1.0
  H  H145  1  0.83988000  0.01761000  0.63288000  1.0
  H  H146  1  0.89780000  0.03200000  0.74594000  1.0
  H  H147  1  0.85811000  0.97062000  0.73586000  1.0
  H  H148  1  0.79859000  0.95640000  0.62352000  1.0
  H  H149  1  0.32914000  0.97428000  0.61645000  1.0
  H  H150  1  0.40798000  0.97583000  0.71530000  1.0
  H  H151  1  0.36949000  0.03719000  0.76535000  1.0
  H  H152  1  0.28891000  0.03518000  0.66818000  1.0
  H  H153  1  0.07547000  0.01042000  0.32258000  1.0
  H  H154  1  0.19739000  0.93828000  0.28954000  1.0
  H  H155  1  0.23907000  0.00002000  0.30205000  1.0
  H  H156  1  0.11752000  0.07110000  0.33482000  1.0
  H  H157  1  0.66152000  0.36384000  0.98147000  1.0
  H  H158  1  0.60371000  0.25141000  0.96872000  1.0
  H  H159  1  0.64291000  0.26258000  0.03063000  1.0
  H  H160  1  0.70234000  0.37441000  0.04345000  1.0
  H  H161  1  0.30423000  0.35260000  0.28954000  1.0
  H  H162  1  0.42610000  0.31372000  0.32289000  1.0
  H  H163  1  0.38402000  0.26498000  0.33471000  1.0
  H  H164  1  0.26256000  0.30318000  0.30168000  1.0
  H  H165  1  0.09285000  0.28215000  0.02348000  1.0
  H  H166  1  0.16985000  0.38202000  0.02519000  1.0
  H  H167  1  0.21014000  0.33076000  0.96387000  1.0
  H  H168  1  0.13117000  0.23268000  0.96183000  1.0
  H  H169  1  0.00657000  0.89867000  0.20768000  1.0
  H  H170  1  0.96161000  0.87570000  0.30479000  1.0
  H  H171  1  0.88528000  0.86744000  0.27868000  1.0
  H  H172  1  0.93018000  0.88950000  0.18079000  1.0
  H  H173  1  0.54489000  0.69190000  0.12731000  1.0
  H  H174  1  0.49704000  0.78685000  0.10232000  1.0
  H  H175  1  0.57271000  0.81506000  0.11110000  1.0
  H  H176  1  0.62065000  0.71937000  0.13518000  1.0
  H  H177  1  0.04369000  0.56479000  0.87226000  1.0
  H  H178  1  0.99464000  0.68352000  0.89472000  1.0
  H  H179  1  0.07022000  0.70357000  0.88658000  1.0
  H  H180  1  0.11938000  0.58499000  0.86494000  1.0
  H  H181  1  0.45749000  0.56856000  0.69427000  1.0
  H  H182  1  0.50485000  0.68840000  0.78987000  1.0
  H  H183  1  0.42900000  0.70741000  0.81791000  1.0
  H  H184  1  0.38172000  0.58768000  0.72150000  1.0
  H  H185  1  0.00546000  0.22629000  0.40816000  1.0
  H  H186  1  0.03431000  0.29782000  0.34807000  1.0
  H  H187  1  0.10783000  0.26485000  0.32778000  1.0
  H  H188  1  0.07889000  0.19507000  0.38953000  1.0
  H  H189  1  0.95824000  0.69413000  0.56746000  1.0
  H  H190  1  0.00499000  0.79047000  0.68719000  1.0
  H  H191  1  0.92904000  0.81825000  0.70578000  1.0
  H  H192  1  0.88230000  0.72117000  0.58619000  1.0
  H  H193  1  0.54195000  0.87128000  0.56442000  1.0
  H  H194  1  0.49455000  0.89547000  0.68422000  1.0
  H  H195  1  0.57041000  0.88714000  0.70355000  1.0
  H  H196  1  0.61793000  0.86381000  0.58392000  1.0
  H  H197  1  0.49760000  0.18097000  0.40245000  1.0
  H  H198  1  0.46713000  0.04974000  0.34386000  1.0
  H  H199  1  0.39311000  0.06311000  0.32508000  1.0
  H  H200  1  0.42372000  0.19426000  0.38534000  1.0
  H  H201  1  0.45703000  0.30589000  0.87451000  1.0
  H  H202  1  0.50427000  0.21017000  0.89863000  1.0
  H  H203  1  0.42841000  0.18211000  0.88946000  1.0
  H  H204  1  0.38125000  0.27863000  0.86627000  1.0
  H  H205  1  0.99493000  0.10317000  0.78653000  1.0
  H  H206  1  0.04358000  0.12706000  0.69107000  1.0
  H  H207  1  0.11924000  0.13484000  0.71880000  1.0
  H  H208  1  0.07045000  0.11176000  0.81490000  1.0
  H  H209  1  0.00468000  0.31213000  0.10371000  1.0
  H  H210  1  0.95796000  0.43164000  0.12643000  1.0
  H  H211  1  0.88199000  0.41299000  0.13473000  1.0
  H  H212  1  0.92867000  0.29361000  0.11291000  1.0
  H  H213  1  0.49437000  0.31242000  0.20964000  1.0
  H  H214  1  0.53975000  0.43276000  0.30588000  1.0
  H  H215  1  0.61618000  0.41420000  0.27992000  1.0
  H  H216  1  0.57068000  0.29402000  0.18298000  1.0
  H  H217  1  0.71190000  0.66728000  0.23601000  1.0
  H  H218  1  0.79314000  0.76341000  0.33247000  1.0
  H  H219  1  0.79224000  0.80185000  0.29497000  1.0
  H  H220  1  0.71370000  0.70461000  0.19748000  1.0
  H  H221  1  0.79079000  0.66704000  0.43126000  1.0
  H  H222  1  0.71148000  0.76412000  0.43078667  1.0
  H  H223  1  0.71246000  0.80269000  0.50662000  1.0
  H  H224  1  0.78904000  0.70459000  0.50716000  1.0
  H  H225  1  0.79137000  0.56833000  0.23620000  1.0
  H  H226  1  0.70972000  0.56926000  0.33274000  1.0
  H  H227  1  0.71043000  0.49335000  0.29551000  1.0
  H  H228  1  0.78935000  0.49244000  0.19791000  1.0
  H  H229  1  0.28958000  0.43188000  0.66733000  1.0
  H  H230  1  0.21201000  0.43230000  0.76580000  1.0
  H  H231  1  0.21318000  0.50818000  0.80387000  1.0
  H  H232  1  0.28804000  0.50779000  0.70444000  1.0
  H  H233  1  0.20523000  0.24159000  0.57118000  1.0
  H  H234  1  0.29851000  0.33006000  0.57106000  1.0
  H  H235  1  0.29819000  0.29220000  0.49495000  1.0
  H  H236  1  0.20517000  0.20345000  0.49509000  1.0
  H  H237  1  0.21371000  0.23599000  0.66697000  1.0
  H  H238  1  0.29058000  0.33400000  0.76620000  1.0
  H  H239  1  0.28866000  0.29606000  0.80418000  1.0
  H  H240  1  0.21453000  0.19711000  0.70396000  1.0
  C  C1  1  0.75011000  0.97774000  0.95618000  1.0
  C  C2  1  0.74948000  0.02157000  0.97870000  1.0
  C  C3  1  0.74884000  0.04353000  0.02254000  1.0
  C  C4  1  0.74851000  0.02100000  0.04392000  1.0
  C  C5  1  0.74947000  0.97682000  0.02233000  1.0
  C  C6  1  0.75043000  0.95578000  0.97815000  1.0
  C  C7  1  0.24937000  0.95601000  0.97957000  1.0
  C  C8  1  0.25120000  0.97905000  0.02375000  1.0
  C  C9  1  0.24889000  0.02333000  0.04663000  1.0
  C  C10  1  0.24606000  0.04425000  0.02341000  1.0
  C  C11  1  0.24605000  0.02237000  0.97954000  1.0
  C  C12  1  0.24705000  0.97859000  0.95814000  1.0
  C  C13  1  0.75208000  0.68864000  0.31105000  1.0
  C  C14  1  0.75197000  0.71016000  0.35497000  1.0
  C  C15  1  0.75140000  0.68875000  0.37747000  1.0
  C  C16  1  0.75098000  0.64484000  0.35508000  1.0
  C  C17  1  0.75110000  0.62232000  0.31116000  1.0
  C  C18  1  0.75167000  0.64472000  0.28965000  1.0
  C  C19  1  0.25116000  0.37851000  0.69003000  1.0
  C  C20  1  0.25169000  0.35602000  0.71153000  1.0
  C  C21  1  0.25230000  0.31204000  0.69004000  1.0
  C  C22  1  0.25288000  0.29064000  0.64612000  1.0
  C  C23  1  0.25191000  0.31219000  0.62386000  1.0
  C  C24  1  0.25085000  0.35600000  0.64611000  1.0
  C  C25  1  0.89947000  0.63012000  0.93356000  1.0
  C  C26  1  0.88092000  0.59109000  0.90434000  1.0
  C  C27  1  0.90360000  0.56203000  0.86726000  1.0
  C  C28  1  0.94755000  0.57253000  0.86155000  1.0
  C  C29  1  0.96713000  0.61092000  0.89030000  1.0
  C  C30  1  0.94290000  0.63909000  0.92559000  1.0
  C  C31  1  0.53344000  0.61507000  0.72308000  1.0
  C  C32  1  0.55217000  0.57668000  0.71439000  1.0
  C  C33  1  0.59576000  0.56550000  0.69835000  1.0
  C  C34  1  0.62046000  0.59334000  0.69058000  1.0
  C  C35  1  0.60260000  0.63217000  0.69945000  1.0
  C  C36  1  0.55894000  0.64239000  0.71552000  1.0
  C  C37  1  0.96781000  0.28427000  0.39197000  1.0
  C  C38  1  0.94757000  0.29310000  0.43005000  1.0
  C  C39  1  0.90330000  0.30854000  0.44033000  1.0
  C  C40  1  0.88041000  0.31612000  0.41114000  1.0
  C  C41  1  0.89967000  0.30742000  0.37296000  1.0
  C  C42  1  0.94340000  0.29175000  0.36400000  1.0
  C  C43  1  0.40031000  0.69651000  0.06670000  1.0
  C  C44  1  0.38163000  0.68771000  0.09635000  1.0
  C  C45  1  0.40521000  0.69555000  0.13269000  1.0
  C  C46  1  0.44920000  0.71110000  0.13793000  1.0
  C  C47  1  0.46877000  0.71980000  0.10845000  1.0
  C  C48  1  0.44400000  0.71241000  0.07322000  1.0
  C  C49  1  0.46592000  0.88995000  0.61138000  1.0
  C  C50  1  0.44150000  0.92531000  0.63946000  1.0
  C  C51  1  0.39780000  0.93299000  0.63052000  1.0
  C  C52  1  0.37941000  0.90355000  0.59140000  1.0
  C  C53  1  0.40261000  0.86689000  0.56282000  1.0
  C  C54  1  0.44626000  0.86095000  0.57318000  1.0
  C  C55  1  0.03687000  0.89224000  0.27410000  1.0
  C  C56  1  0.05574000  0.86194000  0.28175000  1.0
  C  C57  1  0.09982000  0.86579000  0.29626000  1.0
  C  C58  1  0.12518000  0.90074000  0.30308000  1.0
  C  C59  1  0.10700000  0.93222000  0.29638000  1.0
  C  C60  1  0.06257000  0.92706000  0.28164000  1.0
  C  C61  1  0.53442000  0.10683000  0.38666000  1.0
  C  C62  1  0.55882000  0.07104000  0.35928000  1.0
  C  C63  1  0.60276000  0.06388000  0.36849000  1.0
  C  C64  1  0.62121000  0.09380000  0.40739000  1.0
  C  C65  1  0.59765000  0.13023000  0.43519000  1.0
  C  C66  1  0.55437000  0.13615000  0.42452000  1.0
  C  C67  1  0.60199000  0.30071000  0.93320000  1.0
  C  C68  1  0.61994000  0.30965000  0.90332000  1.0
  C  C69  1  0.59534000  0.30196000  0.86770000  1.0
  C  C70  1  0.55175000  0.28586000  0.86269000  1.0
  C  C71  1  0.53293000  0.27708000  0.89230000  1.0
  C  C72  1  0.55834000  0.28459000  0.92721000  1.0
  C  C73  1  0.96715000  0.10871000  0.71906000  1.0
  C  C74  1  0.94767000  0.13804000  0.71007000  1.0
  C  C75  1  0.90329000  0.13331000  0.69490000  1.0
  C  C76  1  0.87997000  0.09672000  0.68742000  1.0
  C  C77  1  0.89877000  0.06715000  0.69625000  1.0
  C  C78  1  0.94238000  0.07368000  0.71205000  1.0
  C  C79  1  0.46427000  0.38532000  0.27595000  1.0
  C  C80  1  0.44475000  0.42310000  0.28352000  1.0
  C  C81  1  0.40022000  0.43298000  0.29733000  1.0
  C  C82  1  0.37572000  0.40422000  0.30406000  1.0
  C  C83  1  0.39445000  0.36629000  0.29732000  1.0
  C  C84  1  0.43902000  0.35754000  0.28314000  1.0
  C  C85  1  0.03400000  0.72329000  0.61441000  1.0
  C  C86  1  0.05904000  0.71604000  0.64216000  1.0
  C  C87  1  0.10288000  0.69960000  0.63270000  1.0
  C  C88  1  0.12072000  0.68999000  0.59337000  1.0
  C  C89  1  0.09647000  0.69778000  0.56525000  1.0
  C  C90  1  0.05303000  0.71413000  0.57609000  1.0
  C  C91  1  0.10173000  0.36699000  0.06615000  1.0
  C  C92  1  0.11962000  0.40636000  0.09568000  1.0
  C  C93  1  0.09615000  0.43456000  0.13247000  1.0
  C  C94  1  0.05289000  0.42297000  0.13821000  1.0
  C  C95  1  0.03371000  0.38477000  0.10896000  1.0
  C  C96  1  0.05828000  0.35730000  0.07359000  1.0
  C  C97  1  0.81305000  0.41189000  0.74290000  1.0
  C  C98  1  0.81345000  0.25852000  0.67016000  1.0
  C  C99  1  0.68277000  0.32571000  0.74028000  1.0
  C  C100  1  0.68393000  0.25972000  0.58606000  1.0
  C  C101  1  0.81289000  0.33183000  0.58955000  1.0
  C  C102  1  0.68243000  0.41421000  0.67506000  1.0
  C  C103  1  0.18283000  0.73862000  0.32320000  1.0
  C  C104  1  0.31335000  0.66967000  0.25777000  1.0
  C  C105  1  0.31187000  0.74101000  0.41101000  1.0
  C  C106  1  0.31131000  0.58662000  0.32732000  1.0
  C  C107  1  0.18221000  0.58514000  0.25840000  1.0
  C  C108  1  0.18228000  0.67378000  0.41305000  1.0
  C  C109  1  0.80468000  0.75304000  0.08042000  1.0
  C  C110  1  0.75308000  0.77936000  0.22001000  1.0
  C  C111  1  0.85531000  0.86933000  0.21002000  1.0
  C  C112  1  0.69933000  0.91815000  0.24607000  1.0
  C  C113  1  0.64882000  0.78749000  0.13119000  1.0
  C  C114  1  0.75053000  0.88624000  0.11193000  1.0
  C  C115  1  0.14702000  0.65707000  0.86848000  1.0
  C  C116  1  0.25063000  0.56039000  0.78026000  1.0
  C  C117  1  0.19806000  0.67444000  0.75467000  1.0
  C  C118  1  0.35322000  0.65913000  0.78988000  1.0
  C  C119  1  0.30284000  0.67371000  0.91998000  1.0
  C  C120  1  0.24951000  0.77558000  0.88894000  1.0
  C  C121  1  0.69861000  0.75460000  0.67367000  1.0
  C  C122  1  0.75052000  0.77992000  0.55923000  1.0
  C  C123  1  0.64657000  0.86800000  0.65605000  1.0
  C  C124  1  0.80213000  0.91989000  0.67287000  1.0
  C  C125  1  0.85341000  0.78967000  0.65748000  1.0
  C  C126  1  0.74973000  0.88808000  0.77427000  1.0
  C  C127  1  0.69812000  0.32618000  0.08124000  1.0
  C  C128  1  0.74961000  0.44055000  0.22075000  1.0
  C  C129  1  0.64596000  0.34267000  0.21193000  1.0
  C  C130  1  0.80190000  0.32790000  0.24780000  1.0
  C  C131  1  0.85302000  0.34191000  0.13233000  1.0
  C  C132  1  0.74937000  0.22541000  0.11426000  1.0
  C  C133  1  0.29523000  0.24942000  0.32648000  1.0
  C  C134  1  0.24980000  0.11485000  0.22806000  1.0
  C  C135  1  0.35640000  0.13950000  0.34539000  1.0
  C  C136  1  0.20620000  0.07848000  0.32662000  1.0
  C  C137  1  0.14511000  0.20843000  0.34741000  1.0
  C  C138  1  0.25144000  0.22156000  0.44232000  1.0
  C  C139  1  0.35267000  0.21021000  0.86922000  1.0
  C  C140  1  0.25107000  0.22007000  0.77996000  1.0
  C  C141  1  0.30258000  0.07985000  0.75358000  1.0
  C  C142  1  0.14689000  0.13119000  0.78727000  1.0
  C  C143  1  0.19697000  0.24526000  0.91891000  1.0
  C  C144  1  0.24816000  0.11185000  0.88690000  1.0
  C  C145  1  0.83511000  0.52064000  0.83431000  1.0
  C  C146  1  0.88212000  0.52419000  0.83643000  1.0
  C  C147  1  0.90632000  0.48899000  0.80625000  1.0
  C  C148  1  0.88452000  0.45246000  0.77609000  1.0
  C  C149  1  0.83781000  0.44957000  0.77499000  1.0
  C  C150  1  0.81370000  0.48429000  0.80465000  1.0
  C  C151  1  0.63978000  0.49939000  0.65448000  1.0
  C  C152  1  0.61607000  0.52551000  0.69123000  1.0
  C  C153  1  0.61278000  0.51362000  0.72172000  1.0
  C  C154  1  0.63357000  0.47724000  0.71614000  1.0
  C  C155  1  0.65759000  0.45123000  0.67954000  1.0
  C  C156  1  0.65989000  0.46253000  0.64852000  1.0
  C  C157  1  0.90604000  0.32012000  0.51321000  1.0
  C  C158  1  0.88183000  0.31511000  0.47801000  1.0
  C  C159  1  0.83482000  0.31608000  0.48138000  1.0
  C  C160  1  0.81342000  0.32206000  0.51748000  1.0
  C  C161  1  0.83758000  0.32692000  0.55212000  1.0
  C  C162  1  0.88428000  0.32578000  0.54946000  1.0
  C  C163  1  0.33667000  0.69572000  0.17246000  1.0
  C  C164  1  0.38282000  0.68916000  0.16558000  1.0
  C  C165  1  0.40663000  0.67681000  0.19054000  1.0
  C  C166  1  0.38475000  0.67079000  0.22087000  1.0
  C  C167  1  0.33840000  0.67637000  0.22662000  1.0
  C  C168  1  0.31492000  0.68907000  0.20200000  1.0
  C  C169  1  0.61598000  0.20552000  0.48571000  1.0
  C  C170  1  0.61883000  0.16330000  0.47461000  1.0
  C  C171  1  0.64218000  0.15320000  0.50129000  1.0
  C  C172  1  0.66209000  0.18449000  0.53806000  1.0
  C  C173  1  0.65989000  0.22667000  0.54875000  1.0
  C  C174  1  0.63649000  0.23667000  0.52202000  1.0
  C  C175  1  0.63966000  0.34595000  0.84580000  1.0
  C  C176  1  0.61580000  0.30922000  0.83497000  1.0
  C  C177  1  0.61260000  0.27885000  0.79254000  1.0
  C  C178  1  0.63362000  0.28453000  0.76189000  1.0
  C  C179  1  0.65780000  0.32111000  0.77269000  1.0
  C  C180  1  0.66002000  0.35200000  0.81506000  1.0
  C  C181  1  0.83509000  0.16712000  0.68748000  1.0
  C  C182  1  0.88207000  0.16449000  0.68833000  1.0
  C  C183  1  0.90647000  0.19444000  0.68309000  1.0
  C  C184  1  0.88485000  0.22485000  0.67699000  1.0
  C  C185  1  0.83814000  0.22641000  0.67572000  1.0
  C  C186  1  0.81386000  0.19701000  0.68107000  1.0
  C  C187  1  0.40439000  0.80887000  0.48622000  1.0
  C  C188  1  0.38024000  0.83421000  0.52325000  1.0
  C  C189  1  0.33396000  0.82758000  0.52236000  1.0
  C  C190  1  0.31252000  0.79781000  0.48599000  1.0
  C  C191  1  0.33642000  0.77268000  0.44906000  1.0
  C  C192  1  0.38283000  0.77833000  0.44975000  1.0
  C  C193  1  0.11520000  0.79063000  0.27453000  1.0
  C  C194  1  0.11945000  0.83319000  0.30417000  1.0
  C  C195  1  0.14296000  0.84424000  0.34114000  1.0
  C  C196  1  0.16202000  0.81358000  0.34809000  1.0
  C  C197  1  0.15880000  0.77105000  0.31791000  1.0
  C  C198  1  0.13494000  0.76005000  0.28111000  1.0
  C  C199  1  0.33270000  0.47381000  0.29727000  1.0
  C  C200  1  0.37863000  0.47282000  0.30437000  1.0
  C  C201  1  0.40294000  0.51018000  0.31843000  1.0
  C  C202  1  0.38174000  0.54721000  0.32560000  1.0
  C  C203  1  0.33557000  0.54804000  0.31954000  1.0
  C  C204  1  0.31159000  0.51068000  0.30509000  1.0
  C  C205  1  0.14088000  0.65385000  0.49919000  1.0
  C  C206  1  0.11712000  0.69059000  0.52528000  1.0
  C  C207  1  0.11367000  0.72093000  0.51317000  1.0
  C  C208  1  0.13412000  0.71515000  0.47658000  1.0
  C  C209  1  0.15804000  0.67850000  0.45051000  1.0
  C  C210  1  0.16071000  0.64771000  0.46212000  1.0
  C  C211  1  0.14799000  0.49410000  0.15271000  1.0
  C  C212  1  0.11596000  0.47295000  0.16336000  1.0
  C  C213  1  0.10490000  0.49099000  0.20608000  1.0
  C  C214  1  0.12594000  0.52740000  0.23662000  1.0
  C  C215  1  0.15771000  0.54806000  0.22567000  1.0
  C  C216  1  0.16792000  0.53128000  0.18325000  1.0
  C  C217  1  0.71714000  0.92484000  0.88703000  1.0
  C  C218  1  0.75001000  0.95480000  0.90958000  1.0
  C  C219  1  0.78269000  0.96277000  0.88727000  1.0
  C  C220  1  0.78290000  0.94084000  0.84347000  1.0
  C  C221  1  0.74970000  0.91120000  0.82085000  1.0
  C  C222  1  0.71663000  0.90372000  0.84325000  1.0
  C  C223  1  0.77119000  0.91528000  0.02820000  1.0
  C  C224  1  0.74953000  0.95427000  0.04441000  1.0
  C  C225  1  0.72802000  0.97006000  0.08342000  1.0
  C  C226  1  0.72750000  0.94757000  0.10470000  1.0
  C  C227  1  0.75000000  0.90942000  0.08871000  1.0
  C  C228  1  0.77218000  0.89374000  0.05044000  1.0
  C  C229  1  0.78156000  0.11235000  0.07645000  1.0
  C  C230  1  0.74892000  0.09012000  0.04609000  1.0
  C  C231  1  0.71642000  0.11275000  0.03838000  1.0
  C  C232  1  0.71620000  0.15653000  0.06087000  1.0
  C  C233  1  0.74920000  0.17884000  0.09087000  1.0
  C  C234  1  0.78206000  0.15614000  0.09817000  1.0
  C  C235  1  0.27194000  0.88824000  0.97265000  1.0
  C  C236  1  0.24942000  0.91132000  0.95724000  1.0
  C  C237  1  0.22676000  0.88833000  0.91878000  1.0
  C  C238  1  0.22599000  0.84454000  0.89730000  1.0
  C  C239  1  0.24931000  0.82206000  0.91246000  1.0
  C  C240  1  0.27264000  0.84441000  0.95016000  1.0
  C  C241  1  0.23065000  0.08654000  0.11467000  1.0
  C  C242  1  0.24921000  0.04605000  0.09153000  1.0
  C  C243  1  0.26802000  0.02905000  0.11487000  1.0
  C  C244  1  0.26834000  0.05129000  0.15868000  1.0
  C  C245  1  0.24957000  0.09132000  0.18125000  1.0
  C  C246  1  0.23066000  0.10852000  0.15851000  1.0
  C  C247  1  0.27972000  0.03752000  0.92610000  1.0
  C  C248  1  0.24641000  0.04534000  0.95583000  1.0
  C  C249  1  0.21366000  0.07525000  0.96273000  1.0
  C  C250  1  0.21384000  0.09633000  0.93998000  1.0
  C  C251  1  0.24750000  0.08889000  0.91057000  1.0
  C  C252  1  0.28060000  0.05938000  0.90417000  1.0
  C  C253  1  0.84082000  0.64819000  0.98805000  1.0
  C  C254  1  0.87526000  0.65995000  0.96975000  1.0
  C  C255  1  0.88479000  0.70300000  0.98870000  1.0
  C  C256  1  0.86183000  0.73247000  0.02407000  1.0
  C  C257  1  0.82814000  0.72056000  0.04231000  1.0
  C  C258  1  0.81781000  0.67798000  0.02373000  1.0
  C  C259  1  0.66319000  0.01110000  0.35069000  1.0
  C  C260  1  0.62768000  0.02821000  0.33880000  1.0
  C  C261  1  0.61778000  0.00858000  0.29577000  1.0
  C  C262  1  0.64113000  0.97347000  0.26650000  1.0
  C  C263  1  0.67569000  0.95616000  0.27852000  1.0
  C  C264  1  0.68662000  0.97558000  0.32105000  1.0
  C  C265  1  0.62530000  0.70574000  0.72135000  1.0
  C  C266  1  0.62935000  0.66279000  0.69311000  1.0
  C  C267  1  0.65827000  0.64996000  0.65884000  1.0
  C  C268  1  0.68150000  0.67940000  0.65256000  1.0
  C  C269  1  0.67621000  0.72237000  0.68031000  1.0
  C  C270  1  0.64811000  0.73495000  0.71495000  1.0
  C  C271  1  0.87763000  0.28386000  0.29874000  1.0
  C  C272  1  0.87357000  0.31300000  0.34146000  1.0
  C  C273  1  0.84434000  0.34693000  0.35336000  1.0
  C  C274  1  0.82040000  0.35171000  0.32333000  1.0
  C  C275  1  0.82530000  0.32283000  0.28061000  1.0
  C  C276  1  0.85412000  0.28878000  0.26889000  1.0
  C  C277  1  0.34443000  0.65671000  0.00813000  1.0
  C  C278  1  0.37402000  0.69048000  0.02954000  1.0
  C  C279  1  0.37852000  0.71887000  0.01505000  1.0
  C  C280  1  0.35519000  0.71333000  0.97997000  1.0
  C  C281  1  0.32611000  0.67938000  0.95818000  1.0
  C  C282  1  0.32070000  0.65129000  0.97296000  1.0
  C  C283  1  0.11802000  0.71687000  0.70536000  1.0
  C  C284  1  0.12787000  0.69353000  0.66231000  1.0
  C  C285  1  0.16308000  0.66421000  0.65030000  1.0
  C  C286  1  0.18605000  0.65781000  0.67984000  1.0
  C  C287  1  0.17501000  0.68072000  0.72238000  1.0
  C  C288  1  0.14093000  0.71053000  0.73453000  1.0
  C  C289  1  0.84369000  0.00800000  0.65589000  1.0
  C  C290  1  0.87268000  0.02985000  0.69008000  1.0
  C  C291  1  0.87680000  0.01565000  0.71872000  1.0
  C  C292  1  0.85364000  0.98043000  0.71305000  1.0
  C  C293  1  0.82513000  0.95825000  0.67872000  1.0
  C  C294  1  0.82011000  0.97274000  0.65037000  1.0
  C  C295  1  0.33811000  0.98666000  0.64876000  1.0
  C  C296  1  0.37331000  0.96900000  0.66041000  1.0
  C  C297  1  0.38336000  0.98850000  0.70343000  1.0
  C  C298  1  0.36033000  0.02385000  0.73290000  1.0
  C  C299  1  0.32601000  0.04159000  0.72108000  1.0
  C  C300  1  0.31507000  0.02239000  0.67856000  1.0
  C  C301  1  0.11098000  0.00677000  0.31701000  1.0
  C  C302  1  0.13225000  0.96825000  0.30442000  1.0
  C  C303  1  0.17919000  0.96701000  0.30003000  1.0
  C  C304  1  0.20335000  0.00238000  0.30664000  1.0
  C  C305  1  0.18166000  0.04047000  0.31944000  1.0
  C  C306  1  0.13530000  0.04221000  0.32491000  1.0
  C  C307  1  0.65764000  0.34126000  0.99163000  1.0
  C  C308  1  0.62867000  0.30702000  0.97018000  1.0
  C  C309  1  0.62459000  0.27875000  0.98485000  1.0
  C  C310  1  0.64744000  0.28506000  0.02040000  1.0
  C  C311  1  0.67563000  0.31965000  0.04244000  1.0
  C  C312  1  0.68092000  0.34746000  0.02730000  1.0
  C  C313  1  0.32243000  0.33438000  0.30006000  1.0
  C  C314  1  0.36935000  0.33781000  0.30480000  1.0
  C  C315  1  0.39061000  0.31174000  0.31722000  1.0
  C  C316  1  0.36626000  0.28400000  0.32484000  1.0
  C  C317  1  0.31989000  0.28019000  0.31924000  1.0
  C  C318  1  0.29826000  0.30548000  0.30643000  1.0
  C  C319  1  0.11701000  0.29435000  0.01073000  1.0
  C  C320  1  0.12651000  0.33746000  0.03025000  1.0
  C  C321  1  0.16129000  0.34959000  0.01262000  1.0
  C  C322  1  0.18433000  0.32010000  0.97672000  1.0
  C  C323  1  0.17373000  0.27749000  0.95737000  1.0
  C  C324  1  0.13995000  0.26523000  0.97521000  1.0
  C  C325  1  0.98024000  0.89211000  0.22353000  1.0
  C  C326  1  0.99018000  0.88769000  0.25825000  1.0
  C  C327  1  0.95512000  0.87897000  0.27783000  1.0
  C  C328  1  0.91130000  0.87463000  0.26303000  1.0
  C  C329  1  0.90138000  0.87807000  0.22771000  1.0
  C  C330  1  0.93649000  0.88688000  0.20815000  1.0
  C  C331  1  0.55058000  0.71875000  0.12366000  1.0
  C  C332  1  0.51491000  0.73721000  0.11430000  1.0
  C  C333  1  0.52384000  0.77183000  0.10939000  1.0
  C  C334  1  0.56720000  0.78796000  0.11435000  1.0
  C  C335  1  0.60299000  0.76928000  0.12338000  1.0
  C  C336  1  0.59407000  0.73429000  0.12772000  1.0
  C  C337  1  0.04909000  0.59511000  0.87538000  1.0
  C  C338  1  0.01311000  0.62243000  0.88392000  1.0
  C  C339  1  0.02168000  0.66178000  0.88822000  1.0
  C  C340  1  0.06499000  0.67333000  0.88369000  1.0
  C  C341  1  0.10112000  0.64620000  0.87564000  1.0
  C  C342  1  0.09253000  0.60696000  0.87168000  1.0
  C  C343  1  0.45166000  0.59897000  0.72119000  1.0
  C  C344  1  0.48720000  0.62685000  0.73996000  1.0
  C  C345  1  0.47812000  0.66628000  0.77465000  1.0
  C  C346  1  0.43469000  0.67719000  0.79068000  1.0
  C  C347  1  0.39907000  0.64929000  0.77180000  1.0
  C  C348  1  0.40817000  0.61017000  0.73662000  1.0
  C  C349  1  0.02748000  0.23578000  0.39131000  1.0
  C  C350  1  0.01359000  0.26519000  0.38026000  1.0
  C  C351  1  0.04338000  0.27504000  0.35690000  1.0
  C  C352  1  0.08568000  0.25620000  0.34525000  1.0
  C  C353  1  0.09954000  0.22734000  0.35703000  1.0
  C  C354  1  0.06970000  0.21743000  0.38014000  1.0
  C  C355  1  0.95226000  0.72119000  0.59774000  1.0
  C  C356  1  0.98768000  0.74021000  0.62573000  1.0
  C  C357  1  0.97837000  0.77506000  0.66498000  1.0
  C  C358  1  0.93487000  0.79094000  0.67566000  1.0
  C  C359  1  0.89936000  0.77178000  0.64770000  1.0
  C  C360  1  0.90866000  0.73650000  0.60872000  1.0
  C  C361  1  0.54777000  0.87477000  0.59483000  1.0
  C  C362  1  0.51215000  0.88383000  0.62266000  1.0
  C  C363  1  0.52128000  0.88859000  0.66210000  1.0
  C  C364  1  0.56477000  0.88392000  0.67323000  1.0
  C  C365  1  0.60053000  0.87529000  0.64556000  1.0
  C  C366  1  0.59139000  0.87097000  0.60627000  1.0
  C  C367  1  0.47515000  0.15486000  0.38614000  1.0
  C  C368  1  0.48869000  0.11431000  0.37509000  1.0
  C  C369  1  0.45836000  0.08138000  0.35257000  1.0
  C  C370  1  0.41576000  0.08898000  0.34185000  1.0
  C  C371  1  0.40222000  0.12974000  0.35379000  1.0
  C  C372  1  0.43267000  0.16245000  0.37591000  1.0
  C  C373  1  0.45117000  0.27893000  0.87794000  1.0
  C  C374  1  0.48669000  0.26014000  0.88706000  1.0
  C  C375  1  0.47756000  0.22541000  0.89172000  1.0
  C  C376  1  0.43413000  0.20937000  0.88653000  1.0
  C  C377  1  0.39854000  0.22827000  0.87751000  1.0
  C  C378  1  0.40767000  0.26349000  0.87364000  1.0
  C  C379  1  0.02188000  0.10999000  0.77145000  1.0
  C  C380  1  0.01322000  0.11461000  0.73662000  1.0
  C  C381  1  0.04907000  0.12364000  0.71808000  1.0
  C  C382  1  0.09249000  0.12764000  0.73377000  1.0
  C  C383  1  0.10114000  0.12353000  0.76893000  1.0
  C  C384  1  0.06516000  0.11483000  0.78767000  1.0
  C  C385  1  0.97806000  0.33431000  0.11039000  1.0
  C  C386  1  0.98739000  0.37350000  0.11464000  1.0
  C  C387  1  0.95196000  0.40143000  0.12338000  1.0
  C  C388  1  0.90835000  0.39049000  0.12769000  1.0
  C  C389  1  0.89901000  0.35159000  0.12418000  1.0
  C  C390  1  0.93453000  0.32368000  0.11558000  1.0
  C  C391  1  0.52077000  0.33480000  0.22532000  1.0
  C  C392  1  0.51094000  0.37415000  0.25982000  1.0
  C  C393  1  0.54614000  0.40236000  0.27911000  1.0
  C  C394  1  0.59001000  0.39149000  0.26442000  1.0
  C  C395  1  0.59981000  0.35239000  0.22948000  1.0
  C  C396  1  0.56451000  0.32423000  0.21007000  1.0
  C  C397  1  0.73042000  0.69614000  0.24903000  1.0
  C  C398  1  0.75250000  0.71198000  0.28759000  1.0
  C  C399  1  0.77487000  0.75041000  0.30347000  1.0
  C  C400  1  0.77471000  0.77242000  0.28181000  1.0
  C  C401  1  0.75303000  0.75623000  0.24320000  1.0
  C  C402  1  0.73111000  0.71772000  0.22697000  1.0
  C  C403  1  0.77273000  0.69617000  0.44706000  1.0
  C  C404  1  0.75118000  0.71222000  0.42428000  1.0
  C  C405  1  0.72938000  0.75095000  0.44675000  1.0
  C  C406  1  0.72959000  0.77305000  0.49042000  1.0
  C  C407  1  0.75072000  0.75666000  0.51291000  1.0
  C  C408  1  0.77208000  0.71786000  0.49072000  1.0
  C  C409  1  0.77273000  0.55263000  0.24931000  1.0
  C  C410  1  0.75062000  0.57552000  0.28783000  1.0
  C  C411  1  0.72806000  0.55314000  0.30380000  1.0
  C  C412  1  0.72810000  0.50947000  0.28227000  1.0
  C  C413  1  0.74983000  0.48687000  0.24371000  1.0
  C  C414  1  0.77192000  0.50897000  0.22737000  1.0
  C  C415  1  0.27195000  0.44789000  0.69668000  1.0
  C  C416  1  0.25084000  0.42534000  0.71324000  1.0
  C  C417  1  0.22956000  0.44810000  0.75221000  1.0
  C  C418  1  0.22988000  0.49178000  0.77402000  1.0
  C  C419  1  0.25062000  0.51404000  0.75716000  1.0
  C  C420  1  0.27140000  0.49156000  0.71811000  1.0
  C  C421  1  0.22593000  0.25277000  0.55490000  1.0
  C  C422  1  0.25188000  0.28891000  0.57730000  1.0
  C  C423  1  0.27775000  0.30263000  0.55483000  1.0
  C  C424  1  0.27775000  0.28076000  0.51116000  1.0
  C  C425  1  0.25166000  0.24470000  0.48876000  1.0
  C  C426  1  0.22572000  0.23103000  0.51124000  1.0
  C  C427  1  0.23107000  0.24930000  0.69646000  1.0
  C  C428  1  0.25222000  0.28840000  0.71324000  1.0
  C  C429  1  0.27305000  0.30458000  0.75241000  1.0
  C  C430  1  0.27230000  0.28266000  0.77418000  1.0
  C  C431  1  0.25156000  0.24351000  0.75705000  1.0
  C  C432  1  0.23118000  0.22701000  0.71783000  1.0
  O  O1  1  0.74816000  0.33368000  0.66736000  1.0
  O  O2  1  0.77111000  0.41095000  0.74714000  1.0
  O  O3  1  0.83331000  0.28956000  0.67118000  1.0
  O  O4  1  0.69163000  0.29335000  0.70562000  1.0
  O  O5  1  0.83292000  0.38208000  0.71172000  1.0
  O  O6  1  0.69615000  0.36147000  0.74791000  1.0
  O  O7  1  0.77150000  0.25436000  0.66527000  1.0
  O  O8  1  0.69218000  0.29449000  0.58834000  1.0
  O  O9  1  0.83287000  0.33035000  0.61927000  1.0
  O  O10  1  0.69711000  0.25255000  0.61454000  1.0
  O  O11  1  0.77091000  0.33658000  0.59036000  1.0
  O  O12  1  0.69553000  0.38585000  0.63929000  1.0
  O  O13  1  0.69155000  0.41216000  0.70751000  1.0
  O  O14  1  0.24734000  0.66589000  0.33200000  1.0
  O  O15  1  0.19583000  0.74649000  0.35918000  1.0
  O  O16  1  0.27153000  0.66417000  0.25286000  1.0
  O  O17  1  0.33185000  0.70984000  0.38122000  1.0
  O  O18  1  0.19149000  0.70371000  0.29108000  1.0
  O  O19  1  0.27002000  0.74554000  0.40973000  1.0
  O  O20  1  0.33281000  0.67051000  0.28887000  1.0
  O  O21  1  0.26937000  0.58757000  0.33246000  1.0
  O  O22  1  0.19717000  0.61256000  0.25042000  1.0
  O  O23  1  0.33160000  0.61710000  0.32758000  1.0
  O  O24  1  0.18911000  0.58816000  0.29369000  1.0
  O  O25  1  0.19584000  0.63803000  0.38498000  1.0
  O  O26  1  0.19033000  0.70605000  0.41030000  1.0
  O  O27  1  0.75199000  0.83265000  0.16618000  1.0
  O  O28  1  0.81705000  0.79068000  0.09580000  1.0
  O  O29  1  0.74760000  0.75943000  0.18069000  1.0
  O  O30  1  0.82307000  0.87023000  0.23274000  1.0
  O  O31  1  0.77333000  0.74342000  0.09731000  1.0
  O  O32  1  0.84895000  0.85917000  0.17209000  1.0
  O  O33  1  0.75840000  0.81870000  0.23977000  1.0
  O  O34  1  0.68640000  0.90230000  0.20853000  1.0
  O  O35  1  0.68171000  0.76520000  0.12981000  1.0
  O  O36  1  0.73130000  0.90176000  0.25557000  1.0
  O  O37  1  0.65440000  0.82542000  0.14100000  1.0
  O  O38  1  0.71439000  0.88151000  0.12712000  1.0
  O  O39  1  0.78717000  0.87154000  0.11636000  1.0
  O  O40  1  0.25020000  0.66763000  0.83419000  1.0
  O  O41  1  0.15265000  0.68544000  0.85900000  1.0
  O  O42  1  0.24607000  0.57983000  0.81966000  1.0
  O  O43  1  0.22949000  0.64799000  0.74498000  1.0
  O  O44  1  0.17992000  0.63629000  0.87008000  1.0
  O  O45  1  0.18519000  0.69605000  0.79225000  1.0
  O  O46  1  0.25514000  0.57995000  0.76038000  1.0
  O  O47  1  0.34732000  0.68720000  0.82780000  1.0
  O  O48  1  0.27153000  0.64717000  0.90301000  1.0
  O  O49  1  0.32066000  0.63773000  0.76743000  1.0
  O  O50  1  0.31536000  0.69591000  0.90458000  1.0
  O  O51  1  0.28611000  0.75618000  0.88381000  1.0
  O  O52  1  0.21314000  0.75587000  0.87417000  1.0
  O  O53  1  0.75009000  0.83384000  0.66634000  1.0
  O  O54  1  0.68566000  0.79213000  0.69535000  1.0
  O  O55  1  0.75504000  0.76010000  0.57883000  1.0
  O  O56  1  0.67934000  0.86960000  0.63512000  1.0
  O  O57  1  0.72967000  0.74486000  0.64687000  1.0
  O  O58  1  0.65246000  0.85852000  0.68439000  1.0
  O  O59  1  0.74581000  0.81932000  0.57858000  1.0
  O  O60  1  0.81477000  0.90447000  0.69502000  1.0
  O  O61  1  0.82084000  0.76710000  0.63623000  1.0
  O  O62  1  0.77096000  0.90278000  0.64617000  1.0
  O  O63  1  0.84740000  0.82757000  0.68550000  1.0
  O  O64  1  0.78633000  0.88243000  0.75473000  1.0
  O  O65  1  0.71319000  0.87415000  0.75458000  1.0
  O  O66  1  0.74959000  0.33333333  0.16775333  1.0
  O  O67  1  0.68518000  0.30444000  0.09702000  1.0
  O  O68  1  0.75496000  0.42086000  0.18142000  1.0
  O  O69  1  0.67849000  0.36396000  0.23462000  1.0
  O  O70  1  0.72925000  0.35290000  0.09827000  1.0
  O  O71  1  0.65214000  0.31462000  0.17407000  1.0
  O  O72  1  0.74416000  0.42128000  0.24079000  1.0
  O  O73  1  0.81447000  0.30539000  0.21024000  1.0
  O  O74  1  0.82050000  0.36319000  0.13096000  1.0
  O  O75  1  0.77050000  0.35433000  0.25712000  1.0
  O  O76  1  0.84695000  0.31402000  0.14237000  1.0
  O  O77  1  0.78590000  0.24495000  0.12862000  1.0
  O  O78  1  0.71296000  0.24510000  0.11948000  1.0
  O  O79  1  0.25063000  0.16817000  0.33491000  1.0
  O  O80  1  0.31065000  0.24047000  0.35294000  1.0
  O  O81  1  0.22832000  0.14917000  0.24782000  1.0
  O  O82  1  0.33138000  0.11153000  0.31749000  1.0
  O  O83  1  0.26011000  0.23174000  0.30583000  1.0
  O  O84  1  0.34313000  0.17691000  0.36684000  1.0
  O  O85  1  0.27151000  0.10020000  0.24758000  1.0
  O  O86  1  0.19095000  0.11390000  0.35329000  1.0
  O  O87  1  0.16961000  0.20845000  0.31916000  1.0
  O  O88  1  0.24103000  0.07550000  0.30566000  1.0
  O  O89  1  0.15870000  0.19196000  0.36830000  1.0
  O  O90  1  0.22532000  0.19073000  0.42272000  1.0
  O  O91  1  0.27732000  0.23280000  0.42256000  1.0
  O  O92  1  0.24971000  0.16587000  0.83295000  1.0
  O  O93  1  0.34671000  0.17228000  0.85929000  1.0
  O  O94  1  0.25511000  0.23979000  0.81943000  1.0
  O  O95  1  0.27148000  0.09690000  0.74383000  1.0
  O  O96  1  0.32013000  0.23270000  0.87032000  1.0
  O  O97  1  0.31479000  0.09529000  0.79131000  1.0
  O  O98  1  0.24655000  0.18064000  0.75977000  1.0
  O  O99  1  0.15224000  0.14071000  0.82516000  1.0
  O  O100  1  0.22872000  0.25499000  0.90251000  1.0
  O  O101  1  0.17993000  0.12990000  0.76517000  1.0
  O  O102  1  0.18400000  0.20769000  0.90272000  1.0
  O  O103  1  0.21188000  0.12599000  0.88095000  1.0
  O  O104  1  0.28499000  0.11712000  0.87300000  1.0
