# generated using pymatgen
data_H11C17(N2O)2
_symmetry_space_group_name_H-M   'P 1'
_cell_length_a   40.70880000
_cell_length_b   46.88860000
_cell_length_c   61.93650000
_cell_angle_alpha   89.99320000
_cell_angle_beta   89.45660000
_cell_angle_gamma   89.28210000
_symmetry_Int_Tables_number   1
_chemical_formula_structural   H11C17(N2O)2
_chemical_formula_sum   'H352 C544 N128 O64'
_cell_volume   118208.47165302
_cell_formula_units_Z   32
loop_
 _symmetry_equiv_pos_site_id
 _symmetry_equiv_pos_as_xyz
  1  'x, y, z'
loop_
 _atom_site_type_symbol
 _atom_site_label
 _atom_site_symmetry_multiplicity
 _atom_site_fract_x
 _atom_site_fract_y
 _atom_site_fract_z
 _atom_site_occupancy
  H  7  1  0.12712000  0.15963300  0.84779600  1
  H  8  1  0.14340900  0.18338300  0.91214100  1
  H  15  1  0.01567200  0.09027900  0.81338000  1
  H  16  1  0.06659400  0.09492500  0.87152800  1
  H  19  1  0.05374900  0.12020100  0.90592000  1
  H  20  1  0.08755300  0.17042900  0.81713200  1
  H  25  1  0.02662600  0.05724500  0.86527100  1
  H  26  1  0.06623700  0.16468300  0.93300000  1
  H  27  1  0.18133700  0.17880800  0.86011300  1
  H  28  1  0.03547700  0.16076800  0.79378900  1
  H  35  1  0.85112800  0.81924100  0.84809700  1
  H  36  1  0.83473600  0.79495500  0.91256700  1
  H  43  1  0.95839600  0.89248400  0.81264000  1
  H  44  1  0.90754100  0.88486800  0.87134600  1
  H  47  1  0.92313900  0.85949700  0.90540600  1
  H  48  1  0.89244200  0.80833100  0.81778900  1
  H  53  1  0.93679000  0.92725600  0.86368600  1
  H  54  1  0.91188700  0.81371900  0.93246700  1
  H  55  1  0.79722900  0.80036400  0.86071300  1
  H  56  1  0.94078200  0.82159300  0.79258800  1
  H  63  1  0.12333800  0.81593300  0.63201900  1
  H  64  1  0.14095600  0.79356700  0.56720300  1
  H  71  1  0.01426800  0.88803500  0.66846500  1
  H  72  1  0.06642100  0.88290900  0.60999900  1
  H  75  1  0.05133700  0.85874600  0.57519300  1
  H  76  1  0.08100800  0.80369100  0.66227900  1
  H  81  1  0.03558800  0.92528900  0.61872500  1
  H  82  1  0.06348000  0.81412800  0.54726900  1
  H  83  1  0.17727800  0.79618600  0.61973100  1
  H  84  1  0.02300000  0.81514800  0.68408200  1
  H  91  1  0.85428800  0.16297600  0.63385200  1
  H  92  1  0.83864600  0.18455600  0.56886800  1
  H  99  1  0.95773600  0.08772700  0.67111800  1
  H  100  1  0.90763900  0.09416000  0.61260700  1
  H  103  1  0.92614900  0.11760400  0.57744500  1
  H  104  1  0.89783000  0.17557900  0.66314000  1
  H  109  1  0.92273000  0.04731800  0.62895500  1
  H  110  1  0.91607400  0.16230400  0.54884300  1
  H  111  1  0.80103500  0.18351000  0.62158400  1
  H  112  1  0.95267200  0.16199400  0.68580000  1
  H  119  1  0.85274600  0.81796200  0.13329000  1
  H  120  1  0.83678600  0.79502900  0.06870300  1
  H  127  1  0.95760100  0.89109000  0.16939100  1
  H  128  1  0.90650500  0.88610700  0.11129800  1
  H  131  1  0.92284400  0.86191200  0.07592700  1
  H  132  1  0.89564100  0.80530200  0.16209300  1
  H  137  1  0.92124600  0.93351400  0.13048500  1
  H  138  1  0.91325400  0.81669600  0.04793400  1
  H  139  1  0.79986900  0.79690300  0.12165100  1
  H  140  1  0.94618700  0.81760300  0.18611700  1
  H  147  1  0.12722200  0.15993400  0.13285400  1
  H  148  1  0.14355300  0.18489100  0.06851700  1
  H  155  1  0.02006300  0.08568300  0.16757900  1
  H  156  1  0.07170600  0.09359300  0.10919400  1
  H  159  1  0.05645300  0.11892900  0.07508700  1
  H  160  1  0.08565100  0.17005100  0.16310000  1
  H  165  1  0.04397400  0.05062000  0.11703300  1
  H  166  1  0.06706700  0.16497100  0.04831200  1
  H  167  1  0.17998000  0.18148200  0.12115400  1
  H  168  1  0.03556900  0.15722600  0.18721500  1
  H  175  1  0.85638100  0.16196900  0.34867000  1
  H  176  1  0.83905400  0.18476700  0.41343400  1
  H  183  1  0.96566100  0.09002100  0.31227100  1
  H  184  1  0.91415000  0.09532400  0.37095200  1
  H  187  1  0.92880800  0.11976000  0.40559800  1
  H  188  1  0.89787500  0.17378600  0.31814700  1
  H  193  1  0.94601700  0.05333300  0.36249600  1
  H  194  1  0.91647600  0.16450600  0.43332800  1
  H  195  1  0.80397900  0.18390000  0.35988800  1
  H  196  1  0.95479800  0.16256900  0.29590200  1
  H  203  1  0.12536000  0.81503700  0.34668900  1
  H  204  1  0.14081400  0.79326900  0.41165000  1
  H  211  1  0.02287300  0.89078300  0.30925800  1
  H  212  1  0.07239900  0.88396100  0.36795700  1
  H  215  1  0.05366900  0.86057300  0.40306500  1
  H  216  1  0.08198000  0.80257000  0.31735200  1
  H  221  1  0.05816500  0.93098700  0.35119200  1
  H  222  1  0.06350300  0.81627200  0.43174200  1
  H  223  1  0.17849200  0.79440700  0.35896500  1
  H  224  1  0.02748900  0.81651300  0.29453100  1
  H  231  1  0.62863900  0.65898400  0.84737400  1
  H  232  1  0.64446000  0.68248000  0.91185400  1
  H  239  1  0.52249100  0.58729100  0.81126400  1
  H  240  1  0.57295700  0.59252600  0.86958500  1
  H  243  1  0.55622300  0.61775700  0.90463900  1
  H  244  1  0.58597700  0.67230000  0.81822200  1
  H  249  1  0.55777000  0.54506600  0.85086400  1
  H  250  1  0.56678100  0.66438300  0.93207500  1
  H  251  1  0.68231100  0.67756700  0.85983000  1
  H  252  1  0.53536700  0.66031200  0.79390500  1
  H  259  1  0.35123800  0.31890600  0.84833400  1
  H  260  1  0.33424000  0.29539300  0.91290900  1
  H  267  1  0.45842900  0.39306000  0.81328400  1
  H  268  1  0.40660700  0.38583200  0.87164000  1
  H  271  1  0.42128300  0.36125200  0.90599900  1
  H  272  1  0.39252900  0.30893500  0.81807300  1
  H  277  1  0.43490800  0.42846100  0.86378300  1
  H  278  1  0.41047700  0.31607500  0.93317100  1
  H  279  1  0.29916600  0.29682500  0.85946100  1
  H  280  1  0.44250500  0.32146400  0.79391500  1
  H  287  1  0.62108300  0.31247500  0.63310600  1
  H  288  1  0.63851400  0.29066500  0.56818800  1
  H  295  1  0.51905800  0.39012800  0.67071200  1
  H  296  1  0.57143100  0.38507200  0.61239200  1
  H  299  1  0.55650800  0.36341100  0.57605500  1
  H  300  1  0.57741500  0.30175900  0.66195600  1
  H  305  1  0.55675700  0.43252100  0.63229900  1
  H  306  1  0.56435400  0.31669200  0.54783800  1
  H  307  1  0.66172500  0.27623200  0.62352000  1
  H  308  1  0.52231600  0.31570600  0.68435100  1
  H  315  1  0.35671600  0.66621600  0.63420900  1
  H  316  1  0.33979800  0.68598000  0.56905900  1
  H  323  1  0.45667800  0.58615000  0.67110300  1
  H  324  1  0.40514500  0.59337600  0.61323200  1
  H  327  1  0.42241700  0.61431200  0.57730900  1
  H  328  1  0.40000100  0.67554600  0.66338400  1
  H  333  1  0.41664200  0.54666100  0.63163000  1
  H  334  1  0.41431000  0.65801600  0.54836700  1
  H  335  1  0.31744900  0.70486500  0.62346400  1
  H  336  1  0.45428700  0.66065300  0.68546700  1
  H  343  1  0.35460200  0.31488900  0.13409500  1
  H  344  1  0.33789000  0.29343400  0.06934700  1
  H  351  1  0.45732500  0.39080800  0.17030300  1
  H  352  1  0.40530800  0.38681000  0.11256700  1
  H  355  1  0.41906800  0.36499300  0.07632900  1
  H  356  1  0.39673600  0.30451300  0.16267600  1
  H  361  1  0.42088500  0.43396700  0.13201900  1
  H  362  1  0.41144000  0.32054100  0.04806300  1
  H  363  1  0.31642000  0.27605100  0.12425100  1
  H  364  1  0.44670800  0.31699400  0.18627800  1
  H  371  1  0.62231700  0.66655500  0.13305900  1
  H  372  1  0.64574400  0.68314000  0.06817100  1
  H  379  1  0.52082500  0.58533700  0.16778000  1
  H  380  1  0.57603900  0.59171700  0.11087400  1
  H  383  1  0.56571800  0.60998500  0.07565200  1
  H  384  1  0.58127500  0.67233500  0.16236900  1
  H  389  1  0.54905000  0.54877100  0.11884200  1
  H  390  1  0.60112600  0.62804100  0.04684500  1
  H  391  1  0.66196800  0.70305100  0.12378400  1
  H  392  1  0.53371300  0.65781100  0.18630300  1
  H  399  1  0.35786700  0.66476100  0.34807100  1
  H  400  1  0.33979200  0.68592700  0.41302600  1
  H  407  1  0.46461500  0.58974200  0.31142200  1
  H  408  1  0.41210200  0.59420400  0.36973600  1
  H  411  1  0.42493500  0.61612400  0.40535000  1
  H  412  1  0.39918600  0.67461100  0.31790100  1
  H  417  1  0.44308000  0.55197400  0.36091400  1
  H  418  1  0.41462600  0.66001000  0.43350400  1
  H  419  1  0.31833500  0.70312900  0.35825100  1
  H  420  1  0.45590600  0.66267100  0.29609400  1
  H  427  1  0.62227000  0.31125900  0.34703600  1
  H  428  1  0.63911300  0.29241500  0.41225900  1
  H  435  1  0.52286400  0.39055300  0.30905800  1
  H  436  1  0.57472500  0.38556300  0.36688600  1
  H  439  1  0.55898600  0.36663000  0.40259500  1
  H  440  1  0.57911100  0.30127200  0.31833900  1
  H  445  1  0.55925400  0.43210300  0.34979500  1
  H  446  1  0.56853300  0.33193700  0.43341000  1
  H  447  1  0.66463900  0.27749000  0.35684900  1
  H  448  1  0.52581500  0.31586700  0.29577600  1
  H  459  1  0.21043900  0.12047400  0.00934200  1
  H  460  1  0.06090600  0.17595000  0.97148200  1
  H  461  1  0.06125600  0.17619600  0.01006400  1
  H  464  1  0.23504700  0.08146000  0.95105400  1
  H  465  1  0.19187300  0.08510800  0.94955200  1
  H  466  1  0.21072800  0.07351500  0.97401200  1
  H  479  1  0.76964400  0.86001700  0.01141900  1
  H  480  1  0.91778700  0.80282800  0.97083900  1
  H  481  1  0.91813600  0.80297400  0.00944700  1
  H  484  1  0.74469100  0.89881300  0.95332200  1
  H  485  1  0.78773300  0.89442300  0.95083100  1
  H  486  1  0.76978100  0.90675200  0.97560700  1
  H  499  1  0.20779600  0.85397300  0.46890600  1
  H  500  1  0.05769100  0.80332900  0.50888600  1
  H  501  1  0.05776400  0.80336400  0.47027700  1
  H  504  1  0.23332100  0.89185100  0.52695700  1
  H  505  1  0.19012800  0.88953100  0.52915800  1
  H  506  1  0.20889500  0.90073800  0.50444100  1
  H  519  1  0.77360200  0.12120900  0.47157400  1
  H  520  1  0.92141400  0.17573800  0.51040400  1
  H  521  1  0.92163500  0.17598900  0.47178800  1
  H  524  1  0.74906400  0.08221600  0.52969100  1
  H  525  1  0.79213100  0.08566800  0.53146500  1
  H  526  1  0.77389600  0.07418500  0.50687900  1
  H  539  1  0.69796300  0.60997200  0.01345700  1
  H  540  1  0.56454600  0.68472800  0.96899300  1
  H  541  1  0.56302300  0.68801100  0.00756800  1
  H  544  1  0.71993900  0.56473000  0.95746000  1
  H  545  1  0.67776200  0.57313300  0.95461500  1
  H  546  1  0.69333200  0.56131100  0.98000200  1
  H  559  1  0.26493600  0.35579900  0.01165600  1
  H  560  1  0.41691500  0.30651000  0.97139700  1
  H  561  1  0.41707200  0.30668100  0.00996200  1
  H  564  1  0.23764100  0.39287200  0.95317300  1
  H  565  1  0.28084600  0.39045300  0.95056500  1
  H  566  1  0.26235300  0.40249800  0.97525200  1
  H  579  1  0.70232400  0.36445300  0.46838200  1
  H  580  1  0.56189400  0.29809800  0.51005000  1
  H  581  1  0.56217600  0.29653300  0.47129000  1
  H  584  1  0.72173800  0.40884700  0.52411200  1
  H  585  1  0.67916400  0.40232900  0.52615800  1
  H  586  1  0.69705900  0.41269300  0.50095000  1
  H  599  1  0.26792400  0.62654000  0.47166300  1
  H  600  1  0.42046000  0.67088400  0.51019400  1
  H  601  1  0.42060100  0.67104000  0.47163300  1
  H  604  1  0.24007900  0.58992300  0.53026600  1
  H  605  1  0.28333000  0.59075600  0.53222900  1
  H  606  1  0.26446500  0.57973400  0.50773200  1
  H  619  1  0.90008700  0.99915100  0.88642200  1
  H  620  1  0.03511000  0.99916400  0.81514100  1
  H  621  1  0.01067000  0.95299000  0.81601100  1
  H  624  1  0.92532500  0.07197900  0.91866600  1
  H  625  1  0.96318600  0.05710800  0.90975500  1
  H  626  1  0.93150900  0.03464900  0.91998000  1
  H  639  1  0.93427400  0.99620200  0.57821800  1
  H  640  1  0.02017800  0.97336800  0.67465400  1
  H  641  1  0.99874900  0.02106000  0.67359600  1
  H  644  1  0.92363600  0.90998100  0.56547700  1
  H  645  1  0.90324900  0.93674400  0.58079900  1
  H  646  1  0.92904600  0.91095900  0.59374300  1
  H  659  1  0.09354200  0.97893400  0.10441800  1
  H  660  1  0.93860100  0.97834300  0.15512400  1
  H  661  1  0.96089600  0.02535800  0.15590600  1
  H  664  1  0.07744900  0.90306400  0.07138500  1
  H  665  1  0.03710400  0.91500700  0.07754800  1
  H  666  1  0.06713200  0.93947900  0.06787000  1
  H  679  1  0.04901300  0.98275000  0.40157100  1
  H  680  1  0.95889900  0.00454000  0.30668600  1
  H  681  1  0.98031700  0.95685000  0.30768400  1
  H  684  1  0.06220900  0.06745400  0.41429600  1
  H  685  1  0.08111600  0.03849100  0.40055400  1
  H  686  1  0.05896900  0.06520600  0.38591600  1
  H  699  1  0.38602800  0.50029400  0.87685700  1
  H  700  1  0.54027300  0.50032400  0.82522400  1
  H  701  1  0.51765500  0.45341400  0.82447400  1
  H  704  1  0.40318000  0.57598400  0.90993200  1
  H  705  1  0.44335600  0.56389900  0.90344200  1
  H  706  1  0.41337500  0.53952500  0.91332400  1
  H  719  1  0.39198500  0.48246100  0.59838500  1
  H  720  1  0.53571500  0.47647900  0.66011200  1
  H  721  1  0.51362900  0.52401200  0.66017900  1
  H  724  1  0.40883300  0.40849300  0.56584100  1
  H  725  1  0.44790300  0.42266500  0.57131700  1
  H  726  1  0.41445700  0.44573900  0.56424100  1
  H  739  1  0.59083500  0.47768800  0.10083100  1
  H  740  1  0.44105200  0.47791600  0.15792200  1
  H  741  1  0.46432600  0.52459300  0.15844200  1
  H  744  1  0.57022200  0.40323600  0.06743700  1
  H  745  1  0.53078800  0.41588900  0.07520500  1
  H  746  1  0.56081900  0.43998300  0.06498900  1
  H  759  1  0.54640800  0.48255600  0.40155200  1
  H  760  1  0.45978000  0.50451400  0.30527300  1
  H  761  1  0.48175400  0.45698700  0.30634700  1
  H  764  1  0.55650800  0.56849500  0.41443800  1
  H  765  1  0.57698500  0.54145100  0.39945100  1
  H  766  1  0.55173600  0.56729900  0.38612400  1
  H  779  1  0.20744600  0.32532600  0.91633300  1
  H  780  1  0.23956600  0.19393700  0.86567100  1
  H  781  1  0.28849300  0.22189200  0.86672500  1
  H  784  1  0.12050000  0.29799400  0.94493600  1
  H  785  1  0.16296200  0.29547800  0.95042600  1
  H  786  1  0.14178400  0.26564300  0.93959600  1
  H  799  1  0.76440200  0.65116600  0.90944900  1
  H  800  1  0.73863600  0.78857500  0.86758800  1
  H  801  1  0.68892100  0.76196900  0.86637800  1
  H  804  1  0.85102100  0.67353800  0.94027500  1
  H  805  1  0.80846700  0.67699400  0.94573600  1
  H  806  1  0.83134200  0.70694200  0.93646300  1
  H  819  1  0.21286200  0.65646000  0.55460600  1
  H  820  1  0.23404500  0.77854700  0.61828100  1
  H  821  1  0.28283800  0.74957100  0.61845000  1
  H  824  1  0.13044800  0.68909600  0.52344000  1
  H  825  1  0.17355800  0.69140400  0.52048700  1
  H  826  1  0.15044400  0.72019200  0.53223200  1
  H  839  1  0.76931600  0.32217800  0.55529600  1
  H  840  1  0.74331600  0.20014300  0.61850000  1
  H  841  1  0.69476200  0.22945300  0.61808700  1
  H  844  1  0.85236300  0.28986000  0.52464300  1
  H  845  1  0.80927000  0.28946800  0.52148700  1
  H  846  1  0.83042700  0.25907300  0.53218400  1
  H  859  1  0.77263200  0.65746500  0.05597800  1
  H  860  1  0.74238700  0.77930200  0.11923300  1
  H  861  1  0.69500700  0.74948400  0.11911600  1
  H  864  1  0.85420200  0.69069600  0.02502200  1
  H  865  1  0.81107500  0.69108600  0.02196900  1
  H  866  1  0.83137500  0.72135100  0.03286100  1
  H  879  1  0.21042300  0.32017800  0.05422600  1
  H  880  1  0.23632600  0.20044700  0.12017700  1
  H  881  1  0.28386600  0.23005100  0.12001200  1
  H  884  1  0.12998800  0.28583600  0.02322000  1
  H  885  1  0.17323700  0.28430600  0.02053800  1
  H  886  1  0.15152500  0.25528000  0.03241100  1
  H  899  1  0.75369800  0.30485800  0.44146900  1
  H  900  1  0.74946200  0.20492100  0.35721800  1
  H  901  1  0.70080200  0.23401600  0.35712200  1
  H  904  1  0.85444600  0.29576100  0.45031100  1
  H  905  1  0.84925300  0.28381200  0.42351600  1
  H  906  1  0.82808000  0.31506600  0.43296200  1
  H  919  1  0.21098900  0.65728500  0.42718900  1
  H  920  1  0.23585000  0.77739300  0.36167700  1
  H  921  1  0.28464300  0.74842200  0.36259600  1
  H  924  1  0.12676300  0.69124700  0.45674500  1
  H  925  1  0.16965100  0.69402600  0.46019500  1
  H  926  1  0.14700600  0.72204200  0.44734900  1
  H  939  1  0.95567200  0.03405300  0.73019500  1
  H  940  1  0.01071500  0.17101400  0.75591500  1
  H  941  1  0.98641500  0.17097500  0.72064500  1
  H  944  1  0.95840600  0.00643300  0.79457400  1
  H  945  1  0.93119200  0.02892400  0.78025400  1
  H  946  1  0.96021100  0.04373600  0.79842300  1
  H  959  1  0.04335800  0.93806700  0.73094300  1
  H  960  1  0.96023700  0.81160900  0.75471700  1
  H  961  1  0.98336500  0.80974800  0.71887000  1
  H  964  1  0.06128200  0.96178300  0.79104300  1
  H  965  1  0.07694000  0.94161300  0.76920800  1
  H  966  1  0.05939300  0.92416900  0.79211200  1
  H  979  1  0.02417800  0.94470800  0.25020600  1
  H  980  1  0.96988800  0.80751100  0.22445300  1
  H  981  1  0.99438400  0.80755900  0.25966000  1
  H  984  1  0.01711100  0.97237100  0.18494600  1
  H  985  1  0.04614200  0.94996500  0.19781800  1
  H  986  1  0.01498000  0.93505500  0.18131300  1
  H  999  1  0.94844500  0.03515000  0.25262000  1
  H  1000  1  0.01401700  0.16785900  0.22453200  1
  H  1001  1  0.99071600  0.16956100  0.26033200  1
  H  1004  1  0.93895900  0.00365700  0.19346000  1
  H  1005  1  0.91857400  0.02175900  0.21472000  1
  H  1006  1  0.93199200  0.04089900  0.19141500  1
  H  1019  1  0.45412600  0.53335400  0.73136800  1
  H  1020  1  0.51165100  0.67006500  0.75537700  1
  H  1021  1  0.48716000  0.66967100  0.72017800  1
  H  1024  1  0.46020600  0.50686600  0.79677000  1
  H  1025  1  0.43178600  0.52929600  0.78335700  1
  H  1026  1  0.46280000  0.54422400  0.79997300  1
  H  1039  1  0.53117800  0.44259700  0.72837100  1
  H  1040  1  0.46381600  0.31059600  0.75649300  1
  H  1041  1  0.48738500  0.30857900  0.72075600  1
  H  1044  1  0.54080300  0.47435600  0.78728900  1
  H  1045  1  0.56092500  0.45605100  0.76602900  1
  H  1046  1  0.54753300  0.43709500  0.78942600  1
  H  1059  1  0.52224700  0.44413400  0.25158000  1
  H  1060  1  0.46979800  0.30670700  0.22477800  1
  H  1061  1  0.49424400  0.30656400  0.26002000  1
  H  1064  1  0.51593700  0.47256700  0.18675000  1
  H  1065  1  0.54482500  0.45029600  0.19986900  1
  H  1066  1  0.51446700  0.43527800  0.18278300  1
  H  1079  1  0.44029800  0.53788400  0.25014300  1
  H  1080  1  0.51593900  0.66738200  0.22477800  1
  H  1081  1  0.49285200  0.66904800  0.26064500  1
  H  1084  1  0.42619800  0.51060500  0.19036300  1
  H  1085  1  0.40818300  0.53039500  0.21164100  1
  H  1086  1  0.42453600  0.54824900  0.18854400  1
  C  1  1  0.08894600  0.14748000  0.86912100  1
  C  2  1  0.11919700  0.16051400  0.86351900  1
  C  3  1  0.13925200  0.17433000  0.87887700  1
  C  4  1  0.12900800  0.17387300  0.90079600  1
  C  5  1  0.09946300  0.16085900  0.90757800  1
  C  6  1  0.07952500  0.14810300  0.89145100  1
  C  9  1  0.06987500  0.13254400  0.85287700  1
  C  10  1  0.06088300  0.14422300  0.83235100  1
  C  11  1  0.04117700  0.12895900  0.81724200  1
  C  12  1  0.03068500  0.10137900  0.82344700  1
  C  13  1  0.03945600  0.08863000  0.84329100  1
  C  14  1  0.05947800  0.10437100  0.85738500  1
  C  21  1  0.02737800  0.06205700  0.84961800  1
  C  22  1  0.08988300  0.16171300  0.92948400  1
  C  23  1  0.16903400  0.18686900  0.87268300  1
  C  24  1  0.03120600  0.14043100  0.79707700  1
  C  29  1  0.88899700  0.83151300  0.86908700  1
  C  30  1  0.85898000  0.81823200  0.86373900  1
  C  31  1  0.83892500  0.80427300  0.87928200  1
  C  32  1  0.84912000  0.80459000  0.90109600  1
  C  33  1  0.87853600  0.81779200  0.90759100  1
  C  34  1  0.89830400  0.83093500  0.89130400  1
  C  37  1  0.90752900  0.84717700  0.85278000  1
  C  38  1  0.91771800  0.83591800  0.83226600  1
  C  39  1  0.93657200  0.85217300  0.81702400  1
  C  40  1  0.94470000  0.88041300  0.82304600  1
  C  41  1  0.93472900  0.89273000  0.84295700  1
  C  42  1  0.91569300  0.87587700  0.85717000  1
  C  49  1  0.94357200  0.92033900  0.84914400  1
  C  50  1  0.88824000  0.81690100  0.92935200  1
  C  51  1  0.80903600  0.79208900  0.87326800  1
  C  52  1  0.94708500  0.84122400  0.79667000  1
  C  57  1  0.08558900  0.82920500  0.61100500  1
  C  58  1  0.11577900  0.81558900  0.61629600  1
  C  59  1  0.13626700  0.80203700  0.60060700  1
  C  60  1  0.12630300  0.80305300  0.57875000  1
  C  61  1  0.09668100  0.81661000  0.57232000  1
  C  62  1  0.07651600  0.82943500  0.58874700  1
  C  65  1  0.06662500  0.84431700  0.62754700  1
  C  66  1  0.05633000  0.83212600  0.64765900  1
  C  67  1  0.03717000  0.84793100  0.66319300  1
  C  68  1  0.02875400  0.87651800  0.65794400  1
  C  69  1  0.03902000  0.88975200  0.63854400  1
  C  70  1  0.05827200  0.87334700  0.62389500  1
  C  77  1  0.02974800  0.91773900  0.63326800  1
  C  78  1  0.08716700  0.81627100  0.55050300  1
  C  79  1  0.16601900  0.78908100  0.60665700  1
  C  80  1  0.02533200  0.83612600  0.68278500  1
  C  85  1  0.89220300  0.14874900  0.61283800  1
  C  86  1  0.86221000  0.16297700  0.61810500  1
  C  87  1  0.84231000  0.17653300  0.60233000  1
  C  88  1  0.85283300  0.17504800  0.58047200  1
  C  89  1  0.88231900  0.16093400  0.57408500  1
  C  90  1  0.90175900  0.14794700  0.59056500  1
  C  93  1  0.91020500  0.13328800  0.62941200  1
  C  94  1  0.92120000  0.14552100  0.64921500  1
  C  95  1  0.93899000  0.12922200  0.66496300  1
  C  96  1  0.94506200  0.10001900  0.66026300  1
  C  97  1  0.93404400  0.08690100  0.64116000  1
  C  98  1  0.91635000  0.10376200  0.62623600  1
  C  105  1  0.93947200  0.05795100  0.63717200  1
  C  106  1  0.89226000  0.16081700  0.55222300  1
  C  107  1  0.81252100  0.18989300  0.60823600  1
  C  108  1  0.95116000  0.14097200  0.68437400  1
  C  113  1  0.89001200  0.83175100  0.11190400  1
  C  114  1  0.86041000  0.81769100  0.11749500  1
  C  115  1  0.84064100  0.80375600  0.10203800  1
  C  116  1  0.85083800  0.80479600  0.08010800  1
  C  117  1  0.87984000  0.81876600  0.07337700  1
  C  118  1  0.89921300  0.83204000  0.08956500  1
  C  121  1  0.90847200  0.84692700  0.12824200  1
  C  122  1  0.91952100  0.83447000  0.14805000  1
  C  123  1  0.93792500  0.85018100  0.16360100  1
  C  124  1  0.94472100  0.87906800  0.15864100  1
  C  125  1  0.93378200  0.89240300  0.13952400  1
  C  126  1  0.91528100  0.87620300  0.12485800  1
  C  133  1  0.93954200  0.92122600  0.13582300  1
  C  134  1  0.88946200  0.81843300  0.05146200  1
  C  135  1  0.81135100  0.79035200  0.10828200  1
  C  136  1  0.94922700  0.83823600  0.18329000  1
  C  141  1  0.08989200  0.14707100  0.11164400  1
  C  142  1  0.11955700  0.16081800  0.11716700  1
  C  143  1  0.13941700  0.17523500  0.10176500  1
  C  144  1  0.12939600  0.17485600  0.07990800  1
  C  145  1  0.10033200  0.16123700  0.07325900  1
  C  146  1  0.08071900  0.14767300  0.08940900  1
  C  149  1  0.07135000  0.13122200  0.12782400  1
  C  150  1  0.06087500  0.14241100  0.14828800  1
  C  151  1  0.04194300  0.12603900  0.16339600  1
  C  152  1  0.03387800  0.09780900  0.15727600  1
  C  153  1  0.04408900  0.08558600  0.13738900  1
  C  154  1  0.06332500  0.10251500  0.12333900  1
  C  161  1  0.03565400  0.05788600  0.13115800  1
  C  162  1  0.09075600  0.16218500  0.05148900  1
  C  163  1  0.16862400  0.18845900  0.10800300  1
  C  164  1  0.03105900  0.13703800  0.18362700  1
  C  169  1  0.89420100  0.14884800  0.36966200  1
  C  170  1  0.86397400  0.16241700  0.36438200  1
  C  171  1  0.84349100  0.17607200  0.38003700  1
  C  172  1  0.85358700  0.17517400  0.40187800  1
  C  173  1  0.88325900  0.16169800  0.40829600  1
  C  174  1  0.90339200  0.14880500  0.39189700  1
  C  177  1  0.91317200  0.13370700  0.35313300  1
  C  178  1  0.92301100  0.14573300  0.33286700  1
  C  179  1  0.94215600  0.12991900  0.31733300  1
  C  180  1  0.95113500  0.10152200  0.32277800  1
  C  181  1  0.94136000  0.08844900  0.34234500  1
  C  182  1  0.92200900  0.10481700  0.35695900  1
  C  189  1  0.95114300  0.06064600  0.34777000  1
  C  190  1  0.89281600  0.16217000  0.43009400  1
  C  191  1  0.81386900  0.18928900  0.37389000  1
  C  192  1  0.95339600  0.14156000  0.29753400  1
  C  197  1  0.08746000  0.82930400  0.36769700  1
  C  198  1  0.11739600  0.81500800  0.36242800  1
  C  199  1  0.13720000  0.80137100  0.37819800  1
  C  200  1  0.12665900  0.80282800  0.40005200  1
  C  201  1  0.09723200  0.81702500  0.40644900  1
  C  202  1  0.07787900  0.83011500  0.38996600  1
  C  205  1  0.06963600  0.84486900  0.35111100  1
  C  206  1  0.05873800  0.83273200  0.33125000  1
  C  207  1  0.04123500  0.84916300  0.31544600  1
  C  208  1  0.03533900  0.87838700  0.32015100  1
  C  209  1  0.04629100  0.89138700  0.33931100  1
  C  210  1  0.06371500  0.87442000  0.35429500  1
  C  217  1  0.04110000  0.92034800  0.34327500  1
  C  218  1  0.08734800  0.81723500  0.42832900  1
  C  219  1  0.16695100  0.78799600  0.37228500  1
  C  220  1  0.02917100  0.83752300  0.29597300  1
  C  225  1  0.59044800  0.64659600  0.86859200  1
  C  226  1  0.62060500  0.65981400  0.86308100  1
  C  227  1  0.64052800  0.67348500  0.87859100  1
  C  228  1  0.63010300  0.67300600  0.90045700  1
  C  229  1  0.60054000  0.65985700  0.90708800  1
  C  230  1  0.58093900  0.64686000  0.89088200  1
  C  233  1  0.57185600  0.63145400  0.85229200  1
  C  234  1  0.56123600  0.64374200  0.83231900  1
  C  235  1  0.54269100  0.62804900  0.81682000  1
  C  236  1  0.53541400  0.59931600  0.82198500  1
  C  237  1  0.54594700  0.58612100  0.84126000  1
  C  238  1  0.56450500  0.60232600  0.85589500  1
  C  245  1  0.53978700  0.55738900  0.84513200  1
  C  246  1  0.59047300  0.66100100  0.92888500  1
  C  247  1  0.67098600  0.68512500  0.87298200  1
  C  248  1  0.53172800  0.63982000  0.79697300  1
  C  253  1  0.38826900  0.33235600  0.86953700  1
  C  254  1  0.35875200  0.31833500  0.86405700  1
  C  255  1  0.33873800  0.30419100  0.87953400  1
  C  256  1  0.34848900  0.30516900  0.90144100  1
  C  257  1  0.37741200  0.31903000  0.90806900  1
  C  258  1  0.39717200  0.33226000  0.89183000  1
  C  261  1  0.40688000  0.34800200  0.85324400  1
  C  262  1  0.41731300  0.33663500  0.83282100  1
  C  263  1  0.43630400  0.35283200  0.81762400  1
  C  264  1  0.44452800  0.38106800  0.82362800  1
  C  265  1  0.43436800  0.39347700  0.84345900  1
  C  266  1  0.41500300  0.37673700  0.85756400  1
  C  273  1  0.44301800  0.42115800  0.84961800  1
  C  274  1  0.38677900  0.31855800  0.92990300  1
  C  275  1  0.30950100  0.29093300  0.87329300  1
  C  276  1  0.44711900  0.34165900  0.79742400  1
  C  281  1  0.58617800  0.33005800  0.61175700  1
  C  282  1  0.61443100  0.31367300  0.61722600  1
  C  283  1  0.63416000  0.29920000  0.60158700  1
  C  284  1  0.62520100  0.30177000  0.57960500  1
  C  285  1  0.59744800  0.31797300  0.57300000  1
  C  286  1  0.57815000  0.33191500  0.58936300  1
  C  289  1  0.56776400  0.34536600  0.62847200  1
  C  290  1  0.55585000  0.33266600  0.64804300  1
  C  291  1  0.53781800  0.34869300  0.66403000  1
  C  292  1  0.53208200  0.37801700  0.65974600  1
  C  293  1  0.54386900  0.39150700  0.64088400  1
  C  294  1  0.56211600  0.37506200  0.62577900  1
  C  301  1  0.53839300  0.42051200  0.63762200  1
  C  302  1  0.58810400  0.31815700  0.55114600  1
  C  303  1  0.66015300  0.28122500  0.60794900  1
  C  304  1  0.52511100  0.33665900  0.68332100  1
  C  309  1  0.39211500  0.64835400  0.61287000  1
  C  310  1  0.36372800  0.66479600  0.61831900  1
  C  311  1  0.34405600  0.67866200  0.60257800  1
  C  312  1  0.35323700  0.67548400  0.58056800  1
  C  313  1  0.38122500  0.65936000  0.57398300  1
  C  314  1  0.40044200  0.64601900  0.59043100  1
  C  317  1  0.40987500  0.63270500  0.62951200  1
  C  318  1  0.42169700  0.64476600  0.64918100  1
  C  319  1  0.43917800  0.62811900  0.66490000  1
  C  320  1  0.44429800  0.59875200  0.66029800  1
  C  321  1  0.43228700  0.58585500  0.64140900  1
  C  322  1  0.41476400  0.60298200  0.62658500  1
  C  329  1  0.43567600  0.55670100  0.63776600  1
  C  330  1  0.39049500  0.65820200  0.55199700  1
  C  331  1  0.31733000  0.69601800  0.60887200  1
  C  332  1  0.45182800  0.63968700  0.68423500  1
  C  337  1  0.38948400  0.33215900  0.11245100  1
  C  338  1  0.36144200  0.31597300  0.11817300  1
  C  339  1  0.34208300  0.30159100  0.10274100  1
  C  340  1  0.35103700  0.30426200  0.08067000  1
  C  341  1  0.37854200  0.32021700  0.07379200  1
  C  342  1  0.39760100  0.33388200  0.08996600  1
  C  345  1  0.40788500  0.34720000  0.12893600  1
  C  346  1  0.41933500  0.33442400  0.14854500  1
  C  347  1  0.43766900  0.34997200  0.16421600  1
  C  348  1  0.44430100  0.37895700  0.15952200  1
  C  349  1  0.43309900  0.39258600  0.14060200  1
  C  350  1  0.41437200  0.37662200  0.12591500  1
  C  357  1  0.43912700  0.42139600  0.13706500  1
  C  358  1  0.38765500  0.32077200  0.05178600  1
  C  359  1  0.31607600  0.28412500  0.10940600  1
  C  360  1  0.44917200  0.33775600  0.18374500  1
  C  365  1  0.59063400  0.64630300  0.11120300  1
  C  366  1  0.61699100  0.66426100  0.11705400  1
  C  367  1  0.63714800  0.67847800  0.10169400  1
  C  368  1  0.63101700  0.67362800  0.07951700  1
  C  369  1  0.60549000  0.65574300  0.07249500  1
  C  370  1  0.58533300  0.64257000  0.08853800  1
  C  373  1  0.57198900  0.63074900  0.12766600  1
  C  374  1  0.55981800  0.64255100  0.14758500  1
  C  375  1  0.54128300  0.62616800  0.16293600  1
  C  376  1  0.53457700  0.59744600  0.15742800  1
  C  377  1  0.54632000  0.58462500  0.13814500  1
  C  378  1  0.56591900  0.60138600  0.12421200  1
  C  385  1  0.53899800  0.55653500  0.13230100  1
  C  386  1  0.60308600  0.64860900  0.05050400  1
  C  387  1  0.66160200  0.69744400  0.10831100  1
  C  388  1  0.52964500  0.63749000  0.18290500  1
  C  393  1  0.39354800  0.64817200  0.36933500  1
  C  394  1  0.36474300  0.66383700  0.36391700  1
  C  395  1  0.34468200  0.67789200  0.37957500  1
  C  396  1  0.35356700  0.67533500  0.40156800  1
  C  397  1  0.38183500  0.65984000  0.40815100  1
  C  398  1  0.40169800  0.64660600  0.39174000  1
  C  401  1  0.41237400  0.63315800  0.35263000  1
  C  402  1  0.42284100  0.64554700  0.33260600  1
  C  403  1  0.44176900  0.62980300  0.31692000  1
  C  404  1  0.45015200  0.60117100  0.32201100  1
  C  405  1  0.43986000  0.58777300  0.34133000  1
  C  406  1  0.42046600  0.60400500  0.35600000  1
  C  413  1  0.44926000  0.55979800  0.34651300  1
  C  414  1  0.39087300  0.65930700  0.43006500  1
  C  415  1  0.31802300  0.69494400  0.37306800  1
  C  416  1  0.45346100  0.64169600  0.29732500  1
  C  421  1  0.58767700  0.33038500  0.36825000  1
  C  422  1  0.61548200  0.31317100  0.36293500  1
  C  423  1  0.63483100  0.29910800  0.37874100  1
  C  424  1  0.62571900  0.30286600  0.40071900  1
  C  425  1  0.59837000  0.31991200  0.40729700  1
  C  426  1  0.57967600  0.33352500  0.39067800  1
  C  429  1  0.57008300  0.34566800  0.35135200  1
  C  430  1  0.55812800  0.33287200  0.33198300  1
  C  431  1  0.54075000  0.34897600  0.31593800  1
  C  432  1  0.53553200  0.37843800  0.32002800  1
  C  433  1  0.54735200  0.39204800  0.33869300  1
  C  434  1  0.56519400  0.37550000  0.35371500  1
  C  441  1  0.54211500  0.42109200  0.34223900  1
  C  442  1  0.59001000  0.32298800  0.42944300  1
  C  443  1  0.66104500  0.28099900  0.37252800  1
  C  444  1  0.52810900  0.33686600  0.29680900  1
  C  449  1  0.10844100  0.15782100  0.96694000  1
  C  450  1  0.13599000  0.14768600  0.97859600  1
  C  451  1  0.13627200  0.14796200  0.00165200  1
  C  452  1  0.10892600  0.15823000  0.01378400  1
  C  453  1  0.08137000  0.16817900  0.00202800  1
  C  454  1  0.08115300  0.16802400  0.97917300  1
  C  456  1  0.19051400  0.12771000  0.00097700  1
  C  457  1  0.19006000  0.12686800  0.97829400  1
  C  463  1  0.21302600  0.08772400  0.96008900  1
  C  469  1  0.87038000  0.82132900  0.96713500  1
  C  470  1  0.84318700  0.83184100  0.97930200  1
  C  471  1  0.84332700  0.83178800  0.00236100  1
  C  472  1  0.87079600  0.82145700  0.01399700  1
  C  473  1  0.89800900  0.81113300  0.00175000  1
  C  474  1  0.89778400  0.81103500  0.97888800  1
  C  476  1  0.78932200  0.85251800  0.00268700  1
  C  477  1  0.78938100  0.85317700  0.97999600  1
  C  483  1  0.76680700  0.89234300  0.96189600  1
  C  489  1  0.10553700  0.81980500  0.51277700  1
  C  490  1  0.13314600  0.82909800  0.50071900  1
  C  491  1  0.13325500  0.82897800  0.47765800  1
  C  492  1  0.10564100  0.81978400  0.46591000  1
  C  493  1  0.07802300  0.81068100  0.47805000  1
  C  494  1  0.07799500  0.81064800  0.50091500  1
  C  496  1  0.18782200  0.84735300  0.47755600  1
  C  497  1  0.18753600  0.84807800  0.50024800  1
  C  503  1  0.21114600  0.88634600  0.51826100  1
  C  509  1  0.87423700  0.15783400  0.51462900  1
  C  510  1  0.84705000  0.14791200  0.50279700  1
  C  511  1  0.84710300  0.14819700  0.47973900  1
  C  512  1  0.87442200  0.15827800  0.46777600  1
  C  513  1  0.90160400  0.16804100  0.47970700  1
  C  514  1  0.90149600  0.16786200  0.50257000  1
  C  516  1  0.79325800  0.12831000  0.48006700  1
  C  517  1  0.79340500  0.12744400  0.50275200  1
  C  523  1  0.77107100  0.08839100  0.52079700  1
  C  529  1  0.60700900  0.65822400  0.96660900  1
  C  530  1  0.63127500  0.64471800  0.97946400  1
  C  531  1  0.63023900  0.64654400  0.00249300  1
  C  532  1  0.60487500  0.66202500  0.01330200  1
  C  533  1  0.58109200  0.67586400  0.00038100  1
  C  534  1  0.58191300  0.67379300  0.97759500  1
  C  536  1  0.68001800  0.61909400  0.00423700  1
  C  537  1  0.68080200  0.61674600  0.98160400  1
  C  543  1  0.69856100  0.57407400  0.96562300  1
  C  549  1  0.36836300  0.32251200  0.96758100  1
  C  550  1  0.34045200  0.33159800  0.97969800  1
  C  551  1  0.34048900  0.33157800  0.00276300  1
  C  552  1  0.36857000  0.32272500  0.01445300  1
  C  553  1  0.39646400  0.31381000  0.00224600  1
  C  554  1  0.39635300  0.31367700  0.97939000  1
  C  556  1  0.28514500  0.34937700  0.00296800  1
  C  557  1  0.28525700  0.34999800  0.98027300  1
  C  563  1  0.26017700  0.38764800  0.96173900  1
  C  569  1  0.60639400  0.32062100  0.51347000  1
  C  570  1  0.63231700  0.33260600  0.50117500  1
  C  571  1  0.63258800  0.33135500  0.47814700  1
  C  572  1  0.60677400  0.31853000  0.46670700  1
  C  573  1  0.58077700  0.30674200  0.47898700  1
  C  574  1  0.58065100  0.30770800  0.50185800  1
  C  576  1  0.68360800  0.35596600  0.47728600  1
  C  577  1  0.68310200  0.35789200  0.49993600  1
  C  583  1  0.70077700  0.40015700  0.51564200  1
  C  589  1  0.37180400  0.65620200  0.51454700  1
  C  590  1  0.34376000  0.64812800  0.50274600  1
  C  591  1  0.34378100  0.64833800  0.47967600  1
  C  592  1  0.37191300  0.65651500  0.46765000  1
  C  593  1  0.39992400  0.66443500  0.47956000  1
  C  594  1  0.39986000  0.66431200  0.50241800  1
  C  596  1  0.28822400  0.63225800  0.48011700  1
  C  597  1  0.28833700  0.63147900  0.50280900  1
  C  603  1  0.26265200  0.59446100  0.52139600  1
  C  609  1  0.00384600  0.01793300  0.83876700  1
  C  610  1  0.97617700  0.01262600  0.85215300  1
  C  611  1  0.96125500  0.98524500  0.85237700  1
  C  612  1  0.97400000  0.96278100  0.83929000  1
  C  613  1  0.00130700  0.96858600  0.82589000  1
  C  614  1  0.01580100  0.99567700  0.82545900  1
  C  616  1  0.92065400  0.00290600  0.87734900  1
  C  617  1  0.93572200  0.02971900  0.87746700  1
  C  623  1  0.93666800  0.05375700  0.91046300  1
  C  629  1  0.00227100  0.96077900  0.64415000  1
  C  630  1  0.98349400  0.97027400  0.62633300  1
  C  631  1  0.97063300  0.99867400  0.62568900  1
  C  632  1  0.97585500  0.01767200  0.64311400  1
  C  633  1  0.99457100  0.00787100  0.66075700  1
  C  634  1  0.00715900  0.97980000  0.66141500  1
  C  636  1  0.94739300  0.98902200  0.59113900  1
  C  637  1  0.95893700  0.96067800  0.59215100  1
  C  643  1  0.92594000  0.92413000  0.57932000  1
  C  649  1  0.97822900  0.95902700  0.13792800  1
  C  650  1  0.00943100  0.96457300  0.12876500  1
  C  651  1  0.02296000  0.99245600  0.12947700  1
  C  652  1  0.00528900  0.01526800  0.13943300  1
  C  653  1  0.97412400  0.00942800  0.14846200  1
  C  654  1  0.96078500  0.98186100  0.14777300  1
  C  656  1  0.07092300  0.97489400  0.11090800  1
  C  657  1  0.05711000  0.94763100  0.10959300  1
  C  663  1  0.06303600  0.92076700  0.07804500  1
  C  669  1  0.97826200  0.01751500  0.33670400  1
  C  670  1  0.99784900  0.00824800  0.35421000  1
  C  671  1  0.01063300  0.97982000  0.35483000  1
  C  672  1  0.00458300  0.96060700  0.33766900  1
  C  673  1  0.98510700  0.97020000  0.32032700  1
  C  674  1  0.97253500  0.99827300  0.31970000  1
  C  676  1  0.03539400  0.98982300  0.38884300  1
  C  677  1  0.02400100  0.01821700  0.38780400  1
  C  683  1  0.05963200  0.05273600  0.40082400  1
  C  689  1  0.50100600  0.51974200  0.84270000  1
  C  690  1  0.46989300  0.51431900  0.85202900  1
  C  691  1  0.45616800  0.48650800  0.85133800  1
  C  692  1  0.47354700  0.46365000  0.84122400  1
  C  693  1  0.50462900  0.46937900  0.83202400  1
  C  694  1  0.51816300  0.49687600  0.83269400  1
  C  696  1  0.40858300  0.50424300  0.87023600  1
  C  697  1  0.42259900  0.53142900  0.87152100  1
  C  703  1  0.41738400  0.55824200  0.90314000  1
  C  709  1  0.49952200  0.45876100  0.63993400  1
  C  710  1  0.47025700  0.46523600  0.62878900  1
  C  711  1  0.45690100  0.49348000  0.62889700  1
  C  712  1  0.47250300  0.51556300  0.64052200  1
  C  713  1  0.50182900  0.50869500  0.65150300  1
  C  714  1  0.51504300  0.48079200  0.65136600  1
  C  716  1  0.41307600  0.47761500  0.60646300  1
  C  717  1  0.42658100  0.44988300  0.60611800  1
  C  723  1  0.42145400  0.42642500  0.57306900  1
  C  729  1  0.47859200  0.45858500  0.13886000  1
  C  730  1  0.50899500  0.46392900  0.12853600  1
  C  731  1  0.52314200  0.49158800  0.12908500  1
  C  732  1  0.50692700  0.51438200  0.14009200  1
  C  733  1  0.47652800  0.50869200  0.15027200  1
  C  734  1  0.46258700  0.48134700  0.14975400  1
  C  736  1  0.56881800  0.47379500  0.10822100  1
  C  737  1  0.55433200  0.44679300  0.10713100  1
  C  743  1  0.55692200  0.42101100  0.07492100  1
  C  749  1  0.47774900  0.51730000  0.33572000  1
  C  750  1  0.49672300  0.50804200  0.35351200  1
  C  751  1  0.50992000  0.47976400  0.35415000  1
  C  752  1  0.50482600  0.46072300  0.33674700  1
  C  753  1  0.48586600  0.47026500  0.31914500  1
  C  754  1  0.47296400  0.49822000  0.31847900  1
  C  756  1  0.53316400  0.48961400  0.38864800  1
  C  757  1  0.52128800  0.51786400  0.38764700  1
  C  763  1  0.55438300  0.55424000  0.40064500  1
  C  769  1  0.20805400  0.22446100  0.88074500  1
  C  770  1  0.20790300  0.25197300  0.89018700  1
  C  771  1  0.23693600  0.26867000  0.89063900  1
  C  772  1  0.26677900  0.25816500  0.88165700  1
  C  773  1  0.26695300  0.23057100  0.87247800  1
  C  774  1  0.23809200  0.21413700  0.87183800  1
  C  776  1  0.20740900  0.30559200  0.90936400  1
  C  777  1  0.17881200  0.28907800  0.90921400  1
  C  783  1  0.14379000  0.28887600  0.93930100  1
  C  789  1  0.76860500  0.75557200  0.88053400  1
  C  790  1  0.76737000  0.72710800  0.88814100  1
  C  791  1  0.73778300  0.71112400  0.88724200  1
  C  792  1  0.70857800  0.72344100  0.87888200  1
  C  793  1  0.70979000  0.75208900  0.87186400  1
  C  794  1  0.73919500  0.76773600  0.87243700  1
  C  796  1  0.76537100  0.67158300  0.90376300  1
  C  797  1  0.79446400  0.68734500  0.90488100  1
  C  803  1  0.82835100  0.68387700  0.93502300  1
  C  809  1  0.20620200  0.75169300  0.59805900  1
  C  810  1  0.20812300  0.72586400  0.58626100  1
  C  811  1  0.23721300  0.70862500  0.58634600  1
  C  812  1  0.26497100  0.71673700  0.59834600  1
  C  813  1  0.26290100  0.74254800  0.61016200  1
  C  814  1  0.23410100  0.75968000  0.61002000  1
  C  816  1  0.21146100  0.67519900  0.56298300  1
  C  817  1  0.18283900  0.69228400  0.56267600  1
  C  823  1  0.15266200  0.69698700  0.53094900  1
  C  829  1  0.77251300  0.22682900  0.59865500  1
  C  830  1  0.77146300  0.25261900  0.58679000  1
  C  831  1  0.74254400  0.27007200  0.58654000  1
  C  832  1  0.71398000  0.26213100  0.59813300  1
  C  833  1  0.71516100  0.23627000  0.60993800  1
  C  834  1  0.74384100  0.21898200  0.61020700  1
  C  836  1  0.77002100  0.30339000  0.56362500  1
  C  837  1  0.79844800  0.28604700  0.56359300  1
  C  843  1  0.82947000  0.28238100  0.53178000  1
  C  849  1  0.77242100  0.75294500  0.09920300  1
  C  850  1  0.77226000  0.72710600  0.08739000  1
  C  851  1  0.74406300  0.70936800  0.08731500  1
  C  852  1  0.71527600  0.71702200  0.09903000  1
  C  853  1  0.71557300  0.74289300  0.11083200  1
  C  854  1  0.74355800  0.76048200  0.11092000  1
  C  856  1  0.77265400  0.67627400  0.06428500  1
  C  857  1  0.80036800  0.69386600  0.06411200  1
  C  863  1  0.83112100  0.69804700  0.03227000  1
  C  869  1  0.20754000  0.22624600  0.09932300  1
  C  870  1  0.20847600  0.25171700  0.08706900  1
  C  871  1  0.23679000  0.26931300  0.08696300  1
  C  872  1  0.26479600  0.26198400  0.09922400  1
  C  873  1  0.26371200  0.23653300  0.11150500  1
  C  874  1  0.23566000  0.21903500  0.11156500  1
  C  876  1  0.20978400  0.30168300  0.06291700  1
  C  877  1  0.18195100  0.28423900  0.06278500  1
  C  883  1  0.15250800  0.27849300  0.03092800  1
  C  889  1  0.77187300  0.22469900  0.38403800  1
  C  890  1  0.76689300  0.24656000  0.39952300  1
  C  891  1  0.73784600  0.26385400  0.39950500  1
  C  892  1  0.71317800  0.25982300  0.38389900  1
  C  893  1  0.71831200  0.23794200  0.36842600  1
  C  894  1  0.74705400  0.22072700  0.36849700  1
  C  896  1  0.75744400  0.28919000  0.43023100  1
  C  897  1  0.78641600  0.27255200  0.43003400  1
  C  903  1  0.83671100  0.29367800  0.43736100  1
  C  909  1  0.20688400  0.75108600  0.38197300  1
  C  910  1  0.20811600  0.72566200  0.39426700  1
  C  911  1  0.23717800  0.70842700  0.39482700  1
  C  912  1  0.26559400  0.71617300  0.38301300  1
  C  913  1  0.26422900  0.74163500  0.37074500  1
  C  914  1  0.23543600  0.75874800  0.37022000  1
  C  916  1  0.21008500  0.67575500  0.41847000  1
  C  917  1  0.18148900  0.69286900  0.41816700  1
  C  923  1  0.14934900  0.69893200  0.44931400  1
  C  929  1  0.00342500  0.12728200  0.76269300  1
  C  930  1  0.99022400  0.10212800  0.75377700  1
  C  931  1  0.97587200  0.10207600  0.73284300  1
  C  932  1  0.97392100  0.12728300  0.72027400  1
  C  933  1  0.98702000  0.15241600  0.72929800  1
  C  934  1  0.00148800  0.15241200  0.75005100  1
  C  936  1  0.96494600  0.05225700  0.73666700  1
  C  937  1  0.97847000  0.05234900  0.75746300  1
  C  943  1  0.95615500  0.02698400  0.78649600  1
  C  949  1  0.97735400  0.85272300  0.76276600  1
  C  950  1  0.99564000  0.87574500  0.75421900  1
  C  951  1  0.00869900  0.87478100  0.73275300  1
  C  952  1  0.00499000  0.85052700  0.71944800  1
  C  953  1  0.98716700  0.82741600  0.72814200  1
  C  954  1  0.97345600  0.82858700  0.74927400  1
  C  956  1  0.03040200  0.92149500  0.73728800  1
  C  957  1  0.01902400  0.92205000  0.75879200  1
  C  963  1  0.05743800  0.94269100  0.78144400  1
  C  969  1  0.97703900  0.85126600  0.21770200  1
  C  970  1  0.99012700  0.87645700  0.22662000  1
  C  971  1  0.00465900  0.87651900  0.24749200  1
  C  972  1  0.00675000  0.85128800  0.26003300  1
  C  973  1  0.99373200  0.82612000  0.25100900  1
  C  974  1  0.97918300  0.82610200  0.23028500  1
  C  976  1  0.01511800  0.92644100  0.24370400  1
  C  977  1  0.00131800  0.92636300  0.22298700  1
  C  983  1  0.02046800  0.95185300  0.19293100  1
  C  989  1  0.00247600  0.12480000  0.21795300  1
  C  990  1  0.98731400  0.10063000  0.22727900  1
  C  991  1  0.97390200  0.10160800  0.24864300  1
  C  992  1  0.97443200  0.12688700  0.26111800  1
  C  993  1  0.98929800  0.15106200  0.25167900  1
  C  994  1  0.00314100  0.14999500  0.23058700  1
  C  996  1  0.95885900  0.05264200  0.24567300  1
  C  997  1  0.97092700  0.05182800  0.22432600  1
  C  1003  1  0.93804200  0.02353000  0.20253900  1
  C  1009  1  0.50350500  0.62661300  0.76269100  1
  C  1010  1  0.48981800  0.60147600  0.75408200  1
  C  1011  1  0.47527600  0.60120800  0.73320700  1
  C  1012  1  0.47378100  0.62617100  0.72032700  1
  C  1013  1  0.48738500  0.65129200  0.72905200  1
  C  1014  1  0.50193200  0.65151200  0.74977900  1
  C  1016  1  0.46362900  0.55159100  0.73763200  1
  C  1017  1  0.47745800  0.55187700  0.75833800  1
  C  1023  1  0.45732300  0.52724300  0.78850900  1
  C  1029  1  0.47579800  0.35356700  0.76303900  1
  C  1030  1  0.49129200  0.37757800  0.75371100  1
  C  1031  1  0.50484100  0.37641200  0.73238600  1
  C  1032  1  0.50407700  0.35112000  0.71993900  1
  C  1033  1  0.48886000  0.32711000  0.72936700  1
  C  1034  1  0.47489700  0.32835700  0.75042500  1
  C  1036  1  0.52049200  0.42523000  0.73532000  1
  C  1037  1  0.50830100  0.42622100  0.75663300  1
  C  1043  1  0.54152500  0.45443500  0.77826900  1
  C  1049  1  0.47637800  0.35063000  0.21837700  1
  C  1050  1  0.48907600  0.37585900  0.22747200  1
  C  1051  1  0.50355600  0.37580300  0.24835100  1
  C  1052  1  0.50593100  0.35043000  0.26069700  1
  C  1053  1  0.49328900  0.32522800  0.25150600  1
  C  1054  1  0.47880600  0.32532300  0.23076800  1
  C  1056  1  0.51340000  0.42586800  0.24494400  1
  C  1057  1  0.49966700  0.42590600  0.22420800  1
  C  1063  1  0.51930700  0.45197200  0.19461500  1
  C  1069  1  0.50105200  0.62541800  0.21728100  1
  C  1070  1  0.48417200  0.60181000  0.22613400  1
  C  1071  1  0.47098500  0.60271500  0.24756000  1
  C  1072  1  0.47343100  0.62739800  0.26056400  1
  C  1073  1  0.48997600  0.65104200  0.25158900  1
  C  1074  1  0.50363500  0.65001000  0.23044500  1
  C  1076  1  0.45214300  0.55493300  0.24357700  1
  C  1077  1  0.46386900  0.55431000  0.22214900  1
  C  1083  1  0.42797100  0.53027100  0.19958800  1
  N  455  1  0.16372700  0.13801100  0.01171300  1
  N  458  1  0.16305700  0.13718700  0.96806700  1
  N  467  1  0.11024300  0.15814100  0.94516700  1
  N  468  1  0.11105900  0.15865800  0.03552400  1
  N  475  1  0.81617800  0.84206900  0.01292900  1
  N  478  1  0.81606000  0.84250700  0.96927500  1
  N  487  1  0.86814900  0.82084500  0.94538700  1
  N  488  1  0.86894000  0.82099800  0.03576700  1
  N  495  1  0.16079600  0.83804500  0.46720500  1
  N  498  1  0.16044900  0.83860700  0.51086100  1
  N  507  1  0.10751100  0.81926000  0.53453600  1
  N  508  1  0.10769400  0.81917000  0.44414400  1
  N  515  1  0.81999200  0.13844300  0.46950200  1
  N  518  1  0.82004700  0.13758600  0.51315400  1
  N  527  1  0.87202200  0.15840400  0.53639000  1
  N  528  1  0.87249000  0.15890900  0.44603000  1
  N  535  1  0.65490600  0.63376800  0.01376200  1
  N  538  1  0.65671500  0.62995100  0.97016700  1
  N  547  1  0.61031200  0.65762600  0.94489200  1
  N  548  1  0.60487200  0.66666667  0.03478600  1
  N  555  1  0.31263100  0.34040000  0.01327100  1
  N  558  1  0.31268000  0.34076100  0.96961200  1
  N  567  1  0.36633300  0.32191700  0.94582200  1
  N  568  1  0.36674200  0.32207900  0.03623300  1
  N  575  1  0.65838500  0.34300400  0.46731000  1
  N  578  1  0.65779700  0.34583800  0.51093800  1
  N  587  1  0.60868700  0.32037100  0.53522600  1
  N  588  1  0.60943000  0.31635500  0.44508600  1
  N  595  1  0.31580100  0.64046700  0.46949600  1
  N  598  1  0.31588400  0.63976800  0.51315500  1
  N  607  1  0.36977000  0.65709500  0.53633200  1
  N  608  1  0.37005800  0.65738600  0.44588000  1
  N  615  1  0.93395300  0.98190100  0.86490400  1
  N  618  1  0.96248600  0.03360700  0.86461100  1
  N  627  1  0.01692200  0.04362200  0.83598300  1
  N  628  1  0.96157900  0.93664600  0.83737300  1
  N  635  1  0.95345700  0.00671000  0.60790800  1
  N  638  1  0.97684300  0.95260900  0.60954200  1
  N  647  1  0.01375600  0.93421500  0.64639000  1
  N  648  1  0.96499200  0.04460000  0.64428300  1
  N  655  1  0.05338600  0.99607100  0.12069400  1
  N  658  1  0.02720800  0.94346500  0.11887700  1
  N  667  1  0.96780300  0.93221500  0.13941700  1
  N  668  1  0.01654800  0.04169700  0.14227800  1
  N  675  1  0.02852700  0.97194900  0.37234000  1
  N  678  1  0.00535000  0.02612200  0.37071300  1
  N  687  1  0.96656100  0.04400100  0.33448500  1
  N  688  1  0.01536100  0.93366600  0.33647900  1
  N  695  1  0.42583900  0.48301500  0.86029900  1
  N  698  1  0.45240000  0.53547900  0.86206500  1
  N  707  1  0.51160200  0.54649300  0.84114800  1
  N  708  1  0.46210300  0.43726800  0.83841300  1
  N  715  1  0.42882000  0.49808800  0.61763000  1
  N  718  1  0.45439300  0.44475500  0.61746800  1
  N  727  1  0.50992400  0.43180700  0.64132500  1
  N  728  1  0.46221500  0.54272600  0.64216100  1
  N  735  1  0.55270300  0.49492900  0.11903600  1
  N  738  1  0.52530500  0.44283300  0.11760800  1
  N  747  1  0.46771200  0.43192700  0.14034900  1
  N  748  1  0.51837500  0.54083700  0.14262000  1
  N  755  1  0.52725700  0.47185800  0.37189500  1
  N  758  1  0.50322200  0.52578100  0.37028600  1
  N  767  1  0.46598100  0.54374000  0.33349200  1
  N  768  1  0.51589400  0.43389500  0.33569500  1
  N  775  1  0.23530200  0.29474600  0.90027700  1
  N  778  1  0.18016700  0.26310900  0.89951200  1
  N  787  1  0.18085600  0.20864900  0.88255200  1
  N  788  1  0.29495500  0.27191000  0.88487200  1
  N  795  1  0.73824500  0.68406600  0.89519600  1
  N  798  1  0.79434400  0.71430700  0.89687400  1
  N  807  1  0.79641300  0.77041600  0.88301100  1
  N  808  1  0.67931000  0.71052400  0.87939500  1
  N  815  1  0.23744400  0.68403000  0.57464700  1
  N  818  1  0.18225300  0.71672300  0.57444200  1
  N  827  1  0.17891900  0.76785800  0.59623600  1
  N  828  1  0.29254800  0.70093400  0.59654600  1
  N  835  1  0.74327400  0.29472400  0.57492800  1
  N  838  1  0.79810600  0.26158200  0.57531500  1
  N  847  1  0.79978000  0.21052900  0.59723700  1
  N  848  1  0.68694700  0.27865600  0.59642500  1
  N  855  1  0.74568700  0.68470900  0.07571200  1
  N  858  1  0.79913800  0.71835500  0.07580100  1
  N  867  1  0.79906200  0.76948000  0.09758800  1
  N  868  1  0.68898100  0.70011700  0.09743800  1
  N  875  1  0.23603200  0.29353800  0.07483500  1
  N  878  1  0.18233600  0.26017400  0.07498000  1
  N  887  1  0.18096300  0.20970400  0.09761300  1
  N  888  1  0.29168400  0.27809400  0.09714900  1
  N  895  1  0.73449800  0.28433700  0.41499100  1
  N  898  1  0.78975700  0.25175600  0.41489400  1
  N  907  1  0.79928600  0.20861800  0.38542800  1
  N  908  1  0.68595500  0.27621900  0.38513900  1
  N  915  1  0.23672500  0.68420000  0.40695300  1
  N  918  1  0.18158800  0.71692100  0.40595400  1
  N  927  1  0.17963100  0.76737200  0.38331200  1
  N  928  1  0.29303300  0.70041200  0.38538300  1
  N  935  1  0.96401500  0.07696100  0.72529500  1
  N  938  1  0.99087000  0.07714200  0.76500700  1
  N  947  1  0.01653400  0.12555800  0.78254800  1
  N  948  1  0.96092500  0.12542500  0.70039900  1
  N  955  1  0.02522900  0.89789200  0.72529200  1
  N  958  1  0.00169900  0.89943300  0.76625300  1
  N  967  1  0.96410700  0.85557900  0.78274000  1
  N  968  1  0.01713400  0.85179600  0.69918800  1
  N  975  1  0.01636700  0.90169900  0.25503300  1
  N  978  1  0.98904900  0.90149800  0.21547700  1
  N  987  1  0.96339800  0.85310700  0.19802600  1
  N  988  1  0.01963400  0.85315500  0.27993700  1
  N  995  1  0.96048800  0.07739800  0.25683600  1
  N  998  1  0.98507200  0.07564600  0.21615900  1
  N  1007  1  0.01567900  0.12208500  0.19798600  1
  N  1008  1  0.96234500  0.12572200  0.28138700  1
  N  1015  1  0.46295900  0.57609200  0.72599300  1
  N  1018  1  0.49031300  0.57667100  0.76553600  1
  N  1027  1  0.51712000  0.62497700  0.78240000  1
  N  1028  1  0.46079000  0.62409900  0.70044600  1
  N  1035  1  0.51862600  0.40046400  0.72419700  1
  N  1038  1  0.49379300  0.40256600  0.76480000  1
  N  1047  1  0.46258800  0.35643900  0.78299900  1
  N  1048  1  0.51671500  0.35209300  0.69981100  1
  N  1055  1  0.51493200  0.40099500  0.25609000  1
  N  1058  1  0.48773600  0.40102400  0.21649900  1
  N  1067  1  0.46280700  0.35259100  0.19871100  1
  N  1068  1  0.51894700  0.35220000  0.28053100  1
  N  1075  1  0.45579200  0.57904600  0.25527800  1
  N  1078  1  0.47980600  0.57753100  0.21444200  1
  N  1087  1  0.51444800  0.62258200  0.19737700  1
  N  1088  1  0.46144900  0.62608200  0.28085200  1
  O  17  1  0.04961400  0.13750300  0.89731700  1
  O  18  1  0.06957200  0.17158200  0.82783200  1
  O  45  1  0.92785100  0.84220400  0.89686400  1
  O  46  1  0.91093200  0.80812600  0.82790000  1
  O  73  1  0.04682800  0.84114400  0.58329000  1
  O  74  1  0.06351600  0.80410200  0.65143100  1
  O  101  1  0.93114300  0.13536200  0.58514400  1
  O  102  1  0.91583900  0.17394900  0.65249300  1
  O  129  1  0.92828800  0.84426100  0.08378300  1
  O  130  1  0.91373500  0.80624800  0.15148800  1
  O  157  1  0.05140100  0.13609400  0.08369800  1
  O  158  1  0.06749700  0.17022000  0.15273100  1
  O  185  1  0.93317200  0.13726900  0.39735100  1
  O  186  1  0.91544700  0.17365000  0.32894200  1
  O  213  1  0.04857000  0.84283500  0.39537500  1
  O  214  1  0.06392700  0.80428100  0.32795900  1
  O  241  1  0.55141800  0.63539300  0.89659300  1
  O  242  1  0.56762000  0.67180500  0.82865100  1
  O  269  1  0.42642000  0.34398000  0.89753100  1
  O  270  1  0.41060700  0.30880900  0.82850100  1
  O  297  1  0.54992600  0.34597200  0.58370700  1
  O  298  1  0.56043000  0.30405900  0.65087700  1
  O  325  1  0.42879300  0.63188500  0.58477900  1
  O  326  1  0.41742300  0.67334100  0.65237200  1
  O  353  1  0.42574000  0.34750200  0.08398800  1
  O  354  1  0.41418800  0.30602900  0.15165300  1
  O  381  1  0.55817100  0.62819600  0.08195200  1
  O  382  1  0.56423600  0.67090800  0.15127500  1
  O  409  1  0.43058500  0.63358200  0.39739300  1
  O  410  1  0.41620500  0.67372700  0.32906300  1
  O  437  1  0.55187200  0.34859300  0.39612400  1
  O  438  1  0.56196000  0.30413800  0.32945100  1
  O  462  1  0.21648900  0.11692100  0.96669600  1
  O  482  1  0.76288600  0.86333300  0.96889500  1
  O  502  1  0.21418300  0.85710000  0.51146500  1
  O  522  1  0.76703500  0.11761400  0.51418200  1
  O  542  1  0.70611900  0.60300000  0.97119600  1
  O  562  1  0.25812700  0.35864300  0.96912100  1
  O  582  1  0.70794000  0.37074000  0.51075000  1
  O  602  1  0.26110400  0.62363500  0.51428100  1
  O  622  1  0.92293000  0.05191300  0.88921900  1
  O  642  1  0.95387400  0.94200800  0.57563800  1
  O  662  1  0.07363500  0.92557900  0.09981500  1
  O  682  1  0.02978400  0.03715700  0.40402900  1
  O  702  1  0.40636400  0.55352200  0.88145100  1
  O  722  1  0.41171500  0.42819100  0.59541300  1
  O  742  1  0.56938700  0.42476200  0.09637100  1
  O  762  1  0.52619400  0.53659900  0.40414000  1
  O  782  1  0.14995600  0.29922000  0.91781000  1
  O  802  1  0.82257500  0.67559400  0.91304800  1
  O  822  1  0.15557900  0.68387200  0.55182900  1
  O  842  1  0.82645000  0.29420700  0.55312500  1
  O  862  1  0.82858100  0.68592200  0.05352400  1
  O  882  1  0.15442000  0.29198100  0.05170600  1
  O  902  1  0.81018800  0.27637100  0.44512300  1
  O  922  1  0.15363900  0.68481900  0.42886500  1
  O  942  1  0.98028300  0.02789100  0.76941000  1
  O  962  1  0.02533500  0.94467600  0.77193000  1
  O  982  1  0.99860700  0.95098200  0.21128100  1
  O  1002  1  0.96965500  0.02756500  0.21218000  1
  O  1022  1  0.47959900  0.52748700  0.77035900  1
  O  1042  1  0.50981000  0.45050500  0.76874000  1
  O  1062  1  0.49683000  0.45060800  0.21262100  1
  O  1082  1  0.45986900  0.53087400  0.20939500  1
