# generated using pymatgen
data_H9C18N2O5
_symmetry_space_group_name_H-M   'P 1'
_cell_length_a   55.32790000
_cell_length_b   55.32790000
_cell_length_c   55.32790000
_cell_angle_alpha   90.00000000
_cell_angle_beta   90.00000000
_cell_angle_gamma   90.00000000
_symmetry_Int_Tables_number   1
_chemical_formula_structural   H9C18N2O5
_chemical_formula_sum   'H432 C864 N96 O240'
_cell_volume   169368.46829294
_cell_formula_units_Z   48
loop_
 _symmetry_equiv_pos_site_id
 _symmetry_equiv_pos_as_xyz
  1  'x, y, z'
loop_
 _atom_site_type_symbol
 _atom_site_label
 _atom_site_symmetry_multiplicity
 _atom_site_fract_x
 _atom_site_fract_y
 _atom_site_fract_z
 _atom_site_occupancy
  H  7  1  0.34315600  0.31578400  0.04373600  1
  H  16  1  0.31577700  0.34316700  0.96745300  1
  H  17  1  0.40179300  0.26078100  0.00527900  1
  H  18  1  0.26076300  0.40179500  0.00591100  1
  H  19  1  0.34253800  0.31541700  0.96738600  1
  H  20  1  0.31541200  0.34254800  0.04380500  1
  H  27  1  0.66804200  0.69541500  0.04374300  1
  H  36  1  0.69544100  0.66805700  0.96745900  1
  H  37  1  0.60943700  0.75045300  0.00527500  1
  H  38  1  0.75045600  0.60942400  0.00590200  1
  H  39  1  0.66867100  0.69578900  0.96739200  1
  H  40  1  0.69577900  0.66863900  0.04381100  1
  H  47  1  0.66803500  0.31578100  0.96745700  1
  H  56  1  0.69541500  0.34316300  0.04373900  1
  H  57  1  0.60940800  0.26076900  0.00591600  1
  H  58  1  0.75042500  0.40179300  0.00527500  1
  H  59  1  0.66866200  0.31540800  0.04380600  1
  H  60  1  0.69578400  0.34253900  0.96738600  1
  H  67  1  0.34315800  0.69543200  0.96747100  1
  H  76  1  0.31575500  0.66807600  0.04375500  1
  H  77  1  0.40176100  0.75047100  0.00593800  1
  H  78  1  0.26074500  0.60944100  0.00531100  1
  H  79  1  0.34252900  0.69580600  0.04382400  1
  H  80  1  0.31542300  0.66865500  0.96740300  1
  H  87  1  0.04373300  0.34314800  0.31577200  1
  H  96  1  0.96745300  0.31577700  0.34317400  1
  H  97  1  0.00526800  0.40177500  0.26076300  1
  H  98  1  0.00593400  0.26075100  0.40178100  1
  H  99  1  0.96738300  0.34252300  0.31540500  1
  H  100  1  0.04380500  0.31539000  0.34251400  1
  H  107  1  0.04374100  0.66804800  0.69542300  1
  H  116  1  0.96745700  0.69544800  0.66806700  1
  H  117  1  0.00527500  0.60943700  0.75045400  1
  H  118  1  0.00589500  0.75046000  0.60943200  1
  H  119  1  0.96739000  0.66866800  0.69578900  1
  H  120  1  0.04380900  0.69577500  0.66863900  1
  H  127  1  0.96746200  0.66805700  0.31576800  1
  H  136  1  0.04374400  0.69541700  0.34316800  1
  H  137  1  0.00591200  0.60943000  0.26075100  1
  H  138  1  0.00526800  0.75044000  0.40178200  1
  H  139  1  0.04381100  0.66866900  0.31540100  1
  H  140  1  0.96739400  0.69580900  0.34251200  1
  H  147  1  0.96747300  0.34315400  0.69543500  1
  H  156  1  0.04375700  0.31575000  0.66808200  1
  H  157  1  0.00593700  0.40176100  0.75047100  1
  H  158  1  0.00531800  0.26074000  0.60944400  1
  H  159  1  0.04382500  0.34253000  0.69580600  1
  H  160  1  0.96740400  0.31542500  0.66865300  1
  H  167  1  0.31578400  0.04373100  0.34317400  1
  H  176  1  0.34318100  0.96745300  0.31579200  1
  H  177  1  0.26077800  0.00525700  0.40179900  1
  H  178  1  0.40177900  0.00593500  0.26075600  1
  H  179  1  0.31540100  0.96738100  0.34252500  1
  H  180  1  0.34251600  0.04380400  0.31539900  1
  H  187  1  0.69541300  0.04374800  0.66804600  1
  H  196  1  0.66805700  0.96746200  0.69544400  1
  H  197  1  0.75045100  0.00528000  0.60944100  1
  H  198  1  0.60942300  0.00590600  0.75045800  1
  H  199  1  0.69578900  0.96739500  0.66867700  1
  H  200  1  0.66863900  0.04381500  0.69578400  1
  H  207  1  0.31578600  0.96745500  0.66803900  1
  H  216  1  0.34316700  0.04374000  0.69541700  1
  H  217  1  0.26077100  0.00591300  0.60941200  1
  H  218  1  0.40179700  0.00528000  0.75042900  1
  H  219  1  0.31540800  0.04380500  0.66866600  1
  H  220  1  0.34254300  0.96738800  0.69578900  1
  H  227  1  0.69543200  0.96747300  0.34315800  1
  H  236  1  0.66807600  0.04375800  0.31575400  1
  H  237  1  0.75046900  0.00593900  0.40176100  1
  H  238  1  0.60944200  0.00531800  0.26074200  1
  H  239  1  0.69580600  0.04382600  0.34252900  1
  H  240  1  0.66865300  0.96740600  0.31542300  1
  H  247  1  0.84179500  0.81435500  0.54358200  1
  H  256  1  0.81434600  0.84180200  0.46761200  1
  H  257  1  0.90563500  0.76511100  0.50533600  1
  H  258  1  0.76507600  0.90562600  0.50585600  1
  H  259  1  0.84155500  0.81435700  0.46752500  1
  H  260  1  0.81434600  0.84156200  0.54367300  1
  H  267  1  0.16939600  0.19683400  0.54358800  1
  H  276  1  0.19686100  0.16939800  0.46761900  1
  H  277  1  0.10558200  0.24610500  0.50532700  1
  H  278  1  0.24615000  0.10559600  0.50586600  1
  H  279  1  0.16965900  0.19685000  0.46752900  1
  H  280  1  0.19685400  0.16963800  0.54368000  1
  H  287  1  0.16940700  0.81433500  0.46761900  1
  H  296  1  0.19685500  0.84179200  0.54358800  1
  H  297  1  0.10560000  0.76505800  0.50587600  1
  H  298  1  0.24613400  0.90559800  0.50532300  1
  H  299  1  0.16967400  0.81431900  0.54367800  1
  H  300  1  0.19687200  0.84152400  0.46752700  1
  H  307  1  0.84180200  0.19685700  0.46763300  1
  H  316  1  0.81433200  0.16943000  0.54360200  1
  H  317  1  0.90558900  0.24616300  0.50589400  1
  H  318  1  0.76506400  0.10560700  0.50536500  1
  H  319  1  0.84153000  0.19688400  0.54369300  1
  H  320  1  0.81434800  0.16965700  0.46754300  1
  H  327  1  0.54357500  0.84179700  0.81435000  1
  H  336  1  0.46760600  0.81434300  0.84179700  1
  H  337  1  0.50531400  0.90561300  0.76508400  1
  H  338  1  0.50585800  0.76507400  0.90561800  1
  H  339  1  0.46751800  0.84153300  0.81433400  1
  H  340  1  0.54366700  0.81433700  0.84154600  1
  H  347  1  0.54358100  0.16939600  0.19683700  1
  H  356  1  0.46761400  0.19686400  0.16940300  1
  H  357  1  0.50531600  0.10558900  0.24611600  1
  H  358  1  0.50586000  0.24615200  0.10560000  1
  H  359  1  0.46752100  0.16966700  0.19685900  1
  H  360  1  0.54367300  0.19685500  0.16964300  1
  H  367  1  0.46761200  0.16941100  0.81433700  1
  H  376  1  0.54358100  0.19685900  0.84179200  1
  H  377  1  0.50586700  0.10560500  0.76506000  1
  H  378  1  0.50532000  0.24613800  0.90560200  1
  H  379  1  0.54367100  0.16967600  0.81432100  1
  H  380  1  0.46752000  0.19687300  0.84153000  1
  H  387  1  0.46763200  0.84180200  0.19685700  1
  H  396  1  0.54360200  0.81433200  0.16942900  1
  H  397  1  0.50589400  0.90558900  0.24616100  1
  H  398  1  0.50536300  0.76506500  0.10560600  1
  H  399  1  0.54369300  0.84153100  0.19688200  1
  H  400  1  0.46754100  0.81435000  0.16965600  1
  H  407  1  0.81435000  0.54357300  0.84179900  1
  H  416  1  0.84179700  0.46760500  0.81434400  1
  H  417  1  0.76508000  0.50531200  0.90561300  1
  H  418  1  0.90561600  0.50585600  0.76507600  1
  H  419  1  0.81433400  0.46751600  0.84153300  1
  H  420  1  0.84154400  0.54366600  0.81433700  1
  H  427  1  0.19683500  0.54358200  0.16938600  1
  H  436  1  0.16939200  0.46761700  0.19685400  1
  H  437  1  0.24613200  0.50530500  0.10559900  1
  H  438  1  0.10558800  0.50587600  0.24613200  1
  H  439  1  0.19686600  0.46752300  0.16967500  1
  H  440  1  0.16965200  0.54367600  0.19685700  1
  H  447  1  0.81434600  0.46761000  0.16939500  1
  H  456  1  0.84181300  0.54357500  0.19683700  1
  H  457  1  0.76506000  0.50587300  0.10559800  1
  H  458  1  0.90562600  0.50530000  0.24610500  1
  H  459  1  0.81432600  0.54366900  0.16967000  1
  H  460  1  0.84152600  0.46751600  0.19686600  1
  H  467  1  0.19685900  0.46763300  0.84179700  1
  H  476  1  0.16943000  0.54360400  0.81433000  1
  H  477  1  0.24616300  0.50589300  0.90558600  1
  H  478  1  0.10560600  0.50536700  0.76506400  1
  H  479  1  0.19688400  0.54369300  0.84153000  1
  H  480  1  0.16965600  0.46754300  0.81434600  1
  H  487  1  0.44474600  0.27954400  0.90340600  1
  H  488  1  0.47505500  0.26195600  0.87949200  1
  H  495  1  0.37396100  0.24771400  0.97485800  1
  H  496  1  0.38532100  0.31462400  0.94097800  1
  H  497  1  0.40594900  0.29483500  0.90891700  1
  H  498  1  0.40605700  0.21406500  0.90244300  1
  H  511  1  0.56643500  0.73167000  0.90343700  1
  H  512  1  0.53612700  0.74925400  0.87951900  1
  H  519  1  0.63726600  0.76350900  0.97484600  1
  H  520  1  0.62587000  0.69659400  0.94099800  1
  H  521  1  0.60522400  0.71637200  0.90894600  1
  H  522  1  0.60513200  0.79714300  0.90244800  1
  H  535  1  0.56645900  0.27953900  0.10779300  1
  H  536  1  0.53614500  0.26195100  0.13170000  1
  H  543  1  0.63724000  0.24770300  0.03633800  1
  H  544  1  0.62588100  0.31461300  0.07021800  1
  H  545  1  0.60525500  0.29482600  0.10228000  1
  H  546  1  0.60513700  0.21405500  0.10875300  1
  H  559  1  0.44476300  0.73167700  0.10778500  1
  H  560  1  0.47507600  0.74926000  0.13169500  1
  H  567  1  0.37393600  0.76352900  0.03637000  1
  H  568  1  0.38532800  0.69661000  0.07021700  1
  H  569  1  0.40597600  0.71638700  0.10226900  1
  H  570  1  0.40607900  0.79716000  0.10876700  1
  H  583  1  0.90341100  0.44474100  0.27953000  1
  H  584  1  0.87950100  0.47505100  0.26193800  1
  H  591  1  0.97484700  0.37393900  0.24770100  1
  H  592  1  0.94097800  0.38531500  0.31461300  1
  H  593  1  0.90891700  0.40594500  0.29482600  1
  H  594  1  0.90243400  0.40604100  0.21405800  1
  H  607  1  0.90343500  0.56643300  0.73167000  1
  H  608  1  0.87951900  0.53612500  0.74925600  1
  H  615  1  0.97484600  0.63726400  0.76351100  1
  H  616  1  0.94099800  0.62586800  0.69659600  1
  H  617  1  0.90894600  0.60522200  0.71637400  1
  H  618  1  0.90244600  0.60513000  0.79714500  1
  H  631  1  0.10779100  0.56646400  0.27953100  1
  H  632  1  0.13169700  0.53614900  0.26194400  1
  H  639  1  0.03634200  0.63724900  0.24769200  1
  H  640  1  0.07021600  0.62588600  0.31460600  1
  H  641  1  0.10227800  0.60525800  0.29482000  1
  H  642  1  0.10875900  0.60514800  0.21404900  1
  H  655  1  0.10778400  0.44476400  0.73167500  1
  H  656  1  0.13169400  0.47507800  0.74925800  1
  H  663  1  0.03637000  0.37393800  0.76352700  1
  H  664  1  0.07021600  0.38532800  0.69660800  1
  H  665  1  0.10226900  0.40597700  0.71638500  1
  H  666  1  0.10876700  0.40608100  0.79715800  1
  H  679  1  0.27954000  0.90340200  0.44474600  1
  H  680  1  0.26195300  0.87949000  0.47505800  1
  H  687  1  0.24770700  0.97484400  0.37395400  1
  H  688  1  0.31461900  0.94096800  0.38531900  1
  H  689  1  0.29483100  0.90890800  0.40595000  1
  H  690  1  0.21406000  0.90243200  0.40605900  1
  H  703  1  0.73167200  0.90344200  0.56643900  1
  H  704  1  0.74926000  0.87952800  0.53612900  1
  H  711  1  0.76350900  0.97485300  0.63727100  1
  H  712  1  0.69659400  0.94100400  0.62587200  1
  H  713  1  0.71637400  0.90895300  0.60522600  1
  H  714  1  0.79714700  0.90245900  0.60513500  1
  H  727  1  0.27953900  0.10779100  0.56646400  1
  H  728  1  0.26195100  0.13169700  0.53615000  1
  H  735  1  0.24770500  0.03633400  0.63724400  1
  H  736  1  0.31461300  0.07021700  0.62588600  1
  H  737  1  0.29482600  0.10227900  0.60526000  1
  H  738  1  0.21405500  0.10874900  0.60514400  1
  H  751  1  0.73167700  0.10778500  0.44476300  1
  H  752  1  0.74926000  0.13169500  0.47507800  1
  H  759  1  0.76352700  0.03637100  0.37393800  1
  H  760  1  0.69660800  0.07021800  0.38532800  1
  H  761  1  0.71638700  0.10227000  0.40597600  1
  H  762  1  0.79715800  0.10876800  0.40607900  1
  H  775  1  0.27953500  0.44473700  0.10779900  1
  H  776  1  0.26195100  0.47504600  0.13171600  1
  H  783  1  0.24769600  0.37397400  0.03633500  1
  H  784  1  0.31460400  0.38531200  0.07022200  1
  H  785  1  0.29481800  0.40593600  0.10228600  1
  H  786  1  0.21404900  0.40606100  0.10875400  1
  H  799  1  0.73166100  0.56645000  0.10779600  1
  H  800  1  0.74925100  0.53614000  0.13170900  1
  H  807  1  0.76350400  0.63723700  0.03634500  1
  H  808  1  0.69658600  0.62587500  0.07021500  1
  H  809  1  0.71637200  0.60524700  0.10227900  1
  H  810  1  0.79714300  0.60513500  0.10875900  1
  H  823  1  0.27955700  0.56647300  0.90340800  1
  H  824  1  0.26197400  0.53616500  0.87948700  1
  H  831  1  0.24769900  0.63724400  0.97486500  1
  H  832  1  0.31461900  0.62589900  0.94099800  1
  H  833  1  0.29484000  0.60527100  0.90893100  1
  H  834  1  0.21406900  0.60514800  0.90244800  1
  H  847  1  0.73167000  0.44474100  0.90340400  1
  H  848  1  0.74926300  0.47505300  0.87949400  1
  H  855  1  0.76349500  0.37395700  0.97485800  1
  H  856  1  0.69658800  0.38531500  0.94097100  1
  H  857  1  0.71637900  0.40594300  0.90891100  1
  H  858  1  0.79715100  0.40605300  0.90244800  1
  H  871  1  0.44474300  0.90340600  0.73167400  1
  H  872  1  0.47505300  0.87949600  0.74926500  1
  H  879  1  0.37396500  0.97486200  0.76349800  1
  H  880  1  0.38531700  0.94097100  0.69659400  1
  H  881  1  0.40594100  0.90891100  0.71638700  1
  H  882  1  0.40605500  0.90244800  0.79715400  1
  H  895  1  0.56647300  0.90341000  0.27955500  1
  H  896  1  0.53616700  0.87948700  0.26197200  1
  H  903  1  0.63724200  0.97486900  0.24769600  1
  H  904  1  0.62589900  0.94100200  0.31461700  1
  H  905  1  0.60527300  0.90893300  0.29483800  1
  H  906  1  0.60514800  0.90244800  0.21406700  1
  H  919  1  0.56645000  0.10779900  0.73166100  1
  H  920  1  0.53613800  0.13171200  0.74924900  1
  H  927  1  0.63723300  0.03634900  0.76350700  1
  H  928  1  0.62587500  0.07021800  0.69659000  1
  H  929  1  0.60524700  0.10228300  0.71637400  1
  H  930  1  0.60513400  0.10876500  0.79714300  1
  H  943  1  0.44474800  0.10778300  0.27952600  1
  H  944  1  0.47505500  0.13170000  0.26194000  1
  H  951  1  0.37393800  0.03635100  0.24769000  1
  H  952  1  0.38532100  0.07021600  0.31460200  1
  H  953  1  0.40595900  0.10227000  0.29481800  1
  H  954  1  0.40606100  0.10875100  0.21404600  1
  H  967  1  0.90341000  0.27955500  0.56647300  1
  H  968  1  0.87948700  0.26197400  0.53616700  1
  H  975  1  0.97486900  0.24769600  0.63724400  1
  H  976  1  0.94100200  0.31461900  0.62589900  1
  H  977  1  0.90893300  0.29483800  0.60527300  1
  H  978  1  0.90244600  0.21406900  0.60515000  1
  H  991  1  0.90343500  0.73169500  0.44476800  1
  H  992  1  0.87952300  0.74928900  0.47507500  1
  H  999  1  0.97485500  0.76350700  0.37393200  1
  H  1000  1  0.94098600  0.69660300  0.38533900  1
  H  1001  1  0.90894200  0.71639400  0.40598500  1
  H  1002  1  0.90247200  0.79716900  0.40607000  1
  H  1015  1  0.10777200  0.27951500  0.44476300  1
  H  1016  1  0.13169100  0.26192900  0.47506700  1
  H  1023  1  0.03635100  0.24768900  0.37393800  1
  H  1024  1  0.07021400  0.31459700  0.38533300  1
  H  1025  1  0.10226200  0.29481100  0.40597700  1
  H  1026  1  0.10874100  0.21403800  0.40607100  1
  H  1039  1  0.10779300  0.73165900  0.56645500  1
  H  1040  1  0.13170800  0.74924500  0.53614500  1
  H  1047  1  0.03634300  0.76350400  0.63723700  1
  H  1048  1  0.07021200  0.69658600  0.62587900  1
  H  1049  1  0.10227700  0.71637000  0.60525300  1
  H  1050  1  0.10876100  0.79714000  0.60514100  1
  H  1063  1  0.56599400  0.73160100  0.10748300  1
  H  1064  1  0.53577600  0.74922400  0.13149300  1
  H  1071  1  0.63684600  0.76339400  0.03602100  1
  H  1072  1  0.62545400  0.69647400  0.06987900  1
  H  1073  1  0.60477800  0.71626400  0.10191100  1
  H  1074  1  0.60477800  0.79702600  0.10838100  1
  H  1087  1  0.44522200  0.27960600  0.10747200  1
  H  1088  1  0.47543800  0.26198200  0.13148000  1
  H  1095  1  0.37436800  0.24783000  0.03600500  1
  H  1096  1  0.38576500  0.31473800  0.06987600  1
  H  1097  1  0.40644200  0.29494100  0.10190300  1
  H  1098  1  0.40644400  0.21417700  0.10835400  1
  H  1111  1  0.44521600  0.73161200  0.90374400  1
  H  1112  1  0.47543800  0.74923300  0.87973800  1
  H  1119  1  0.37435000  0.76340800  0.97519100  1
  H  1120  1  0.38575300  0.69648500  0.94134200  1
  H  1121  1  0.40643100  0.71627300  0.90930900  1
  H  1122  1  0.40642600  0.79703100  0.90282800  1
  H  1135  1  0.56596500  0.27959600  0.90373100  1
  H  1136  1  0.53574700  0.26197200  0.87972500  1
  H  1143  1  0.63683200  0.24782100  0.97518500  1
  H  1144  1  0.62542200  0.31473200  0.94132400  1
  H  1145  1  0.60474500  0.29493800  0.90929500  1
  H  1146  1  0.60475400  0.21417600  0.90282900  1
  H  1159  1  0.10748300  0.56599800  0.73160100  1
  H  1160  1  0.13149300  0.53578000  0.74922200  1
  H  1167  1  0.03602000  0.63684800  0.76339700  1
  H  1168  1  0.06987800  0.62545800  0.69647600  1
  H  1169  1  0.10191200  0.60478300  0.71626600  1
  H  1170  1  0.10838200  0.60477900  0.79702800  1
  H  1183  1  0.10744900  0.44523800  0.27958900  1
  H  1184  1  0.13146100  0.47545200  0.26196700  1
  H  1191  1  0.03600300  0.37435500  0.24781300  1
  H  1192  1  0.06985800  0.38578000  0.31472500  1
  H  1193  1  0.10187900  0.40646500  0.29493200  1
  H  1194  1  0.10834100  0.40645300  0.21416700  1
  H  1207  1  0.90374400  0.44521400  0.73161200  1
  H  1208  1  0.87973800  0.47543400  0.74923400  1
  H  1215  1  0.97519100  0.37434800  0.76341000  1
  H  1216  1  0.94134200  0.38575100  0.69648500  1
  H  1217  1  0.90930900  0.40642900  0.71627300  1
  H  1218  1  0.90282800  0.40642400  0.79703300  1
  H  1231  1  0.90376400  0.56594000  0.27957500  1
  H  1232  1  0.87975400  0.53572700  0.26194900  1
  H  1239  1  0.97518000  0.63686400  0.24781100  1
  H  1240  1  0.94134300  0.62539600  0.31472300  1
  H  1241  1  0.90932900  0.60470200  0.29493100  1
  H  1242  1  0.90285300  0.60474300  0.21416300  1
  H  1255  1  0.73160000  0.10748500  0.56599600  1
  H  1256  1  0.74922200  0.13149400  0.53577800  1
  H  1263  1  0.76339200  0.03602500  0.63685200  1
  H  1264  1  0.69647300  0.06988300  0.62545600  1
  H  1265  1  0.71626200  0.10191500  0.60477900  1
  H  1266  1  0.79702400  0.10838400  0.60477900  1
  H  1279  1  0.27960200  0.10746500  0.44522700  1
  H  1280  1  0.26198000  0.13147600  0.47544300  1
  H  1287  1  0.24782400  0.03599000  0.37438600  1
  H  1288  1  0.31473200  0.06986700  0.38577200  1
  H  1289  1  0.29493600  0.10189600  0.40644400  1
  H  1290  1  0.21417200  0.10834500  0.40645100  1
  H  1303  1  0.73161400  0.90374600  0.44521600  1
  H  1304  1  0.74923400  0.87974200  0.47543800  1
  H  1311  1  0.76340800  0.97519100  0.37434800  1
  H  1312  1  0.69648500  0.94134300  0.38575300  1
  H  1313  1  0.71627300  0.90931100  0.40643300  1
  H  1314  1  0.79703300  0.90283100  0.40642600  1
  H  1327  1  0.27959600  0.90373000  0.56596900  1
  H  1328  1  0.26197100  0.87972400  0.53575100  1
  H  1335  1  0.24782400  0.97518300  0.63683900  1
  H  1336  1  0.31473600  0.94132200  0.62542400  1
  H  1337  1  0.29494000  0.90929500  0.60474900  1
  H  1338  1  0.21417600  0.90282900  0.60475900  1
  H  1351  1  0.73162800  0.56595600  0.90374800  1
  H  1352  1  0.74925200  0.53573600  0.87974200  1
  H  1359  1  0.76341000  0.63685900  0.97517400  1
  H  1360  1  0.69649300  0.62542200  0.94133400  1
  H  1361  1  0.71628200  0.60472500  0.90931800  1
  H  1362  1  0.79704700  0.60474700  0.90284400  1
  H  1375  1  0.27959800  0.44522300  0.90371700  1
  H  1376  1  0.26198000  0.47545100  0.87971800  1
  H  1383  1  0.24780200  0.37437300  0.97517800  1
  H  1384  1  0.31471800  0.38575800  0.94131300  1
  H  1385  1  0.29492700  0.40644000  0.90928400  1
  H  1386  1  0.21416500  0.40645600  0.90282200  1
  H  1399  1  0.73161200  0.44522300  0.10746800  1
  H  1400  1  0.74923800  0.47544500  0.13147100  1
  H  1407  1  0.76338800  0.37436600  0.03600500  1
  H  1408  1  0.69648000  0.38576000  0.06987900  1
  H  1409  1  0.71627600  0.40644000  0.10190400  1
  H  1410  1  0.79703800  0.40644400  0.10835200  1
  H  1423  1  0.27957700  0.56597400  0.10746100  1
  H  1424  1  0.26195400  0.53574900  0.13145900  1
  H  1431  1  0.24778800  0.63687500  0.03603700  1
  H  1432  1  0.31470500  0.62544300  0.06988000  1
  H  1433  1  0.29491800  0.60474700  0.10189700  1
  H  1434  1  0.21415200  0.60475900  0.10837300  1
  H  1447  1  0.56597300  0.10746200  0.27957100  1
  H  1448  1  0.53574700  0.13145900  0.26194700  1
  H  1455  1  0.63687900  0.03604300  0.24778600  1
  H  1456  1  0.62544200  0.06988300  0.31470400  1
  H  1457  1  0.60474500  0.10190000  0.29491600  1
  H  1458  1  0.60476300  0.10838000  0.21415200  1
  H  1471  1  0.44522300  0.10747600  0.73161000  1
  H  1472  1  0.47544300  0.13148100  0.74923400  1
  H  1479  1  0.37437000  0.03601000  0.76339200  1
  H  1480  1  0.38576000  0.06988200  0.69648000  1
  H  1481  1  0.40643800  0.10190800  0.71627500  1
  H  1482  1  0.40644600  0.10836100  0.79703700  1
  H  1495  1  0.44522900  0.90372200  0.27960000  1
  H  1496  1  0.47545200  0.87972000  0.26198000  1
  H  1503  1  0.37437700  0.97518700  0.24780400  1
  H  1504  1  0.38576500  0.94132400  0.31472000  1
  H  1505  1  0.40644600  0.90929600  0.29493100  1
  H  1506  1  0.40645800  0.90283300  0.21416800  1
  H  1519  1  0.56595600  0.90374900  0.73163000  1
  H  1520  1  0.53573800  0.87974300  0.74925400  1
  H  1527  1  0.63685500  0.97518000  0.76341300  1
  H  1528  1  0.62542200  0.94133800  0.69649600  1
  H  1529  1  0.60472700  0.90932000  0.71628400  1
  H  1530  1  0.60474700  0.90284400  0.79704900  1
  H  1543  1  0.10746800  0.73161000  0.44523100  1
  H  1544  1  0.13147400  0.74923300  0.47545100  1
  H  1551  1  0.03600800  0.76339500  0.37437300  1
  H  1552  1  0.06987600  0.69648300  0.38576200  1
  H  1553  1  0.10190200  0.71627600  0.40644600  1
  H  1554  1  0.10835700  0.79703800  0.40645300  1
  H  1567  1  0.10746100  0.27956600  0.56598000  1
  H  1568  1  0.13145700  0.26194000  0.53575300  1
  H  1575  1  0.03604100  0.24778400  0.63688400  1
  H  1576  1  0.06988200  0.31470000  0.62544700  1
  H  1577  1  0.10190100  0.29491200  0.60475200  1
  H  1578  1  0.10838100  0.21414900  0.60477400  1
  H  1591  1  0.90374900  0.73164100  0.56596400  1
  H  1592  1  0.87974700  0.74926900  0.53574400  1
  H  1599  1  0.97517300  0.76341300  0.63687000  1
  H  1600  1  0.94133100  0.69649800  0.62542900  1
  H  1601  1  0.90931300  0.71628900  0.60473400  1
  H  1602  1  0.90283700  0.79705300  0.60476500  1
  H  1615  1  0.90372200  0.27959600  0.44522500  1
  H  1616  1  0.87972000  0.26197800  0.47545100  1
  H  1623  1  0.97518900  0.24779500  0.37438000  1
  H  1624  1  0.94132400  0.31471300  0.38576000  1
  H  1625  1  0.90929600  0.29492300  0.40644200  1
  H  1626  1  0.90283500  0.21416100  0.40646000  1
  C  1  1  0.33978900  0.32086300  0.00556100  1
  C  2  1  0.34998800  0.31113000  0.02730000  1
  C  3  1  0.36965600  0.29469900  0.02772400  1
  C  4  1  0.38029400  0.28818900  0.00539600  1
  C  5  1  0.36938500  0.29459100  0.98316900  1
  C  6  1  0.34967300  0.31096400  0.98375100  1
  C  9  1  0.32085100  0.33979600  0.00562900  1
  C  10  1  0.31095000  0.34967700  0.02744000  1
  C  11  1  0.29457600  0.36938800  0.02802600  1
  C  12  1  0.28815500  0.38027600  0.00579500  1
  C  13  1  0.29467000  0.36965000  0.98346300  1
  C  14  1  0.31111600  0.34999300  0.98389000  1
  C  21  1  0.67141700  0.69034400  0.00556800  1
  C  22  1  0.66121700  0.70007800  0.02730600  1
  C  23  1  0.64156700  0.71653300  0.02772800  1
  C  24  1  0.63093600  0.72304700  0.00539800  1
  C  25  1  0.64184400  0.71664000  0.98317200  1
  C  26  1  0.66154300  0.70025200  0.98375600  1
  C  29  1  0.69035100  0.67140800  0.00563500  1
  C  30  1  0.70024500  0.66151700  0.02744500  1
  C  31  1  0.71663400  0.64181700  0.02802500  1
  C  32  1  0.72304900  0.63092300  0.00579200  1
  C  33  1  0.71654600  0.64157100  0.98346900  1
  C  34  1  0.70009600  0.66122300  0.98389500  1
  C  41  1  0.67140600  0.32085600  0.00563200  1
  C  42  1  0.66120700  0.31112300  0.98389300  1
  C  43  1  0.64153800  0.29469200  0.98347000  1
  C  44  1  0.63090200  0.28817800  0.00579800  1
  C  45  1  0.64181300  0.29458000  0.02802600  1
  C  46  1  0.66152500  0.31095700  0.02744200  1
  C  49  1  0.69034200  0.33979000  0.00556200  1
  C  50  1  0.70024100  0.34967100  0.98375100  1
  C  51  1  0.71661400  0.36938500  0.98316500  1
  C  52  1  0.72303400  0.38027400  0.00539400  1
  C  53  1  0.71652000  0.36964900  0.02772600  1
  C  54  1  0.70007500  0.34998900  0.02730200  1
  C  61  1  0.33978300  0.69036200  0.00564800  1
  C  62  1  0.34998200  0.70009500  0.98391000  1
  C  63  1  0.36963400  0.71654700  0.98348900  1
  C  64  1  0.38026400  0.72306300  0.00581800  1
  C  65  1  0.36935600  0.71665600  0.02804400  1
  C  66  1  0.34965700  0.70026800  0.02745900  1
  C  69  1  0.32084900  0.67142600  0.00557900  1
  C  70  1  0.31095700  0.66153400  0.98376900  1
  C  71  1  0.29456700  0.64183300  0.98318800  1
  C  72  1  0.28815100  0.63094000  0.00542100  1
  C  73  1  0.29465200  0.64158900  0.02774500  1
  C  74  1  0.31110100  0.66124300  0.02731900  1
  C  81  1  0.00555900  0.33977800  0.32085100  1
  C  82  1  0.02729600  0.34997700  0.31111600  1
  C  83  1  0.02771800  0.36964500  0.29468300  1
  C  84  1  0.00539100  0.38028200  0.28817300  1
  C  85  1  0.98316300  0.36937200  0.29457800  1
  C  86  1  0.98374700  0.34966100  0.31095300  1
  C  89  1  0.00562900  0.32084000  0.33978300  1
  C  90  1  0.02744200  0.31093300  0.34965300  1
  C  91  1  0.02803600  0.29456000  0.36936500  1
  C  92  1  0.00580900  0.28814400  0.38026400  1
  C  93  1  0.98347400  0.29466300  0.36964900  1
  C  94  1  0.98389200  0.31111000  0.34999100  1
  C  101  1  0.00556600  0.67141800  0.69034700  1
  C  102  1  0.02730500  0.66122100  0.70008400  1
  C  103  1  0.02772700  0.64156900  0.71653700  1
  C  104  1  0.00539800  0.63093600  0.72304900  1
  C  105  1  0.98317000  0.64184200  0.71664100  1
  C  106  1  0.98375400  0.66154300  0.70025400  1
  C  109  1  0.00563300  0.69035300  0.67141100  1
  C  110  1  0.02744200  0.70024500  0.66151700  1
  C  111  1  0.02802100  0.71663600  0.64182000  1
  C  112  1  0.00578700  0.72305200  0.63092900  1
  C  113  1  0.98346500  0.71654900  0.64157800  1
  C  114  1  0.98389200  0.70010200  0.66123200  1
  C  121  1  0.00563700  0.67142000  0.32084500  1
  C  122  1  0.98389900  0.66122600  0.31111000  1
  C  123  1  0.98347200  0.64156000  0.29467600  1
  C  124  1  0.00579700  0.63092000  0.28816400  1
  C  125  1  0.02802700  0.64182600  0.29456900  1
  C  126  1  0.02744700  0.66153500  0.31094800  1
  C  129  1  0.00556800  0.69035600  0.33977900  1
  C  130  1  0.98375600  0.70026300  0.34965200  1
  C  131  1  0.98316300  0.71663400  0.36936500  1
  C  132  1  0.00539100  0.72304900  0.38026500  1
  C  133  1  0.02772500  0.71652900  0.36964700  1
  C  134  1  0.02730600  0.70008400  0.34998900  1
  C  141  1  0.00564800  0.33978100  0.69036200  1
  C  142  1  0.98391000  0.34998000  0.70009600  1
  C  143  1  0.98348900  0.36963200  0.71654900  1
  C  144  1  0.00581800  0.38026400  0.72306300  1
  C  145  1  0.02804400  0.36935600  0.71665600  1
  C  146  1  0.02745900  0.34965700  0.70026800  1
  C  149  1  0.00558000  0.32084700  0.67142700  1
  C  150  1  0.98377200  0.31095500  0.66153400  1
  C  151  1  0.98319200  0.29456400  0.64183500  1
  C  152  1  0.00542700  0.28814700  0.63094300  1
  C  153  1  0.02774900  0.29464900  0.64159300  1
  C  154  1  0.02732200  0.31109800  0.66124600  1
  C  161  1  0.32085600  0.00555700  0.33979000  1
  C  162  1  0.31112700  0.02729300  0.34999700  1
  C  163  1  0.29469600  0.02771200  0.36966700  1
  C  164  1  0.28818300  0.00538300  0.38030000  1
  C  165  1  0.29458400  0.98315800  0.36938300  1
  C  166  1  0.31095500  0.98374500  0.34966800  1
  C  169  1  0.33978700  0.00562800  0.32085100  1
  C  170  1  0.34965500  0.02744200  0.31094400  1
  C  171  1  0.36936700  0.02803500  0.29457100  1
  C  172  1  0.38026500  0.00580800  0.28815100  1
  C  173  1  0.36965000  0.98347400  0.29467200  1
  C  174  1  0.34999700  0.98389200  0.31112300  1
  C  181  1  0.69034400  0.00557100  0.67142200  1
  C  182  1  0.70007700  0.02731100  0.66122100  1
  C  183  1  0.71653100  0.02773300  0.64157100  1
  C  184  1  0.72304500  0.00540300  0.63094000  1
  C  185  1  0.71663800  0.98317600  0.64184700  1
  C  186  1  0.70025000  0.98376100  0.66154800  1
  C  189  1  0.67140800  0.00563900  0.69035600  1
  C  190  1  0.66151600  0.02744900  0.70024800  1
  C  191  1  0.64181500  0.02802800  0.71663800  1
  C  192  1  0.63092200  0.00579500  0.72305200  1
  C  193  1  0.64156900  0.98347200  0.71654900  1
  C  194  1  0.66122300  0.98389900  0.70010000  1
  C  201  1  0.32086000  0.00563100  0.67140900  1
  C  202  1  0.31112700  0.98389300  0.66121000  1
  C  203  1  0.29469600  0.98346900  0.64154200  1
  C  204  1  0.28818000  0.00579600  0.63090700  1
  C  205  1  0.29458400  0.02802500  0.64181900  1
  C  206  1  0.31095900  0.02744100  0.66152800  1
  C  209  1  0.33979400  0.00556400  0.69034700  1
  C  210  1  0.34967500  0.98375200  0.70024600  1
  C  211  1  0.36938700  0.98316700  0.71662000  1
  C  212  1  0.38027800  0.00539800  0.72303800  1
  C  213  1  0.36965000  0.02772800  0.71652200  1
  C  214  1  0.34999300  0.02730400  0.70007800  1
  C  221  1  0.69036000  0.00565000  0.33978100  1
  C  222  1  0.70009500  0.98391100  0.34998200  1
  C  223  1  0.71654700  0.98348900  0.36963200  1
  C  224  1  0.72306300  0.00582000  0.38026400  1
  C  225  1  0.71665600  0.02804600  0.36935600  1
  C  226  1  0.70026800  0.02746100  0.34965700  1
  C  229  1  0.67142600  0.00558200  0.32084700  1
  C  230  1  0.66153200  0.98377200  0.31095500  1
  C  231  1  0.64183300  0.98319200  0.29456400  1
  C  232  1  0.63094200  0.00542700  0.28814700  1
  C  233  1  0.64158900  0.02774900  0.29465000  1
  C  234  1  0.66124300  0.02732300  0.31110000  1
  C  241  1  0.83884400  0.81992000  0.50556400  1
  C  242  1  0.84930700  0.81045800  0.52725800  1
  C  243  1  0.87022200  0.79560200  0.52778600  1
  C  244  1  0.88147700  0.79019700  0.50543000  1
  C  245  1  0.87009000  0.79561600  0.48314500  1
  C  246  1  0.84917700  0.81046700  0.48380100  1
  C  249  1  0.81990400  0.83884900  0.50563200  1
  C  250  1  0.81044800  0.84917800  0.52739500  1
  C  251  1  0.79558700  0.87008700  0.52805700  1
  C  252  1  0.79014700  0.88145100  0.50576600  1
  C  253  1  0.79556700  0.87021300  0.48340700  1
  C  254  1  0.81043900  0.84930900  0.48393600  1
  C  261  1  0.17235600  0.19127600  0.50556900  1
  C  262  1  0.16189300  0.20074100  0.52726300  1
  C  263  1  0.14098800  0.21561300  0.52778600  1
  C  264  1  0.12974500  0.22102400  0.50542600  1
  C  265  1  0.14113100  0.21560400  0.48314300  1
  C  266  1  0.16203700  0.20073900  0.48380400  1
  C  269  1  0.19129400  0.17234600  0.50563800  1
  C  270  1  0.20075400  0.16202300  0.52740300  1
  C  271  1  0.21562500  0.14112100  0.52806200  1
  C  272  1  0.22105800  0.12974700  0.50577300  1
  C  273  1  0.21564900  0.14099500  0.48341800  1
  C  274  1  0.20076700  0.16189200  0.48394400  1
  C  281  1  0.17237200  0.81989100  0.50563800  1
  C  282  1  0.16190300  0.81043000  0.48394500  1
  C  283  1  0.14099300  0.79556700  0.48342300  1
  C  284  1  0.12974800  0.79015400  0.50578100  1
  C  285  1  0.14113800  0.79557300  0.52806600  1
  C  286  1  0.16204900  0.81043000  0.52740300  1
  C  289  1  0.19130700  0.83882200  0.50556700  1
  C  290  1  0.20076500  0.84914600  0.48380100  1
  C  291  1  0.21562300  0.87005600  0.48313600  1
  C  292  1  0.22106000  0.88142800  0.50542300  1
  C  293  1  0.21564000  0.87019500  0.52778600  1
  C  294  1  0.20076800  0.84929100  0.52726200  1
  C  301  1  0.83883600  0.19130700  0.50565400  1
  C  302  1  0.84930100  0.20077200  0.48396000  1
  C  303  1  0.87020000  0.21564900  0.48343600  1
  C  304  1  0.88143700  0.22107100  0.50579700  1
  C  305  1  0.87005200  0.21564900  0.52808000  1
  C  306  1  0.84915100  0.20077700  0.52741700  1
  C  309  1  0.81990400  0.17237200  0.50558400  1
  C  310  1  0.81044800  0.16204300  0.48382100  1
  C  311  1  0.79558200  0.14113800  0.48316300  1
  C  312  1  0.79014900  0.12976600  0.50545300  1
  C  313  1  0.79555300  0.14101900  0.52780700  1
  C  314  1  0.81043000  0.16192000  0.52728000  1
  C  321  1  0.50555600  0.83883300  0.81990600  1
  C  322  1  0.52724900  0.84930300  0.81044800  1
  C  323  1  0.52777300  0.87021500  0.79558700  1
  C  324  1  0.50541500  0.88146200  0.79017600  1
  C  325  1  0.48313000  0.87007000  0.79559300  1
  C  326  1  0.48379200  0.84915700  0.81044800  1
  C  329  1  0.50562700  0.81989700  0.83883600  1
  C  330  1  0.52739200  0.81044000  0.84916400  1
  C  331  1  0.52805300  0.79558200  0.87007400  1
  C  332  1  0.50576400  0.79014500  0.88144200  1
  C  333  1  0.48340500  0.79556400  0.87020600  1
  C  334  1  0.48393300  0.81043300  0.84930100  1
  C  341  1  0.50556200  0.17235900  0.19128300  1
  C  342  1  0.52725400  0.16189400  0.20074700  1
  C  343  1  0.52777800  0.14099000  0.21562000  1
  C  344  1  0.50541700  0.12975100  0.22103300  1
  C  345  1  0.48313400  0.14113800  0.21561400  1
  C  346  1  0.48379500  0.16204200  0.20074800  1
  C  349  1  0.50563200  0.19129600  0.17235100  1
  C  350  1  0.52739700  0.20075600  0.16202800  1
  C  351  1  0.52805700  0.21562700  0.14112500  1
  C  352  1  0.50576800  0.22106000  0.12975100  1
  C  353  1  0.48341200  0.21565100  0.14099900  1
  C  354  1  0.48393800  0.20077000  0.16189700  1
  C  361  1  0.50563100  0.17237600  0.81989300  1
  C  362  1  0.48393800  0.16190700  0.81043300  1
  C  363  1  0.48341600  0.14099700  0.79556900  1
  C  364  1  0.50577300  0.12975100  0.79015600  1
  C  365  1  0.52805700  0.14114100  0.79557600  1
  C  366  1  0.52739500  0.16205200  0.81043300  1
  C  369  1  0.50556000  0.19131000  0.83882600  1
  C  370  1  0.48379500  0.20076700  0.84915100  1
  C  371  1  0.48313000  0.21562700  0.87005900  1
  C  372  1  0.50541900  0.22106400  0.88143000  1
  C  373  1  0.52778000  0.21564100  0.87019900  1
  C  374  1  0.52725400  0.20077000  0.84929200  1
  C  381  1  0.50565200  0.83883800  0.19130700  1
  C  382  1  0.48395800  0.84930100  0.20077200  1
  C  383  1  0.48343600  0.87020000  0.21565100  1
  C  384  1  0.50579700  0.88143900  0.22107100  1
  C  385  1  0.52808000  0.87005400  0.21564700  1
  C  386  1  0.52741700  0.84915300  0.20077600  1
  C  389  1  0.50558400  0.81990600  0.17237100  1
  C  390  1  0.48381900  0.81044800  0.16204300  1
  C  391  1  0.48316100  0.79558300  0.14113700  1
  C  392  1  0.50545200  0.79015000  0.12976500  1
  C  393  1  0.52780600  0.79555500  0.14101800  1
  C  394  1  0.52727800  0.81043100  0.16191900  1
  C  401  1  0.81990600  0.50555500  0.83883500  1
  C  402  1  0.81044600  0.52724700  0.84930500  1
  C  403  1  0.79558500  0.52777100  0.87021500  1
  C  404  1  0.79017400  0.50541400  0.88146200  1
  C  405  1  0.79559100  0.48313000  0.87007000  1
  C  406  1  0.81044600  0.48379200  0.84915900  1
  C  409  1  0.83883600  0.50562500  0.81989900  1
  C  410  1  0.84916400  0.52739000  0.81044200  1
  C  411  1  0.87007400  0.52805100  0.79558300  1
  C  412  1  0.88144100  0.50576200  0.79014700  1
  C  413  1  0.87020600  0.48340300  0.79556500  1
  C  414  1  0.84930000  0.48393100  0.81043500  1
  C  421  1  0.19128500  0.50556200  0.17235800  1
  C  422  1  0.20074800  0.52725400  0.16189000  1
  C  423  1  0.21562500  0.52777500  0.14098900  1
  C  424  1  0.22104400  0.50541200  0.12975500  1
  C  425  1  0.21562300  0.48313000  0.14114500  1
  C  426  1  0.20075600  0.48379500  0.16204800  1
  C  429  1  0.17235100  0.50563600  0.19129000  1
  C  430  1  0.16203100  0.52740300  0.20075200  1
  C  431  1  0.14112600  0.52806400  0.21561800  1
  C  432  1  0.12974500  0.50577900  0.22104600  1
  C  433  1  0.14098900  0.48342100  0.21563600  1
  C  434  1  0.16189000  0.48394400  0.20076100  1
  C  441  1  0.81990000  0.50562900  0.17236300  1
  C  442  1  0.81043900  0.48393800  0.16189300  1
  C  443  1  0.79557300  0.48341600  0.14098600  1
  C  444  1  0.79015800  0.50577500  0.12974200  1
  C  445  1  0.79557800  0.52805900  0.14113400  1
  C  446  1  0.81043900  0.52739500  0.16204300  1
  C  449  1  0.83883500  0.50555600  0.19129600  1
  C  450  1  0.84915500  0.48378800  0.20075400  1
  C  451  1  0.87006700  0.48312100  0.21560900  1
  C  452  1  0.88144600  0.50540500  0.22103800  1
  C  453  1  0.87021800  0.52776900  0.21561800  1
  C  454  1  0.84931000  0.52724900  0.20075000  1
  C  461  1  0.19130800  0.50565400  0.83883500  1
  C  462  1  0.20077200  0.48396000  0.84929800  1
  C  463  1  0.21565100  0.48343600  0.87019700  1
  C  464  1  0.22107100  0.50579500  0.88143500  1
  C  465  1  0.21564900  0.52808000  0.87005000  1
  C  466  1  0.20077700  0.52741700  0.84915100  1
  C  469  1  0.17237200  0.50558500  0.81990200  1
  C  470  1  0.16204300  0.48382100  0.81044600  1
  C  471  1  0.14113700  0.48316300  0.79558200  1
  C  472  1  0.12976500  0.50545300  0.79014900  1
  C  473  1  0.14101900  0.52780700  0.79555300  1
  C  474  1  0.16192000  0.52728000  0.81042800  1
  C  481  1  0.46114300  0.22613700  0.87951200  1
  C  482  1  0.44028000  0.21265600  0.88601000  1
  C  483  1  0.42092800  0.22422500  0.89843400  1
  C  484  1  0.42207400  0.24860000  0.90646800  1
  C  485  1  0.44234800  0.26194400  0.89831800  1
  C  486  1  0.46076500  0.25128000  0.88443200  1
  C  489  1  0.40494200  0.25916200  0.92343200  1
  C  490  1  0.39482800  0.24584500  0.94310200  1
  C  491  1  0.38057300  0.25774300  0.96076600  1
  C  492  1  0.37785400  0.28315200  0.96137500  1
  C  493  1  0.38672900  0.29618500  0.94136200  1
  C  494  1  0.39950700  0.28433400  0.92269300  1
  C  505  1  0.55004000  0.78507300  0.87952800  1
  C  506  1  0.57090700  0.79855300  0.88602100  1
  C  507  1  0.59025900  0.78698600  0.89844500  1
  C  508  1  0.58911100  0.76261100  0.90648800  1
  C  509  1  0.56883600  0.74926900  0.89834300  1
  C  510  1  0.55041800  0.75993100  0.88445700  1
  C  513  1  0.60624900  0.75205200  0.92344800  1
  C  514  1  0.61637400  0.76537500  0.94310700  1
  C  515  1  0.63064200  0.75347600  0.96076200  1
  C  516  1  0.63337600  0.72806800  0.96137300  1
  C  517  1  0.62446600  0.71503300  0.94137800  1
  C  518  1  0.61167600  0.72687900  0.92271300  1
  C  529  1  0.55004400  0.22612800  0.13166400  1
  C  530  1  0.57091000  0.21264500  0.12517800  1
  C  531  1  0.59026600  0.22421400  0.11275900  1
  C  532  1  0.58912500  0.24859000  0.10472600  1
  C  533  1  0.56885200  0.26193600  0.11287800  1
  C  534  1  0.55043100  0.25127400  0.12675800  1
  C  537  1  0.60626000  0.25915100  0.08776300  1
  C  538  1  0.61637400  0.24583400  0.06809400  1
  C  539  1  0.63062900  0.25773400  0.05043000  1
  C  540  1  0.63334700  0.28314300  0.04982000  1
  C  541  1  0.62447300  0.29617400  0.06983400  1
  C  542  1  0.61169400  0.28432300  0.08850400  1
  C  553  1  0.46117400  0.78508200  0.13167100  1
  C  554  1  0.44030600  0.79856600  0.12518900  1
  C  555  1  0.42095200  0.78700000  0.11276900  1
  C  556  1  0.42209400  0.76262500  0.10472900  1
  C  557  1  0.44236800  0.74927800  0.11287400  1
  C  558  1  0.46078900  0.75994000  0.12675700  1
  C  561  1  0.40495300  0.75206700  0.08776900  1
  C  562  1  0.39482800  0.76538700  0.06811000  1
  C  563  1  0.38055800  0.75349300  0.05045400  1
  C  564  1  0.37782400  0.72808600  0.04984300  1
  C  565  1  0.38673200  0.71504900  0.06983800  1
  C  566  1  0.39952300  0.72689300  0.08850400  1
  C  577  1  0.87951400  0.46113400  0.22612300  1
  C  578  1  0.88600600  0.44026600  0.21264300  1
  C  579  1  0.89842700  0.42091400  0.22421400  1
  C  580  1  0.90646600  0.42206300  0.24858900  1
  C  581  1  0.89832000  0.44234100  0.26193100  1
  C  582  1  0.88443700  0.46075800  0.25126500  1
  C  585  1  0.92342800  0.40492900  0.25915100  1
  C  586  1  0.94309300  0.39481000  0.24583100  1
  C  587  1  0.96075700  0.38055600  0.25773200  1
  C  588  1  0.96137000  0.37784000  0.28314100  1
  C  589  1  0.94136000  0.38672000  0.29617400  1
  C  590  1  0.92268900  0.39950000  0.28432500  1
  C  601  1  0.87952800  0.55003800  0.78507300  1
  C  602  1  0.88602100  0.57090500  0.79855500  1
  C  603  1  0.89844300  0.59025700  0.78698700  1
  C  604  1  0.90648600  0.58910900  0.76261300  1
  C  605  1  0.89834200  0.56883200  0.74927100  1
  C  606  1  0.88445500  0.55041400  0.75993200  1
  C  609  1  0.92344700  0.60624700  0.75205400  1
  C  610  1  0.94310700  0.61637200  0.76537600  1
  C  611  1  0.96076200  0.63064000  0.75347800  1
  C  612  1  0.96137300  0.63337300  0.72807000  1
  C  613  1  0.94137800  0.62446400  0.71503500  1
  C  614  1  0.92271300  0.61167500  0.72688000  1
  C  625  1  0.13166700  0.55005300  0.22612100  1
  C  626  1  0.12518300  0.57092100  0.21263900  1
  C  627  1  0.11276400  0.59027500  0.22420900  1
  C  628  1  0.10472900  0.58913300  0.24858500  1
  C  629  1  0.11287800  0.56885900  0.26193100  1
  C  630  1  0.12675900  0.55043800  0.25126700  1
  C  633  1  0.08776500  0.60626700  0.25914600  1
  C  634  1  0.06809700  0.61638100  0.24582700  1
  C  635  1  0.05043200  0.63063600  0.25772500  1
  C  636  1  0.04982100  0.63335400  0.28313400  1
  C  637  1  0.06983200  0.62447800  0.29616700  1
  C  638  1  0.08850300  0.61170000  0.28431700  1
  C  649  1  0.13167000  0.46117700  0.78508100  1
  C  650  1  0.12518900  0.44030900  0.79856400  1
  C  651  1  0.11276900  0.42095400  0.78699800  1
  C  652  1  0.10472800  0.42209600  0.76262400  1
  C  653  1  0.11287300  0.44237000  0.74927600  1
  C  654  1  0.12675600  0.46079100  0.75993800  1
  C  657  1  0.08776900  0.40495400  0.75206500  1
  C  658  1  0.06810900  0.39482900  0.76538700  1
  C  659  1  0.05045300  0.38056000  0.75349300  1
  C  660  1  0.04984200  0.37782500  0.72808400  1
  C  661  1  0.06983700  0.38673400  0.71504900  1
  C  662  1  0.08850300  0.39952500  0.72689300  1
  C  673  1  0.22613300  0.87950700  0.46114900  1
  C  674  1  0.21265200  0.88600300  0.44028400  1
  C  675  1  0.22421900  0.89842300  0.42093200  1
  C  676  1  0.24859600  0.90646100  0.42207600  1
  C  677  1  0.26194000  0.89831300  0.44235000  1
  C  678  1  0.25127600  0.88442800  0.46076900  1
  C  681  1  0.25915700  0.92342300  0.40494000  1
  C  682  1  0.24583800  0.94308900  0.39482400  1
  C  683  1  0.25773800  0.96075300  0.38056700  1
  C  684  1  0.28314600  0.96136200  0.37784700  1
  C  685  1  0.29617800  0.94135100  0.38672700  1
  C  686  1  0.28432800  0.92268200  0.39950500  1
  C  697  1  0.78507700  0.87954100  0.55004200  1
  C  698  1  0.79855700  0.88603300  0.57090900  1
  C  699  1  0.78698900  0.89845600  0.59026000  1
  C  700  1  0.76261500  0.90649500  0.58911500  1
  C  701  1  0.74927200  0.89835100  0.56883700  1
  C  702  1  0.75993600  0.88446600  0.55041800  1
  C  705  1  0.75205200  0.92345400  0.60625200  1
  C  706  1  0.76537300  0.94311500  0.61638100  1
  C  707  1  0.75347600  0.96076900  0.63064900  1
  C  708  1  0.72806800  0.96137900  0.63338200  1
  C  709  1  0.71503300  0.94138300  0.62446900  1
  C  710  1  0.72688000  0.92272000  0.61168000  1
  C  721  1  0.22612800  0.13166000  0.55004900  1
  C  722  1  0.21264500  0.12517400  0.57091800  1
  C  723  1  0.22421400  0.11275600  0.59027100  1
  C  724  1  0.24859200  0.10472400  0.58913100  1
  C  725  1  0.26193600  0.11287500  0.56885900  1
  C  726  1  0.25127300  0.12675500  0.55043600  1
  C  729  1  0.25915300  0.08776100  0.60626500  1
  C  730  1  0.24583600  0.06809100  0.61637700  1
  C  731  1  0.25773400  0.05042700  0.63063200  1
  C  732  1  0.28314300  0.04981800  0.63335100  1
  C  733  1  0.29617400  0.06983200  0.62447800  1
  C  734  1  0.28432500  0.08850300  0.61170000  1
  C  745  1  0.78508200  0.13167100  0.46117600  1
  C  746  1  0.79856600  0.12518900  0.44030700  1
  C  747  1  0.78699800  0.11276900  0.42095200  1
  C  748  1  0.76262400  0.10473000  0.42209400  1
  C  749  1  0.74927800  0.11287400  0.44237000  1
  C  750  1  0.75993800  0.12675700  0.46079100  1
  C  753  1  0.75206500  0.08777000  0.40495400  1
  C  754  1  0.76538700  0.06811000  0.39482800  1
  C  755  1  0.75349300  0.05045500  0.38055800  1
  C  756  1  0.72808400  0.04984400  0.37782400  1
  C  757  1  0.71504900  0.06983900  0.38673200  1
  C  758  1  0.72689300  0.08850400  0.39952300  1
  C  769  1  0.22613000  0.46114100  0.13169600  1
  C  770  1  0.21264500  0.44028000  0.12519200  1
  C  771  1  0.22421000  0.42093000  0.11276700  1
  C  772  1  0.24858700  0.42207200  0.10473300  1
  C  773  1  0.26193500  0.44234200  0.11288700  1
  C  774  1  0.25127300  0.46075800  0.12677500  1
  C  777  1  0.25914600  0.40494000  0.08776500  1
  C  778  1  0.24582500  0.39483700  0.06809100  1
  C  779  1  0.25772700  0.38058300  0.05042700  1
  C  780  1  0.28313400  0.37785800  0.04981800  1
  C  781  1  0.29616700  0.38672500  0.06983500  1
  C  782  1  0.28431600  0.39950200  0.08850700  1
  C  793  1  0.78507000  0.55004800  0.13168700  1
  C  794  1  0.79855300  0.57091200  0.12518900  1
  C  795  1  0.78698400  0.59026400  0.11276800  1
  C  796  1  0.76260700  0.58912000  0.10473300  1
  C  797  1  0.74926300  0.56884600  0.11288400  1
  C  798  1  0.75992700  0.55042900  0.12676900  1
  C  801  1  0.75204700  0.60625200  0.08776600  1
  C  802  1  0.76536700  0.61636500  0.06809800  1
  C  803  1  0.75347100  0.63062200  0.05043300  1
  C  804  1  0.72806200  0.63333500  0.04982000  1
  C  805  1  0.71502600  0.62446600  0.06983300  1
  C  806  1  0.72687500  0.61168700  0.08850400  1
  C  817  1  0.22615200  0.55006700  0.87950500  1
  C  818  1  0.21266600  0.57092800  0.88601000  1
  C  819  1  0.22423000  0.59027900  0.89843600  1
  C  820  1  0.24860700  0.58913800  0.90647100  1
  C  821  1  0.26195400  0.56886800  0.89831800  1
  C  822  1  0.25129400  0.55045100  0.88442800  1
  C  825  1  0.25916400  0.60626900  0.92344100  1
  C  826  1  0.24583800  0.61637700  0.94310900  1
  C  827  1  0.25773400  0.63063100  0.96077700  1
  C  828  1  0.28314300  0.63334900  0.96139300  1
  C  829  1  0.29618100  0.62448500  0.94138000  1
  C  830  1  0.28433600  0.61170700  0.92270500  1
  C  841  1  0.78508100  0.46114100  0.87951800  1
  C  842  1  0.79856200  0.44027700  0.88601700  1
  C  843  1  0.78699100  0.42092500  0.89843700  1
  C  844  1  0.76261500  0.42207100  0.90647000  1
  C  845  1  0.74927100  0.44234400  0.89831800  1
  C  846  1  0.75993800  0.46076200  0.88443600  1
  C  849  1  0.75205200  0.40493600  0.92343200  1
  C  850  1  0.76536900  0.39482400  0.94310200  1
  C  851  1  0.75346600  0.38057100  0.96076600  1
  C  852  1  0.72805700  0.37785100  0.96137300  1
  C  853  1  0.71502700  0.38672500  0.94135800  1
  C  854  1  0.72688000  0.39950200  0.92268900  1
  C  865  1  0.46114300  0.87951800  0.78508400  1
  C  866  1  0.44027800  0.88601700  0.79856600  1
  C  867  1  0.42092700  0.89843700  0.78699500  1
  C  868  1  0.42207200  0.90647000  0.76261800  1
  C  869  1  0.44234600  0.89832000  0.74927400  1
  C  870  1  0.46076400  0.88443600  0.75994000  1
  C  873  1  0.40494000  0.92343400  0.75205600  1
  C  874  1  0.39483100  0.94310700  0.76537500  1
  C  875  1  0.38057600  0.96076900  0.75347100  1
  C  876  1  0.37785400  0.96137500  0.72806200  1
  C  877  1  0.38672700  0.94136000  0.71503300  1
  C  878  1  0.39950300  0.92268900  0.72688600  1
  C  889  1  0.55006700  0.87950700  0.22615200  1
  C  890  1  0.57092800  0.88601000  0.21266600  1
  C  891  1  0.59028000  0.89843700  0.22423000  1
  C  892  1  0.58913800  0.90647300  0.24860700  1
  C  893  1  0.56886800  0.89832000  0.26195400  1
  C  894  1  0.55045200  0.88443000  0.25129400  1
  C  897  1  0.60626900  0.92344500  0.25916200  1
  C  898  1  0.61637600  0.94311300  0.24583800  1
  C  899  1  0.63063100  0.96078200  0.25773200  1
  C  900  1  0.63334900  0.96139700  0.28314100  1
  C  901  1  0.62448500  0.94138300  0.29617800  1
  C  902  1  0.61170700  0.92270900  0.28433400  1
  C  913  1  0.55004600  0.13169200  0.78506800  1
  C  914  1  0.57091000  0.12519500  0.79855100  1
  C  915  1  0.59026200  0.11277300  0.78698400  1
  C  916  1  0.58911800  0.10473700  0.76260700  1
  C  917  1  0.56884600  0.11288800  0.74926200  1
  C  918  1  0.55042700  0.12677200  0.75992500  1
  C  921  1  0.60625100  0.08777100  0.75204900  1
  C  922  1  0.61636300  0.06810300  0.76536900  1
  C  923  1  0.63061800  0.05043700  0.75347500  1
  C  924  1  0.63333300  0.04982400  0.72806400  1
  C  925  1  0.62446600  0.06983600  0.71502900  1
  C  926  1  0.61168700  0.08850800  0.72687700  1
  C  937  1  0.46114700  0.13168400  0.22612100  1
  C  938  1  0.44028400  0.12518400  0.21263800  1
  C  939  1  0.42093200  0.11275900  0.22420500  1
  C  940  1  0.42207600  0.10472300  0.24858100  1
  C  941  1  0.44235000  0.11287300  0.26192600  1
  C  942  1  0.46076700  0.12676000  0.25126200  1
  C  945  1  0.40494000  0.08776200  0.25914200  1
  C  946  1  0.39481900  0.06809700  0.24582500  1
  C  947  1  0.38055500  0.05043900  0.25772300  1
  C  948  1  0.37782000  0.04983300  0.28313000  1
  C  949  1  0.38672300  0.06983400  0.29616300  1
  C  950  1  0.39950900  0.08850000  0.28431400  1
  C  961  1  0.87950500  0.22615200  0.55006900  1
  C  962  1  0.88600800  0.21266600  0.57092800  1
  C  963  1  0.89843600  0.22423000  0.59028000  1
  C  964  1  0.90647300  0.24860700  0.58913800  1
  C  965  1  0.89832000  0.26195400  0.56886800  1
  C  966  1  0.88443000  0.25129400  0.55045200  1
  C  969  1  0.92344300  0.25916200  0.60626900  1
  C  970  1  0.94311300  0.24584000  0.61637600  1
  C  971  1  0.96078000  0.25773200  0.63063100  1
  C  972  1  0.96139700  0.28314100  0.63334900  1
  C  973  1  0.94138300  0.29617900  0.62448500  1
  C  974  1  0.92270900  0.28433400  0.61170700  1
  C  985  1  0.87954300  0.78510600  0.46115800  1
  C  986  1  0.88604200  0.79858400  0.44029300  1
  C  987  1  0.89846300  0.78701100  0.42094300  1
  C  988  1  0.90649700  0.76263400  0.42209000  1
  C  989  1  0.89834700  0.74929600  0.44236800  1
  C  990  1  0.88446300  0.75996300  0.46078300  1
  C  993  1  0.92345400  0.75206800  0.40495300  1
  C  994  1  0.94311800  0.76538200  0.39482600  1
  C  995  1  0.96076800  0.75347800  0.38055500  1
  C  996  1  0.96136400  0.72807000  0.37781400  1
  C  997  1  0.94137100  0.71504400  0.38673800  1
  C  998  1  0.92270900  0.72689500  0.39952900  1
  C  1009  1  0.13167600  0.22611000  0.46115600  1
  C  1010  1  0.12517500  0.21262900  0.44029300  1
  C  1011  1  0.11275000  0.22419800  0.42094300  1
  C  1012  1  0.10471300  0.24857200  0.42208900  1
  C  1013  1  0.11286200  0.26191600  0.44236200  1
  C  1014  1  0.12675100  0.25125300  0.46077800  1
  C  1017  1  0.08775300  0.25913500  0.40495100  1
  C  1018  1  0.06808900  0.24581600  0.39482900  1
  C  1019  1  0.05043800  0.25772000  0.38055800  1
  C  1020  1  0.04983800  0.28312600  0.37781400  1
  C  1021  1  0.06983100  0.29615800  0.38673400  1
  C  1022  1  0.08849400  0.28430800  0.39952300  1
  C  1033  1  0.13168900  0.78506400  0.55005500  1
  C  1034  1  0.12519200  0.79854800  0.57091800  1
  C  1035  1  0.11276900  0.78698000  0.59027000  1
  C  1036  1  0.10473200  0.76260400  0.58912500  1
  C  1037  1  0.11288300  0.74926000  0.56885200  1
  C  1038  1  0.12676900  0.75992200  0.55043400  1
  C  1041  1  0.08776400  0.75204500  0.60625600  1
  C  1042  1  0.06809600  0.76536900  0.61636500  1
  C  1043  1  0.05043100  0.75347100  0.63062000  1
  C  1044  1  0.04981700  0.72806100  0.63333500  1
  C  1045  1  0.06982900  0.71502600  0.62446900  1
  C  1046  1  0.08850200  0.72687300  0.61169100  1
  C  1057  1  0.54973100  0.78502600  0.13144700  1
  C  1058  1  0.57059600  0.79848100  0.12489400  1
  C  1059  1  0.58989700  0.78688800  0.11241700  1
  C  1060  1  0.58869700  0.76251700  0.10437800  1
  C  1061  1  0.56842300  0.74920000  0.11256700  1
  C  1062  1  0.55005800  0.75988500  0.12650500  1
  C  1065  1  0.60579200  0.75193500  0.08739000  1
  C  1066  1  0.61590600  0.76525000  0.06772100  1
  C  1067  1  0.63018200  0.75335000  0.05007700  1
  C  1068  1  0.63290600  0.72794000  0.04946800  1
  C  1069  1  0.62401600  0.71491000  0.06947600  1
  C  1070  1  0.61121700  0.72676100  0.08813200  1
  C  1081  1  0.46148600  0.22617700  0.13142700  1
  C  1082  1  0.44062400  0.21272300  0.12486900  1
  C  1083  1  0.42132200  0.22431500  0.11239300  1
  C  1084  1  0.42252100  0.24868800  0.10435900  1
  C  1085  1  0.44279300  0.26200700  0.11255200  1
  C  1086  1  0.46115800  0.25132000  0.12648900  1
  C  1089  1  0.40542400  0.25927400  0.08737500  1
  C  1090  1  0.39530700  0.24596100  0.06770600  1
  C  1091  1  0.38103200  0.25786800  0.05006400  1
  C  1092  1  0.37830400  0.28327800  0.04946000  1
  C  1093  1  0.38720000  0.29630200  0.06946900  1
  C  1094  1  0.40000000  0.28444800  0.08812200  1
  C  1105  1  0.46147700  0.78503400  0.87977800  1
  C  1106  1  0.44061100  0.79848800  0.88632200  1
  C  1107  1  0.42130800  0.78689500  0.89879500  1
  C  1108  1  0.42250800  0.76252600  0.90684000  1
  C  1109  1  0.44278500  0.74920900  0.89865600  1
  C  1110  1  0.46115200  0.75989400  0.88472100  1
  C  1113  1  0.40541200  0.75194500  0.92382600  1
  C  1114  1  0.39529400  0.76526200  0.94349100  1
  C  1115  1  0.38101700  0.75336400  0.96113600  1
  C  1116  1  0.37829500  0.72795400  0.96174700  1
  C  1117  1  0.38718800  0.71492100  0.94174300  1
  C  1118  1  0.39999000  0.72677000  0.92308700  1
  C  1129  1  0.54970600  0.22617100  0.87977100  1
  C  1130  1  0.57057200  0.21271700  0.88632100  1
  C  1131  1  0.58987400  0.22431200  0.89879500  1
  C  1132  1  0.58867200  0.24868400  0.90683500  1
  C  1133  1  0.56839600  0.26200000  0.89864700  1
  C  1134  1  0.55003100  0.25131200  0.88471200  1
  C  1137  1  0.60576800  0.25926900  0.92381900  1
  C  1138  1  0.61588900  0.24595700  0.94348500  1
  C  1139  1  0.63016400  0.25786100  0.96112700  1
  C  1140  1  0.63288800  0.28327100  0.96173500  1
  C  1141  1  0.62398800  0.29629700  0.94172800  1
  C  1142  1  0.61118800  0.28444200  0.92307400  1
  C  1153  1  0.13144800  0.54973500  0.78502500  1
  C  1154  1  0.12489500  0.57059800  0.79848100  1
  C  1155  1  0.11241800  0.58990100  0.78688800  1
  C  1156  1  0.10437800  0.58870100  0.76251700  1
  C  1157  1  0.11256800  0.56842700  0.74920000  1
  C  1158  1  0.12650600  0.55006200  0.75988500  1
  C  1161  1  0.08739000  0.60579500  0.75193600  1
  C  1162  1  0.06772100  0.61590800  0.76525200  1
  C  1163  1  0.05007600  0.63018400  0.75335300  1
  C  1164  1  0.04946700  0.63290800  0.72794300  1
  C  1165  1  0.06947500  0.62402100  0.71491200  1
  C  1166  1  0.08813100  0.61122100  0.72676300  1
  C  1177  1  0.13141300  0.46149700  0.22616400  1
  C  1178  1  0.12485600  0.44063300  0.21271000  1
  C  1179  1  0.11237800  0.42133300  0.22430300  1
  C  1180  1  0.10434100  0.42253300  0.24867500  1
  C  1181  1  0.11253100  0.44280700  0.26199100  1
  C  1182  1  0.12647100  0.46117000  0.25130500  1
  C  1185  1  0.08735900  0.40543500  0.25926100  1
  C  1186  1  0.06769300  0.39531000  0.24595000  1
  C  1187  1  0.05005800  0.38102600  0.25785300  1
  C  1188  1  0.04945700  0.37828400  0.28326400  1
  C  1189  1  0.06945400  0.38721100  0.29628800  1
  C  1190  1  0.08810300  0.40001700  0.28443500  1
  C  1201  1  0.87977600  0.46147600  0.78503500  1
  C  1202  1  0.88632200  0.44060900  0.79849000  1
  C  1203  1  0.89879500  0.42130600  0.78689700  1
  C  1204  1  0.90684000  0.42250600  0.76252600  1
  C  1205  1  0.89865600  0.44278300  0.74920900  1
  C  1206  1  0.88472100  0.46115000  0.75989600  1
  C  1209  1  0.92382600  0.40541000  0.75194500  1
  C  1210  1  0.94349100  0.39529200  0.76526200  1
  C  1211  1  0.96113600  0.38101500  0.75336400  1
  C  1212  1  0.96174700  0.37829300  0.72795600  1
  C  1213  1  0.94174300  0.38718600  0.71492300  1
  C  1214  1  0.92308700  0.39998800  0.72677200  1
  C  1225  1  0.87979600  0.54969300  0.22614800  1
  C  1226  1  0.88634600  0.57056200  0.21269900  1
  C  1227  1  0.89882200  0.58986100  0.22429500  1
  C  1228  1  0.90686400  0.58865600  0.24866600  1
  C  1229  1  0.89868000  0.56837500  0.26197800  1
  C  1230  1  0.88474100  0.55001100  0.25128900  1
  C  1233  1  0.92384100  0.60575500  0.25925600  1
  C  1234  1  0.94350000  0.61589500  0.24594600  1
  C  1235  1  0.96112900  0.63018400  0.25785200  1
  C  1236  1  0.96172700  0.63292600  0.28326200  1
  C  1237  1  0.94174500  0.62397400  0.29628600  1
  C  1238  1  0.92310000  0.61116300  0.28443300  1
  C  1249  1  0.78502500  0.13144900  0.54973300  1
  C  1250  1  0.79847900  0.12489600  0.57059800  1
  C  1251  1  0.78688600  0.11242000  0.58990100  1
  C  1252  1  0.76251500  0.10438100  0.58869900  1
  C  1253  1  0.74919800  0.11257000  0.56842500  1
  C  1254  1  0.75988400  0.12650700  0.55006000  1
  C  1257  1  0.75193300  0.08739400  0.60579500  1
  C  1258  1  0.76524800  0.06772600  0.61590900  1
  C  1259  1  0.75334800  0.05008100  0.63018600  1
  C  1260  1  0.72793800  0.04947200  0.63291000  1
  C  1261  1  0.71490800  0.06948000  0.62401900  1
  C  1262  1  0.72675900  0.08813600  0.61121900  1
  C  1273  1  0.22617500  0.13142200  0.46149200  1
  C  1274  1  0.21271900  0.12486300  0.44062900  1
  C  1275  1  0.22431200  0.11238600  0.42133000  1
  C  1276  1  0.24868400  0.10435100  0.42252800  1
  C  1277  1  0.26200300  0.11254600  0.44280000  1
  C  1278  1  0.25131600  0.12648500  0.46116300  1
  C  1281  1  0.25926900  0.08736400  0.40543300  1
  C  1282  1  0.24595500  0.06769100  0.39532500  1
  C  1283  1  0.25786400  0.05005000  0.38105000  1
  C  1284  1  0.28327300  0.04944600  0.37831900  1
  C  1285  1  0.29629700  0.06945800  0.38721100  1
  C  1286  1  0.28444200  0.08811300  0.40000800  1
  C  1297  1  0.78503700  0.87978100  0.46147900  1
  C  1298  1  0.79849000  0.88632600  0.44061100  1
  C  1299  1  0.78689700  0.89879900  0.42130800  1
  C  1300  1  0.76252600  0.90684200  0.42251000  1
  C  1301  1  0.74921100  0.89866000  0.44278700  1
  C  1302  1  0.75989600  0.88472500  0.46115400  1
  C  1305  1  0.75194500  0.92382800  0.40541200  1
  C  1306  1  0.76526200  0.94349200  0.39529200  1
  C  1307  1  0.75336300  0.96113600  0.38101500  1
  C  1308  1  0.72795400  0.96174900  0.37829500  1
  C  1309  1  0.71492100  0.94174500  0.38719000  1
  C  1310  1  0.72677000  0.92308900  0.39999000  1
  C  1321  1  0.22617000  0.87976900  0.54971100  1
  C  1322  1  0.21271700  0.88632100  0.57057800  1
  C  1323  1  0.22431200  0.89879500  0.58987900  1
  C  1324  1  0.24868400  0.90683500  0.58867700  1
  C  1325  1  0.26199800  0.89864700  0.56840000  1
  C  1326  1  0.25131100  0.88471000  0.55003500  1
  C  1329  1  0.25926900  0.92381700  0.60577300  1
  C  1330  1  0.24595900  0.94348500  0.61589500  1
  C  1331  1  0.25786400  0.96112600  0.63017000  1
  C  1332  1  0.28327300  0.96173300  0.63289400  1
  C  1333  1  0.29629900  0.94172700  0.62399200  1
  C  1334  1  0.28444400  0.92307400  0.61119200  1
  C  1345  1  0.78505400  0.54969500  0.87978900  1
  C  1346  1  0.79850600  0.57056300  0.88633900  1
  C  1347  1  0.78691200  0.58986500  0.89881200  1
  C  1348  1  0.76254100  0.58866300  0.90685100  1
  C  1349  1  0.74922500  0.56838500  0.89866500  1
  C  1350  1  0.75991300  0.55002000  0.88473000  1
  C  1353  1  0.75195500  0.60576400  0.92383000  1
  C  1354  1  0.76527000  0.61589700  0.94348900  1
  C  1355  1  0.75336600  0.63018400  0.96112200  1
  C  1356  1  0.72795800  0.63292400  0.96172700  1
  C  1357  1  0.71493000  0.62399200  0.94173600  1
  C  1358  1  0.72677900  0.61118100  0.92308900  1
  C  1369  1  0.22617100  0.46150800  0.87978000  1
  C  1370  1  0.21271300  0.44064200  0.88632100  1
  C  1371  1  0.22430400  0.42133500  0.89879000  1
  C  1372  1  0.24867700  0.42252800  0.90682600  1
  C  1373  1  0.26199800  0.44280000  0.89863800  1
  C  1374  1  0.25131400  0.46117000  0.88470700  1
  C  1377  1  0.25925800  0.40542800  0.92380800  1
  C  1378  1  0.24594400  0.39531400  0.94347800  1
  C  1379  1  0.25784400  0.38103500  0.96112000  1
  C  1380  1  0.28325300  0.37830200  0.96172600  1
  C  1381  1  0.29628100  0.38719700  0.94171800  1
  C  1382  1  0.28443100  0.40000000  0.92306500  1
  C  1393  1  0.78504300  0.46149200  0.13141300  1
  C  1394  1  0.79849700  0.44062700  0.12486000  1
  C  1395  1  0.78690300  0.42132400  0.11238900  1
  C  1396  1  0.76252800  0.42252200  0.10435600  1
  C  1397  1  0.74921100  0.44279600  0.11254700  1
  C  1398  1  0.75990000  0.46116300  0.12648000  1
  C  1401  1  0.75194200  0.40542400  0.08737500  1
  C  1402  1  0.76525300  0.39530800  0.06770400  1
  C  1403  1  0.75335000  0.38103000  0.05006400  1
  C  1404  1  0.72794000  0.37829900  0.04946200  1
  C  1405  1  0.71491500  0.38719700  0.06947100  1
  C  1406  1  0.72677000  0.39999900  0.08812300  1
  C  1417  1  0.22614800  0.54969900  0.13140400  1
  C  1418  1  0.21269500  0.57057100  0.12486900  1
  C  1419  1  0.22428800  0.58987600  0.11240100  1
  C  1420  1  0.24866100  0.58867700  0.10436000  1
  C  1421  1  0.26197800  0.56840000  0.11254300  1
  C  1422  1  0.25129100  0.55003100  0.12647300  1
  C  1425  1  0.25924300  0.60578200  0.08738400  1
  C  1426  1  0.24593000  0.61591300  0.06772300  1
  C  1427  1  0.25783200  0.63020200  0.05009000  1
  C  1428  1  0.28324000  0.63294400  0.04948700  1
  C  1429  1  0.29626800  0.62401200  0.06947800  1
  C  1430  1  0.28441900  0.61120100  0.08812600  1
  C  1441  1  0.54970200  0.13140800  0.22614400  1
  C  1442  1  0.57057400  0.12487500  0.21269200  1
  C  1443  1  0.58988100  0.11240700  0.22428600  1
  C  1444  1  0.58868100  0.10436500  0.24865700  1
  C  1445  1  0.56840200  0.11254500  0.26197200  1
  C  1446  1  0.55003100  0.12647500  0.25128500  1
  C  1449  1  0.60578400  0.08738800  0.25924200  1
  C  1450  1  0.61591700  0.06772800  0.24592800  1
  C  1451  1  0.63020600  0.05009500  0.25782800  1
  C  1452  1  0.63294600  0.04949100  0.28323800  1
  C  1453  1  0.62401200  0.06948200  0.29626600  1
  C  1454  1  0.61120100  0.08812900  0.28441700  1
  C  1465  1  0.46149000  0.13142600  0.78503900  1
  C  1466  1  0.44062500  0.12487200  0.79849300  1
  C  1467  1  0.42132400  0.11239900  0.78690100  1
  C  1468  1  0.42252200  0.10436500  0.76252600  1
  C  1469  1  0.44279600  0.11255600  0.74920900  1
  C  1470  1  0.46116100  0.12649100  0.75989600  1
  C  1473  1  0.40542600  0.08738100  0.75194200  1
  C  1474  1  0.39531000  0.06771000  0.76525300  1
  C  1475  1  0.38103300  0.05006900  0.75335200  1
  C  1476  1  0.37830200  0.04946500  0.72794100  1
  C  1477  1  0.38719700  0.06947400  0.71491500  1
  C  1478  1  0.39999900  0.08812700  0.72677000  1
  C  1489  1  0.46151000  0.87978300  0.22617100  1
  C  1490  1  0.44064200  0.88632600  0.21271500  1
  C  1491  1  0.42133700  0.89879900  0.22430600  1
  C  1492  1  0.42253300  0.90683500  0.24867900  1
  C  1493  1  0.44280500  0.89864400  0.26200000  1
  C  1494  1  0.46117400  0.88471000  0.25131400  1
  C  1497  1  0.40543500  0.92381900  0.25926100  1
  C  1498  1  0.39532100  0.94348900  0.24594600  1
  C  1499  1  0.38104300  0.96113100  0.25784800  1
  C  1500  1  0.37831000  0.96173800  0.28325600  1
  C  1501  1  0.38720400  0.94173000  0.29628400  1
  C  1502  1  0.40000800  0.92307600  0.28443300  1
  C  1513  1  0.54969700  0.87978900  0.78505500  1
  C  1514  1  0.57056300  0.88633700  0.79850800  1
  C  1515  1  0.58986600  0.89881200  0.78691300  1
  C  1516  1  0.58866500  0.90685100  0.76254200  1
  C  1517  1  0.56838700  0.89866500  0.74922700  1
  C  1518  1  0.55002200  0.88473000  0.75991400  1
  C  1521  1  0.60576400  0.92383200  0.75195800  1
  C  1522  1  0.61589500  0.94349200  0.76527100  1
  C  1523  1  0.63018200  0.96112600  0.75337000  1
  C  1524  1  0.63292400  0.96173100  0.72796100  1
  C  1525  1  0.62399200  0.94173900  0.71493300  1
  C  1526  1  0.61118100  0.92309000  0.72678300  1
  C  1537  1  0.13142100  0.78503700  0.46149700  1
  C  1538  1  0.12486700  0.79849300  0.44063400  1
  C  1539  1  0.11239400  0.78690100  0.42133100  1
  C  1540  1  0.10435800  0.76252800  0.42253000  1
  C  1541  1  0.11254900  0.74920900  0.44280300  1
  C  1542  1  0.12648400  0.75989600  0.46116800  1
  C  1545  1  0.08737400  0.75194500  0.40543300  1
  C  1546  1  0.06770400  0.76525900  0.39531900  1
  C  1547  1  0.05006500  0.75335500  0.38103900  1
  C  1548  1  0.04946100  0.72794500  0.37830600  1
  C  1549  1  0.06946900  0.71491900  0.38720200  1
  C  1550  1  0.08812100  0.72677200  0.40000600  1
  C  1561  1  0.13140700  0.22613700  0.54971100  1
  C  1562  1  0.12487600  0.21268600  0.57058500  1
  C  1563  1  0.11240800  0.22428300  0.58989000  1
  C  1564  1  0.10436500  0.24865400  0.58868800  1
  C  1565  1  0.11254500  0.26196900  0.56840900  1
  C  1566  1  0.12647400  0.25128000  0.55003800  1
  C  1569  1  0.08738900  0.25923800  0.60579200  1
  C  1570  1  0.06772800  0.24592500  0.61592200  1
  C  1571  1  0.05009500  0.25782600  0.63021100  1
  C  1572  1  0.04949000  0.28323500  0.63295000  1
  C  1573  1  0.06948100  0.29626400  0.62401700  1
  C  1574  1  0.08812900  0.28441300  0.61120600  1
  C  1585  1  0.87978900  0.78506800  0.54971000  1
  C  1586  1  0.88633500  0.79851700  0.57058000  1
  C  1587  1  0.89880600  0.78692100  0.58988100  1
  C  1588  1  0.90684700  0.76255000  0.58867700  1
  C  1589  1  0.89866500  0.74923800  0.56839600  1
  C  1590  1  0.88473200  0.75992700  0.55003100  1
  C  1593  1  0.92382600  0.75196400  0.60577700  1
  C  1594  1  0.94348500  0.76527700  0.61591100  1
  C  1595  1  0.96111800  0.75337200  0.63019700  1
  C  1596  1  0.96172400  0.72796300  0.63293500  1
  C  1597  1  0.94173200  0.71493500  0.62400100  1
  C  1598  1  0.92308500  0.72678600  0.61119000  1
  C  1609  1  0.87978500  0.22617000  0.46151000  1
  C  1610  1  0.88632800  0.21271200  0.44064400  1
  C  1611  1  0.89879900  0.22430100  0.42133900  1
  C  1612  1  0.90683600  0.24867400  0.42253100  1
  C  1613  1  0.89864400  0.26199600  0.44280300  1
  C  1614  1  0.88471000  0.25131200  0.46117200  1
  C  1617  1  0.92382100  0.25925400  0.40543300  1
  C  1618  1  0.94348900  0.24593700  0.39532100  1
  C  1619  1  0.96113100  0.25783900  0.38104400  1
  C  1620  1  0.96173800  0.28324700  0.37830800  1
  C  1621  1  0.94173000  0.29627700  0.38720000  1
  C  1622  1  0.92307600  0.28442600  0.40000400  1
  N  499  1  0.40065100  0.22117000  0.94686700  1
  N  500  1  0.43965700  0.18752000  0.88131200  1
  N  523  1  0.61055600  0.79004900  0.94687200  1
  N  524  1  0.57153400  0.82368700  0.88131600  1
  N  547  1  0.61055000  0.22116100  0.06432900  1
  N  548  1  0.57153000  0.18750900  0.12987300  1
  N  571  1  0.40065100  0.79006200  0.06434400  1
  N  572  1  0.43968400  0.82369900  0.12989100  1
  N  595  1  0.94686000  0.40062900  0.22115800  1
  N  596  1  0.88130500  0.43963900  0.18750900  1
  N  619  1  0.94687100  0.61055400  0.79005100  1
  N  620  1  0.88131600  0.57153200  0.82368900  1
  N  643  1  0.06433300  0.61055800  0.22115200  1
  N  644  1  0.12988100  0.57154300  0.18750600  1
  N  667  1  0.06434400  0.40065500  0.79006000  1
  N  668  1  0.12989200  0.43968700  0.82369800  1
  N  691  1  0.22116500  0.94685600  0.40064700  1
  N  692  1  0.18751600  0.88130300  0.43966000  1
  N  715  1  0.79004700  0.94688100  0.61055800  1
  N  716  1  0.82369200  0.88133200  0.57153600  1
  N  739  1  0.22116100  0.06432500  0.61055400  1
  N  740  1  0.18750900  0.12986800  0.57153800  1
  N  763  1  0.79006000  0.06434500  0.40065300  1
  N  764  1  0.82369900  0.12989200  0.43968600  1
  N  787  1  0.22115200  0.40066200  0.06432800  1
  N  788  1  0.18750900  0.43966200  0.12988800  1
  N  811  1  0.79004200  0.61054100  0.06433600  1
  N  812  1  0.82368900  0.57153200  0.12988400  1
  N  835  1  0.22116500  0.61055000  0.94687200  1
  N  836  1  0.18753100  0.57154700  0.88131200  1
  N  859  1  0.79004000  0.40064900  0.94687400  1
  N  860  1  0.82369800  0.43965700  0.88132500  1
  N  883  1  0.40065300  0.94687400  0.79004700  1
  N  884  1  0.43965700  0.88132100  0.82370100  1
  N  907  1  0.61054700  0.94687400  0.22116500  1
  N  908  1  0.57154700  0.88131400  0.18753100  1
  N  931  1  0.61054000  0.06434100  0.79004400  1
  N  932  1  0.57153000  0.12989100  0.82368700  1
  N  955  1  0.40064600  0.06432700  0.22115200  1
  N  956  1  0.43966000  0.12988300  0.18750200  1
  N  979  1  0.94687200  0.22116500  0.61054900  1
  N  980  1  0.88131200  0.18753100  0.57154800  1
  N  1003  1  0.94689400  0.79005300  0.40065100  1
  N  1004  1  0.88134500  0.82371900  0.43966800  1
  N  1027  1  0.06431700  0.22114500  0.40065300  1
  N  1028  1  0.12987500  0.18749500  0.43966900  1
  N  1051  1  0.06433700  0.79004400  0.61054700  1
  N  1052  1  0.12988900  0.82368300  0.57153900  1
  N  1075  1  0.61008000  0.78992300  0.06394500  1
  N  1076  1  0.57127000  0.82361500  0.12959200  1
  N  1099  1  0.40113200  0.22129100  0.06392100  1
  N  1100  1  0.43995100  0.18758700  0.12956200  1
  N  1123  1  0.40111700  0.78993500  0.94726500  1
  N  1124  1  0.43993300  0.82362200  0.88162000  1
  N  1147  1  0.61007000  0.22128400  0.94726500  1
  N  1148  1  0.57124800  0.18758500  0.88162100  1
  N  1171  1  0.06394500  0.61008000  0.78992400  1
  N  1172  1  0.12959300  0.57127200  0.82361500  1
  N  1195  1  0.06390900  0.40113500  0.22127900  1
  N  1196  1  0.12955400  0.43995700  0.18757600  1
  N  1219  1  0.94726500  0.40111600  0.78993700  1
  N  1220  1  0.88162000  0.43993100  0.82362200  1
  N  1243  1  0.94728400  0.61007700  0.22127300  1
  N  1244  1  0.88164100  0.57124500  0.18756700  1
  N  1267  1  0.78991900  0.06394900  0.61008200  1
  N  1268  1  0.82361300  0.12959400  0.57127200  1
  N  1291  1  0.22128400  0.06391100  0.40114600  1
  N  1292  1  0.18758300  0.12955700  0.43995800  1
  N  1315  1  0.78993500  0.94726600  0.40111600  1
  N  1316  1  0.82362400  0.88162500  0.43993500  1
  N  1339  1  0.22128600  0.94726500  0.61007500  1
  N  1340  1  0.18758300  0.88162100  0.57125600  1
  N  1363  1  0.78994100  0.61007300  0.94727500  1
  N  1364  1  0.82364000  0.57123900  0.88163800  1
  N  1387  1  0.22127300  0.40114400  0.94725900  1
  N  1388  1  0.18758000  0.43997100  0.88162300  1
  N  1411  1  0.78992300  0.40113700  0.06391800  1
  N  1412  1  0.82363100  0.43995500  0.12955200  1
  N  1435  1  0.22125900  0.61008600  0.06393900  1
  N  1436  1  0.18756200  0.57124700  0.12957000  1
  N  1459  1  0.61009100  0.06394600  0.22125500  1
  N  1460  1  0.57125200  0.12957900  0.18756000  1
  N  1483  1  0.40114100  0.06392600  0.78992400  1
  N  1484  1  0.43995300  0.12956600  0.82362900  1
  N  1507  1  0.40115000  0.94726800  0.22127500  1
  N  1508  1  0.43997100  0.88163000  0.18758200  1
  N  1531  1  0.61007000  0.94727500  0.78994300  1
  N  1532  1  0.57124100  0.88163600  0.82364200  1
  N  1555  1  0.06392200  0.78993000  0.40114600  1
  N  1556  1  0.12956200  0.82362700  0.43996200  1
  N  1579  1  0.06394600  0.22125200  0.61009900  1
  N  1580  1  0.12957900  0.18755400  0.57126300  1
  N  1603  1  0.94727200  0.78994800  0.61008800  1
  N  1604  1  0.88163200  0.82365100  0.57125900  1
  N  1627  1  0.94727200  0.22126800  0.40115400  1
  N  1628  1  0.88163200  0.18757600  0.43997500  1
  O  8  1  0.40311300  0.27845200  0.00528600  1
  O  15  1  0.27843300  0.40310200  0.00589400  1
  O  28  1  0.60811800  0.73278200  0.00529800  1
  O  35  1  0.73278500  0.60810500  0.00590100  1
  O  48  1  0.60808700  0.27843800  0.00591200  1
  O  55  1  0.73275400  0.40310000  0.00529500  1
  O  68  1  0.40308200  0.73280100  0.00591800  1
  O  75  1  0.27841600  0.60812100  0.00531300  1
  O  88  1  0.00528000  0.40309600  0.27843300  1
  O  95  1  0.00591900  0.27842200  0.40308900  1
  O  108  1  0.00529800  0.60811800  0.73278300  1
  O  115  1  0.00589500  0.73278900  0.60811000  1
  O  128  1  0.00590400  0.60810500  0.27842000  1
  O  135  1  0.00528200  0.73276900  0.40309100  1
  O  148  1  0.00591600  0.40308000  0.73280100  1
  O  155  1  0.00531800  0.27841100  0.60812700  1
  O  168  1  0.27844900  0.00526600  0.40311600  1
  O  175  1  0.40308900  0.00591700  0.27842700  1
  O  188  1  0.73278000  0.00530400  0.60812100  1
  O  195  1  0.60810300  0.00590400  0.73278900  1
  O  208  1  0.27844000  0.00590900  0.60809100  1
  O  215  1  0.40310400  0.00529800  0.73275800  1
  O  228  1  0.73280000  0.00591800  0.40308000  1
  O  235  1  0.60812300  0.00531800  0.27841300  1
  O  248  1  0.90514700  0.78281800  0.50535400  1
  O  255  1  0.78278200  0.90512700  0.50582800  1
  O  268  1  0.10607400  0.22839800  0.50536300  1
  O  275  1  0.22844500  0.10607900  0.50585500  1
  O  288  1  0.10608100  0.78276500  0.50586200  1
  O  295  1  0.22842900  0.90510100  0.50535600  1
  O  308  1  0.90510500  0.22845600  0.50586200  1
  O  315  1  0.78277100  0.10609500  0.50537600  1
  O  328  1  0.50533200  0.90512800  0.78279100  1
  O  335  1  0.50582900  0.78278200  0.90511800  1
  O  348  1  0.50535200  0.10607900  0.22841100  1
  O  355  1  0.50584900  0.22844500  0.10608300  1
  O  368  1  0.50585500  0.10608500  0.78276500  1
  O  375  1  0.50535200  0.22843100  0.90510500  1
  O  388  1  0.50586000  0.90510700  0.22845600  1
  O  395  1  0.50537400  0.78277100  0.10609500  1
  O  408  1  0.78278700  0.50533200  0.90512800  1
  O  415  1  0.90511800  0.50582800  0.78278300  1
  O  428  1  0.22842700  0.50534300  0.10608600  1
  O  435  1  0.10607500  0.50586400  0.22842500  1
  O  448  1  0.78276500  0.50585800  0.10607700  1
  O  455  1  0.90512300  0.50533200  0.22840000  1
  O  468  1  0.22845600  0.50585800  0.90510300  1
  O  475  1  0.10609500  0.50537600  0.78277100  1
  O  501  1  0.38211800  0.20801800  0.94719600  1
  O  502  1  0.43839100  0.17549500  0.90054100  1
  O  503  1  0.41236300  0.21790300  0.96607600  1
  O  504  1  0.42198900  0.18204000  0.86814500  1
  O  525  1  0.62909100  0.80320200  0.94718500  1
  O  526  1  0.57280300  0.83571700  0.90054500  1
  O  527  1  0.59885800  0.79332200  0.96608700  1
  O  528  1  0.58919800  0.82916100  0.86814700  1
  O  549  1  0.62908400  0.20800700  0.06400000  1
  O  550  1  0.57280100  0.17548700  0.11064100  1
  O  551  1  0.59883700  0.21789200  0.04512100  1
  O  552  1  0.58919200  0.18202700  0.14304300  1
  O  573  1  0.38212000  0.80321800  0.06403000  1
  O  574  1  0.43841100  0.83573000  0.11066300  1
  O  575  1  0.41235000  0.79333000  0.04512900  1
  O  576  1  0.42202400  0.82917800  0.14306500  1
  O  597  1  0.94718700  0.38209400  0.20800500  1
  O  598  1  0.90053400  0.43836800  0.17548100  1
  O  599  1  0.96606900  0.41234000  0.21788800  1
  O  600  1  0.86813500  0.42197500  0.18203300  1
  O  621  1  0.94718300  0.62908900  0.80320400  1
  O  622  1  0.90054300  0.57280100  0.83571900  1
  O  623  1  0.96608700  0.59885600  0.79332400  1
  O  624  1  0.86814500  0.58919600  0.82916300  1
  O  645  1  0.06400600  0.62909100  0.20799800  1
  O  646  1  0.11065100  0.57281500  0.17547900  1
  O  647  1  0.04512500  0.59884600  0.21788300  1
  O  648  1  0.14305300  0.58920500  0.18202600  1
  O  669  1  0.06403000  0.38212200  0.80321800  1
  O  670  1  0.11066400  0.43841300  0.83572800  1
  O  671  1  0.04512900  0.41235400  0.79333000  1
  O  672  1  0.14306500  0.42202500  0.82917600  1
  O  693  1  0.20801100  0.94718100  0.38211400  1
  O  694  1  0.17549100  0.90053400  0.43839300  1
  O  695  1  0.21789700  0.96606500  0.41235800  1
  O  696  1  0.18203600  0.86813500  0.42199700  1
  O  717  1  0.80320200  0.94719600  0.62909100  1
  O  718  1  0.83572100  0.90056100  0.57280500  1
  O  719  1  0.79331700  0.96609800  0.59886000  1
  O  720  1  0.82916900  0.86816200  0.58920000  1
  O  741  1  0.20800900  0.06399500  0.62908700  1
  O  742  1  0.17548700  0.11063600  0.57280800  1
  O  743  1  0.21789500  0.04511800  0.59884000  1
  O  744  1  0.18202600  0.14303900  0.58920000  1
  O  765  1  0.80321600  0.06403000  0.38212200  1
  O  766  1  0.83572800  0.11066400  0.43841300  1
  O  767  1  0.79333000  0.04512900  0.41235200  1
  O  768  1  0.82917600  0.14306600  0.42202400  1
  O  789  1  0.20799800  0.38213100  0.06399500  1
  O  790  1  0.17548500  0.43840200  0.11065600  1
  O  791  1  0.21788600  0.41237700  0.04512100  1
  O  792  1  0.18202400  0.42199500  0.14305100  1
  O  813  1  0.80319600  0.62907600  0.06400900  1
  O  814  1  0.83571100  0.57279700  0.11065200  1
  O  815  1  0.79331200  0.59882900  0.04512900  1
  O  816  1  0.82917200  0.58919600  0.14305200  1
  O  837  1  0.20800900  0.62908000  0.94720300  1
  O  838  1  0.17550600  0.57280500  0.90054500  1
  O  839  1  0.21789900  0.59883500  0.96607800  1
  O  840  1  0.18204500  0.58921400  0.86815100  1
  O  861  1  0.80319600  0.38211800  0.94720700  1
  O  862  1  0.83572100  0.43839000  0.90055800  1
  O  863  1  0.79330300  0.41236300  0.96608100  1
  O  864  1  0.82918300  0.42199100  0.86815800  1
  O  885  1  0.38212000  0.94720500  0.80320000  1
  O  886  1  0.43839100  0.90055400  0.83572400  1
  O  887  1  0.41236700  0.96608100  0.79331300  1
  O  888  1  0.42199100  0.86815600  0.82918500  1
  O  909  1  0.62907800  0.94720300  0.20800900  1
  O  910  1  0.57280500  0.90054500  0.17550500  1
  O  911  1  0.59883100  0.96607800  0.21789500  1
  O  912  1  0.58921400  0.86815100  0.18204400  1
  O  933  1  0.62907300  0.06401400  0.80319800  1
  O  934  1  0.57279600  0.11066000  0.83571100  1
  O  935  1  0.59882600  0.04513400  0.79331300  1
  O  936  1  0.58919600  0.14305800  0.82917000  1
  O  957  1  0.38211400  0.06400500  0.20799400  1
  O  958  1  0.43839900  0.11065300  0.17547700  1
  O  959  1  0.41235000  0.04511400  0.21788800  1
  O  960  1  0.42199500  0.14304900  0.18202200  1
  O  981  1  0.94720100  0.20800900  0.62907800  1
  O  982  1  0.90054300  0.17550600  0.57280600  1
  O  983  1  0.96607800  0.21789500  0.59883100  1
  O  984  1  0.86814900  0.18204500  0.58921600  1
  O  1005  1  0.94721400  0.80320900  0.38212000  1
  O  1006  1  0.90057700  0.83574400  0.43840100  1
  O  1007  1  0.96611200  0.79331300  0.41234900  1
  O  1008  1  0.86818000  0.82919900  0.42200000  1
  O  1029  1  0.06399900  0.20798900  0.38212000  1
  O  1030  1  0.11064500  0.17546800  0.43840600  1
  O  1031  1  0.04510100  0.21788100  0.41235000  1
  O  1032  1  0.14304000  0.18201500  0.42200200  1
  O  1053  1  0.06401000  0.80319400  0.62908200  1
  O  1054  1  0.11065800  0.83570800  0.57280500  1
  O  1055  1  0.04512900  0.79331700  0.59883500  1
  O  1056  1  0.14305600  0.82916500  0.58920300  1
  O  1077  1  0.62860800  0.80308200  0.06362400  1
  O  1078  1  0.57249500  0.83564100  0.11035900  1
  O  1079  1  0.59838100  0.79317800  0.04472600  1
  O  1080  1  0.58898300  0.82907100  0.14270800  1
  O  1101  1  0.38260200  0.20813000  0.06359800  1
  O  1102  1  0.43872800  0.17556500  0.11032700  1
  O  1103  1  0.41282800  0.21804000  0.04470100  1
  O  1104  1  0.42223900  0.18212700  0.14267600  1
  O  1125  1  0.38258800  0.80309500  0.94758100  1
  O  1126  1  0.43870200  0.83565000  0.90085000  1
  O  1127  1  0.41281300  0.79319600  0.96648400  1
  O  1128  1  0.42222400  0.82907300  0.86849800  1
  O  1149  1  0.62860100  0.20812600  0.94758300  1
  O  1150  1  0.57247700  0.17555800  0.90085400  1
  O  1151  1  0.59837600  0.21802500  0.96648400  1
  O  1152  1  0.58895900  0.18213000  0.86850300  1
  O  1173  1  0.06362400  0.62860800  0.80308600  1
  O  1174  1  0.11036000  0.57249500  0.83564100  1
  O  1175  1  0.04472700  0.59838100  0.79318000  1
  O  1176  1  0.14270900  0.58898300  0.82907100  1
  O  1197  1  0.06359500  0.38260800  0.20811700  1
  O  1198  1  0.11032000  0.43873500  0.17555100  1
  O  1199  1  0.04468400  0.41282400  0.21802700  1
  O  1200  1  0.14266800  0.42224400  0.18212000  1
  O  1221  1  0.94758100  0.38258600  0.80309500  1
  O  1222  1  0.90085000  0.43870100  0.83565200  1
  O  1223  1  0.96648400  0.41281100  0.79319800  1
  O  1224  1  0.86849800  0.42222200  0.82907300  1
  O  1245  1  0.94758800  0.62860800  0.20811700  1
  O  1246  1  0.90087200  0.57247600  0.17553700  1
  O  1247  1  0.96651500  0.59839900  0.21801600  1
  O  1248  1  0.86852300  0.58895600  0.18212000  1
  O  1269  1  0.80308100  0.06362800  0.62861200  1
  O  1270  1  0.83563900  0.11036100  0.57249700  1
  O  1271  1  0.79317600  0.04473000  0.59838500  1
  O  1272  1  0.82906900  0.14271000  0.58898300  1
  O  1293  1  0.20812600  0.06358800  0.38261700  1
  O  1294  1  0.17556200  0.11032100  0.43873700  1
  O  1295  1  0.21802900  0.04469200  0.41284400  1
  O  1296  1  0.18212300  0.14267000  0.42224600  1
  O  1317  1  0.80309500  0.94758300  0.38258600  1
  O  1318  1  0.83565200  0.90085600  0.43870200  1
  O  1319  1  0.79319600  0.96648600  0.41281100  1
  O  1320  1  0.82907500  0.86850300  0.42222600  1
  O  1341  1  0.20813000  0.94758100  0.62860600  1
  O  1342  1  0.17555700  0.90085400  0.57248300  1
  O  1343  1  0.21802700  0.96648400  0.59838300  1
  O  1344  1  0.18213000  0.86850300  0.58896600  1
  O  1365  1  0.80310200  0.62860100  0.94758400  1
  O  1366  1  0.83566600  0.57247000  0.90087000  1
  O  1367  1  0.79319400  0.59838800  0.96650400  1
  O  1368  1  0.82909300  0.58894800  0.86851800  1
  O  1389  1  0.20811000  0.38261900  0.94757900  1
  O  1390  1  0.17555500  0.43874000  0.90085800  1
  O  1391  1  0.21802200  0.41284000  0.96647900  1
  O  1392  1  0.18212100  0.42226600  0.86850100  1
  O  1413  1  0.80308600  0.38261100  0.06359600  1
  O  1414  1  0.83565200  0.43872800  0.11031600  1
  O  1415  1  0.79317200  0.41283500  0.04469700  1
  O  1416  1  0.82909100  0.42224400  0.14266900  1
  O  1437  1  0.20809600  0.62861400  0.06363100  1
  O  1438  1  0.17553400  0.57248300  0.11033800  1
  O  1439  1  0.21800600  0.59840300  0.04471100  1
  O  1440  1  0.18211100  0.58895200  0.14269500  1
  O  1461  1  0.62862100  0.06363900  0.20809600  1
  O  1462  1  0.57249200  0.11034900  0.17553000  1
  O  1463  1  0.59841000  0.04471800  0.21800000  1
  O  1464  1  0.58895700  0.14270600  0.18211100  1
  O  1485  1  0.38261300  0.06360400  0.80308800  1
  O  1486  1  0.43872800  0.11033100  0.83565200  1
  O  1487  1  0.41283800  0.04470700  0.79317400  1
  O  1488  1  0.42224400  0.14268200  0.82908700  1
  O  1509  1  0.38262400  0.94759000  0.20811200  1
  O  1510  1  0.43874200  0.90086300  0.17555600  1
  O  1511  1  0.41284700  0.96648800  0.21802400  1
  O  1512  1  0.42226400  0.86851000  0.18212300  1
  O  1533  1  0.62859700  0.94758400  0.80310400  1
  O  1534  1  0.57247000  0.90086800  0.83567000  1
  O  1535  1  0.59838500  0.96650300  0.79319800  1
  O  1536  1  0.58895000  0.86851800  0.82909500  1
  O  1557  1  0.06360200  0.80309100  0.38261900  1
  O  1558  1  0.11032800  0.83565000  0.43873700  1
  O  1559  1  0.04470100  0.79318300  0.41284000  1
  O  1560  1  0.14267900  0.82908700  0.42225100  1
  O  1581  1  0.06363800  0.20809200  0.62862800  1
  O  1582  1  0.11035000  0.17552500  0.57250500  1
  O  1583  1  0.04471800  0.21799700  0.59841500  1
  O  1584  1  0.14270700  0.18210700  0.58896800  1
  O  1605  1  0.94758100  0.80310800  0.62861700  1
  O  1606  1  0.90086500  0.83567900  0.57249500  1
  O  1607  1  0.96649900  0.79320100  0.59840500  1
  O  1608  1  0.86851000  0.82910000  0.58896800  1
  O  1629  1  0.94759300  0.20810300  0.38262800  1
  O  1630  1  0.90086500  0.17555200  0.43874800  1
  O  1631  1  0.96649200  0.21802000  0.41285100  1
  O  1632  1  0.86851200  0.18211800  0.42226800  1
