# generated using pymatgen
data_H9C17(NO)4
_symmetry_space_group_name_H-M   'P 1'
_cell_length_a   39.83760000
_cell_length_b   39.83760000
_cell_length_c   59.20540000
_cell_angle_alpha   90.00000000
_cell_angle_beta   90.00000000
_cell_angle_gamma   90.00000000
_symmetry_Int_Tables_number   1
_chemical_formula_structural   H9C17(NO)4
_chemical_formula_sum   'H288 C544 N128 O128'
_cell_volume   93961.00491221
_cell_formula_units_Z   32
loop_
 _symmetry_equiv_pos_site_id
 _symmetry_equiv_pos_as_xyz
  1  'x, y, z'
loop_
 _atom_site_type_symbol
 _atom_site_label
 _atom_site_symmetry_multiplicity
 _atom_site_fract_x
 _atom_site_fract_y
 _atom_site_fract_z
 _atom_site_occupancy
  H  7  1  0.12228600  0.44164600  0.87366800  1
  H  16  1  0.19516900  0.36941000  0.88191400  1
  H  17  1  0.13441900  0.41983000  0.79356700  1
  H  18  1  0.17361700  0.38152900  0.96204200  1
  H  19  1  0.21845500  0.41284400  0.85211100  1
  H  20  1  0.16563200  0.46536500  0.90343200  1
  H  25  1  0.22243300  0.33905400  0.93446700  1
  H  26  1  0.22332400  0.39943700  0.80998000  1
  H  27  1  0.09162700  0.46833700  0.82101100  1
  H  28  1  0.15275700  0.47069900  0.94539800  1
  H  35  1  0.38293500  0.55621900  0.37367900  1
  H  44  1  0.31006400  0.62844200  0.38192100  1
  H  45  1  0.37076100  0.57799200  0.29357800  1
  H  46  1  0.33161900  0.61634000  0.46205200  1
  H  47  1  0.28675500  0.58499300  0.35213200  1
  H  48  1  0.33957100  0.53248200  0.40345100  1
  H  53  1  0.28273300  0.65881000  0.43442100  1
  H  54  1  0.28190500  0.59839800  0.30998300  1
  H  55  1  0.41358200  0.52947000  0.32104500  1
  H  56  1  0.35245600  0.52714800  0.44540300  1
  H  63  1  0.81258500  0.86848200  0.12347600  1
  H  72  1  0.88266200  0.94210300  0.13223200  1
  H  73  1  0.83740300  0.88204700  0.04376900  1
  H  74  1  0.86995300  0.92037500  0.21230500  1
  H  75  1  0.83851500  0.96563400  0.10250500  1
  H  76  1  0.78674500  0.91182300  0.15333500  1
  H  81  1  0.91258600  0.96938900  0.18481200  1
  H  82  1  0.85335500  0.97101600  0.06050700  1
  H  83  1  0.79578200  0.83581400  0.06767900  1
  H  84  1  0.78101400  0.89912900  0.19534400  1
  H  91  1  0.69263300  0.12937000  0.62348500  1
  H  100  1  0.62256300  0.05576600  0.63223300  1
  H  101  1  0.66785700  0.11577400  0.54377800  1
  H  102  1  0.63527500  0.07746100  0.71231500  1
  H  103  1  0.66666667  0.03221100  0.60251900  1
  H  104  1  0.71849300  0.08599600  0.65334400  1
  H  109  1  0.59264200  0.02839100  0.68476300  1
  H  110  1  0.65190000  0.02684600  0.56050800  1
  H  111  1  0.70944600  0.16203200  0.56768900  1
  H  112  1  0.72425900  0.09866300  0.69533300  1
  H  119  1  0.38235800  0.44118700  0.63196900  1
  H  128  1  0.30964000  0.36880300  0.62370600  1
  H  129  1  0.37022800  0.41958900  0.71209500  1
  H  130  1  0.33141600  0.38099200  0.54360700  1
  H  131  1  0.28624000  0.41227900  0.65353100  1
  H  132  1  0.33903400  0.46483800  0.60222300  1
  H  137  1  0.28255700  0.33847000  0.57109600  1
  H  138  1  0.28092300  0.39928100  0.69546200  1
  H  139  1  0.41300000  0.46812900  0.68452500  1
  H  140  1  0.35232600  0.46974300  0.56005500  1
  H  147  1  0.12292900  0.55662500  0.13193900  1
  H  156  1  0.19559500  0.62906200  0.12369500  1
  H  157  1  0.13501200  0.57820300  0.21206800  1
  H  158  1  0.17383700  0.61686300  0.04359100  1
  H  159  1  0.21901200  0.58560800  0.15352400  1
  H  160  1  0.16628400  0.53300200  0.10220700  1
  H  165  1  0.22273700  0.65940300  0.07112500  1
  H  166  1  0.22428900  0.59858800  0.19546900  1
  H  167  1  0.09226500  0.52967900  0.18450000  1
  H  168  1  0.15299500  0.52806700  0.06006200  1
  H  175  1  0.69225600  0.86909400  0.38217400  1
  H  184  1  0.62197300  0.94252000  0.37340500  1
  H  185  1  0.66770900  0.88263200  0.46191400  1
  H  186  1  0.63473800  0.92055300  0.29336000  1
  H  187  1  0.66614500  0.96617900  0.40315100  1
  H  188  1  0.71797600  0.91241300  0.35232900  1
  H  193  1  0.59205700  0.96959800  0.32075300  1
  H  194  1  0.65170200  0.97192200  0.44498100  1
  H  195  1  0.70938600  0.83644900  0.43790100  1
  H  196  1  0.72327200  0.89929200  0.31011800  1
  H  203  1  0.81292400  0.12874900  0.88216900  1
  H  212  1  0.88328200  0.05538400  0.87340600  1
  H  213  1  0.83746600  0.11524900  0.96190800  1
  H  214  1  0.87048800  0.07730100  0.79335500  1
  H  215  1  0.83915000  0.03170000  0.90315400  1
  H  216  1  0.78725200  0.08539800  0.85233200  1
  H  221  1  0.91319300  0.02822200  0.82080000  1
  H  222  1  0.85359400  0.02600600  0.94500100  1
  H  223  1  0.79576900  0.16139000  0.93789200  1
  H  224  1  0.78191000  0.09849400  0.81014200  1
  H  231  1  0.88311400  0.55914800  0.13172900  1
  H  240  1  0.80964000  0.62907000  0.12302700  1
  H  241  1  0.86956400  0.58401200  0.21143200  1
  H  242  1  0.83145900  0.61638600  0.04296000  1
  H  243  1  0.78590700  0.58474700  0.15274400  1
  H  244  1  0.83960200  0.53308200  0.10189000  1
  H  249  1  0.78269100  0.65924200  0.07040600  1
  H  250  1  0.78053500  0.59964000  0.19472900  1
  H  251  1  0.91596500  0.54256600  0.18749300  1
  H  252  1  0.85234900  0.52735200  0.05989700  1
  H  259  1  0.62214700  0.43877700  0.63171700  1
  H  268  1  0.69557700  0.36879000  0.62302200  1
  H  269  1  0.63570700  0.41395100  0.71142300  1
  H  270  1  0.67378600  0.38145900  0.54294700  1
  H  271  1  0.71933600  0.41308300  0.65272400  1
  H  272  1  0.66566800  0.46478800  0.60186900  1
  H  277  1  0.72261500  0.33860800  0.57045400  1
  H  278  1  0.72468300  0.39820700  0.69472700  1
  H  279  1  0.58932600  0.45538900  0.68749300  1
  H  280  1  0.65292200  0.47051800  0.55988600  1
  H  287  1  0.19309600  0.12995100  0.88203400  1
  H  296  1  0.12236300  0.05849600  0.87278600  1
  H  297  1  0.16805300  0.11585400  0.96167700  1
  H  298  1  0.13641000  0.08329200  0.79312000  1
  H  299  1  0.16660100  0.03278500  0.90261500  1
  H  300  1  0.21931200  0.08583500  0.85226300  1
  H  305  1  0.09028700  0.04115800  0.81700600  1
  H  306  1  0.15191400  0.02702900  0.94465500  1
  H  307  1  0.20979900  0.16228900  0.93787200  1
  H  308  1  0.22543600  0.10003400  0.81035800  1
  H  315  1  0.31216500  0.86791000  0.38202600  1
  H  324  1  0.38290200  0.93930700  0.37277800  1
  H  325  1  0.33717200  0.88203700  0.46166900  1
  H  326  1  0.36880500  0.91452900  0.29311000  1
  H  327  1  0.33864500  0.96508200  0.40260300  1
  H  328  1  0.28591600  0.91208600  0.35226500  1
  H  333  1  0.41497500  0.95664200  0.31699600  1
  H  334  1  0.35332000  0.97082000  0.44465700  1
  H  335  1  0.29545000  0.83557800  0.43786200  1
  H  336  1  0.27973900  0.89790100  0.31038200  1
  H  343  1  0.62275700  0.55938700  0.37310600  1
  H  352  1  0.69596900  0.62967000  0.38180600  1
  H  353  1  0.63616300  0.58399200  0.29336200  1
  H  354  1  0.67395400  0.61692300  0.46184800  1
  H  355  1  0.71982100  0.58540700  0.35205900  1
  H  356  1  0.66623600  0.53358200  0.40292400  1
  H  361  1  0.72272200  0.65984700  0.43449200  1
  H  362  1  0.72550600  0.59988600  0.31023500  1
  H  363  1  0.58992800  0.54243000  0.31740800  1
  H  364  1  0.65305700  0.52830000  0.44512100  1
  H  371  1  0.88247600  0.43847300  0.87310600  1
  H  380  1  0.80930200  0.36818000  0.88181900  1
  H  381  1  0.86901400  0.41387300  0.79337000  1
  H  382  1  0.83131300  0.38094700  0.96186400  1
  H  383  1  0.78540000  0.41244000  0.85208600  1
  H  384  1  0.83897000  0.46429000  0.90293200  1
  H  389  1  0.78249000  0.33800500  0.93446700  1
  H  390  1  0.77970600  0.39796600  0.81024800  1
  H  391  1  0.91526900  0.45542900  0.81740000  1
  H  392  1  0.85214600  0.46960700  0.94511100  1
  H  399  1  0.31249900  0.12936100  0.62276400  1
  H  408  1  0.38348700  0.05820500  0.63202300  1
  H  409  1  0.33726700  0.11528200  0.54308900  1
  H  410  1  0.36935500  0.08327300  0.71165300  1
  H  411  1  0.33922000  0.03227000  0.60218800  1
  H  412  1  0.28642600  0.08522300  0.65252800  1
  H  417  1  0.41559300  0.04123700  0.68787800  1
  H  418  1  0.35349600  0.02613700  0.56032000  1
  H  419  1  0.29542700  0.16165100  0.56700200  1
  H  420  1  0.28065200  0.09983600  0.69460200  1
  H  427  1  0.19280100  0.86851500  0.12277100  1
  H  436  1  0.12171800  0.93957100  0.13202500  1
  H  437  1  0.16803800  0.88255200  0.04309500  1
  H  438  1  0.13591700  0.91453400  0.21165600  1
  H  439  1  0.16594600  0.96556400  0.10218500  1
  H  440  1  0.21883100  0.91270900  0.15251700  1
  H  445  1  0.08961800  0.95653200  0.18788500  1
  H  446  1  0.15167700  0.97164600  0.06029700  1
  H  447  1  0.20989800  0.83622600  0.06701000  1
  H  448  1  0.22466900  0.89811200  0.19456800  1
  H  459  1  0.26578900  0.38476800  0.73510700  1
  H  460  1  0.23196400  0.38550800  0.76848000  1
  H  462  1  0.22471900  0.50116300  0.78689600  1
  H  466  1  0.24199900  0.58043700  0.72920000  1
  H  479  1  0.23953300  0.61305700  0.23507800  1
  H  480  1  0.27331700  0.61229900  0.26847000  1
  H  482  1  0.28035100  0.49665700  0.28695200  1
  H  486  1  0.26302800  0.41735000  0.22928000  1
  H  499  1  0.86876100  0.01198900  0.98505100  1
  H  500  1  0.86804800  0.97842100  0.01857200  1
  H  502  1  0.75240600  0.97119200  0.03698700  1
  H  506  1  0.67314400  0.98781700  0.97920900  1
  H  519  1  0.63649700  0.98592600  0.48504000  1
  H  520  1  0.63722500  0.01947500  0.51856900  1
  H  522  1  0.75286500  0.02655900  0.53702200  1
  H  526  1  0.83214400  0.00989500  0.47925700  1
  H  539  1  0.73948600  0.61511500  0.27016100  1
  H  540  1  0.77314200  0.61439800  0.23667800  1
  H  542  1  0.78044400  0.49875500  0.21829400  1
  H  546  1  0.76367900  0.41951400  0.27606800  1
  H  559  1  0.76565400  0.38275900  0.77019300  1
  H  560  1  0.73205000  0.38349000  0.73668600  1
  H  562  1  0.72493600  0.49912400  0.71824200  1
  H  566  1  0.74170500  0.57839400  0.77600100  1
  H  579  1  0.13647400  0.98589400  0.02020000  1
  H  580  1  0.13718000  0.01947400  0.98667500  1
  H  582  1  0.25280700  0.02665000  0.96823000  1
  H  586  1  0.33213900  0.00986900  0.02594900  1
  H  599  1  0.36874700  0.01189800  0.52021700  1
  H  600  1  0.36802700  0.97833800  0.48668300  1
  H  602  1  0.25240800  0.97132500  0.46818800  1
  H  606  1  0.17304600  0.98816000  0.52588400  1
  H  619  1  0.76564700  0.88466800  0.23504600  1
  H  620  1  0.73206300  0.88540100  0.26854300  1
  H  622  1  0.72500400  0.00104500  0.28701100  1
  H  626  1  0.74196800  0.08038400  0.22931000  1
  H  639  1  0.73965400  0.11316100  0.73502500  1
  H  640  1  0.77323500  0.11242100  0.76852200  1
  H  642  1  0.78011800  0.99679000  0.78706100  1
  H  646  1  0.76306100  0.91740600  0.72939900  1
  H  659  1  0.36694000  0.51203900  0.48508600  1
  H  660  1  0.36620700  0.47840800  0.51855200  1
  H  662  1  0.25054800  0.47123100  0.53697600  1
  H  666  1  0.17129000  0.48812500  0.47922100  1
  H  679  1  0.13831100  0.48590800  0.98504500  1
  H  680  1  0.13906700  0.51952500  0.01851700  1
  H  682  1  0.25471700  0.52650600  0.03699600  1
  H  686  1  0.33400600  0.50952400  0.97927000  1
  H  699  1  0.23964600  0.11522100  0.77022200  1
  H  700  1  0.27306100  0.11451600  0.73661800  1
  H  702  1  0.28017500  0.99888100  0.71817200  1
  H  706  1  0.26372300  0.91956700  0.77594200  1
  H  719  1  0.26553100  0.88266700  0.27024400  1
  H  720  1  0.23212500  0.88337700  0.23663500  1
  H  722  1  0.22516100  0.99899400  0.21812900  1
  H  726  1  0.24167000  0.07835100  0.27587000  1
  H  739  1  0.63838000  0.48583000  0.52016000  1
  H  740  1  0.63911300  0.51951500  0.48671000  1
  H  742  1  0.75475500  0.52665600  0.46826400  1
  H  746  1  0.83407700  0.50952700  0.52595200  1
  H  759  1  0.86686800  0.51193400  0.02020700  1
  H  760  1  0.86612500  0.47826700  0.98674900  1
  H  762  1  0.75049800  0.47134400  0.96822200  1
  H  766  1  0.67112000  0.48856400  0.02586500  1
  H  779  1  0.14415100  0.27970800  0.90235500  1
  H  780  1  0.14453200  0.21986300  0.90123000  1
  H  782  1  0.25729200  0.19183800  0.91926400  1
  H  786  1  0.32313200  0.26857600  0.96022800  1
  H  799  1  0.36106600  0.71816400  0.40230900  1
  H  800  1  0.36068200  0.77800900  0.40118300  1
  H  802  1  0.24794600  0.80603300  0.41928400  1
  H  806  1  0.18215500  0.72931700  0.46031400  1
  H  819  1  0.97191700  0.89092800  0.15274400  1
  H  820  1  0.03175100  0.89122200  0.15143800  1
  H  822  1  0.06005200  0.00395900  0.16934100  1
  H  826  1  0.98378800  0.06998000  0.21055200  1
  H  839  1  0.53326100  0.10687600  0.65270400  1
  H  840  1  0.47342800  0.10654600  0.65140000  1
  H  842  1  0.44519500  0.99380800  0.66936400  1
  H  846  1  0.52148800  0.92788100  0.71062700  1
  H  859  1  0.36104100  0.27910300  0.60286900  1
  H  860  1  0.36081500  0.21924900  0.60367400  1
  H  862  1  0.24806600  0.19114000  0.58565600  1
  H  866  1  0.18194900  0.26838500  0.54525100  1
  H  879  1  0.14424200  0.71880400  0.10290200  1
  H  880  1  0.14450400  0.77866000  0.10370700  1
  H  882  1  0.25725700  0.80670100  0.08563900  1
  H  886  1  0.32328500  0.72942500  0.04518000  1
  H  899  1  0.53266800  0.89100600  0.35251200  1
  H  900  1  0.47282300  0.89118400  0.35348800  1
  H  902  1  0.44452500  0.00392900  0.33557900  1
  H  906  1  0.52135700  0.07015500  0.29492600  1
  H  919  1  0.97263000  0.10683100  0.85255400  1
  H  920  1  0.03247500  0.10661300  0.85352800  1
  H  922  1  0.06070300  0.99386600  0.83556400  1
  H  926  1  0.98383300  0.92773300  0.79485800  1
  H  939  1  0.86100200  0.71828700  0.10281600  1
  H  940  1  0.86074800  0.77812000  0.10427800  1
  H  942  1  0.74806300  0.80659300  0.08637600  1
  H  946  1  0.68208000  0.73064200  0.04488300  1
  H  959  1  0.64425400  0.27955300  0.60286400  1
  H  960  1  0.64451500  0.21971800  0.60432600  1
  H  962  1  0.75718000  0.19125000  0.58635500  1
  H  966  1  0.82310800  0.26718800  0.54480000  1
  H  979  1  0.64425100  0.71889700  0.40237000  1
  H  980  1  0.64435200  0.77874500  0.40122700  1
  H  982  1  0.75700700  0.80730300  0.41917600  1
  H  986  1  0.82322100  0.73084000  0.46014700  1
  H  999  1  0.86096900  0.27890500  0.90234600  1
  H  1000  1  0.86082600  0.21905800  0.90120400  1
  H  1002  1  0.74816100  0.19058300  0.91919300  1
  H  1006  1  0.68203500  0.26708200  0.96021100  1
  H  1019  1  0.47205500  0.38998600  0.65206700  1
  H  1020  1  0.53190000  0.39035300  0.65075600  1
  H  1022  1  0.56006700  0.50308800  0.66873800  1
  H  1026  1  0.48369400  0.56888800  0.71001800  1
  H  1039  1  0.03327800  0.60782800  0.15199800  1
  H  1040  1  0.97343100  0.60752500  0.15071000  1
  H  1042  1  0.94515300  0.49484500  0.16876900  1
  H  1046  1  0.02147400  0.42901000  0.21008500  1
  H  1059  1  0.03257000  0.39009700  0.85320400  1
  H  1060  1  0.97271000  0.39031300  0.85419200  1
  H  1062  1  0.94447000  0.50302800  0.83618800  1
  H  1066  1  0.02137400  0.56906800  0.79544700  1
  H  1079  1  0.47263200  0.60773800  0.35324800  1
  H  1080  1  0.53249200  0.60753200  0.35422600  1
  H  1082  1  0.56074200  0.49483000  0.33617900  1
  H  1086  1  0.48385000  0.42881400  0.29540000  1
  C  1  1  0.17200600  0.42709900  0.86633300  1
  C  2  1  0.13933400  0.43826000  0.86089600  1
  C  3  1  0.12903700  0.44319200  0.83826100  1
  C  4  1  0.15255000  0.43759000  0.82062700  1
  C  5  1  0.18581900  0.42690400  0.82552400  1
  C  6  1  0.19477000  0.42123600  0.84838200  1
  C  9  1  0.18024000  0.41901900  0.88923300  1
  C  10  1  0.17425500  0.44176900  0.90717500  1
  C  11  1  0.18009900  0.43292600  0.93003800  1
  C  12  1  0.19111600  0.39975300  0.93493300  1
  C  13  1  0.19684900  0.37626300  0.91730600  1
  C  14  1  0.19173900  0.38647200  0.89467500  1
  C  21  1  0.20894100  0.41972700  0.80849700  1
  C  22  1  0.09609900  0.45230700  0.83350300  1
  C  23  1  0.17282800  0.45606700  0.94705500  1
  C  24  1  0.20622200  0.34340000  0.92206100  1
  C  29  1  0.33320600  0.57073000  0.36634800  1
  C  30  1  0.36587100  0.55954700  0.36091100  1
  C  31  1  0.37616800  0.55463500  0.33827300  1
  C  32  1  0.35264700  0.56022800  0.32064100  1
  C  33  1  0.31937700  0.57091100  0.32554300  1
  C  34  1  0.31043300  0.57658900  0.34840000  1
  C  37  1  0.32500000  0.57884100  0.38924800  1
  C  38  1  0.33096700  0.55608800  0.40719100  1
  C  39  1  0.32511300  0.56493200  0.43005300  1
  C  40  1  0.31411800  0.59811400  0.43494500  1
  C  41  1  0.30839700  0.62160400  0.41731600  1
  C  42  1  0.31351100  0.61139300  0.39468500  1
  C  49  1  0.29624600  0.57807500  0.30851900  1
  C  50  1  0.40910900  0.54554800  0.33351200  1
  C  51  1  0.33240200  0.54180300  0.44707400  1
  C  52  1  0.29903700  0.65446500  0.42207100  1
  C  57  1  0.82541200  0.91863100  0.11639200  1
  C  58  1  0.81564500  0.88560100  0.11072200  1
  C  59  1  0.81206300  0.87504400  0.08798500  1
  C  60  1  0.81753000  0.89896800  0.07053200  1
  C  61  1  0.82657200  0.93264200  0.07566300  1
  C  62  1  0.83104000  0.94170400  0.09860300  1
  C  65  1  0.83307800  0.92688200  0.13934700  1
  C  66  1  0.81022500  0.92065100  0.15718800  1
  C  67  1  0.81882300  0.92658300  0.18009300  1
  C  68  1  0.85189700  0.93779300  0.18512200  1
  C  69  1  0.87551300  0.94365700  0.16759400  1
  C  70  1  0.86551000  0.93855100  0.14492500  1
  C  77  1  0.83352000  0.95606500  0.05878600  1
  C  78  1  0.80507700  0.84155300  0.08279000  1
  C  79  1  0.79558100  0.91924100  0.19704300  1
  C  80  1  0.90832600  0.95309300  0.17244700  1
  C  85  1  0.67983800  0.07921400  0.61640000  1
  C  86  1  0.68963600  0.11223600  0.61073400  1
  C  87  1  0.69319500  0.12279700  0.58799500  1
  C  88  1  0.68773500  0.09886800  0.57054400  1
  C  89  1  0.67870100  0.06519200  0.57567500  1
  C  90  1  0.67421800  0.05613700  0.59861400  1
  C  93  1  0.67214000  0.07099300  0.63935700  1
  C  94  1  0.69500200  0.07719200  0.65719600  1
  C  95  1  0.68640800  0.07123900  0.68010000  1
  C  96  1  0.65332300  0.06005500  0.68512500  1
  C  97  1  0.62970500  0.05421300  0.66759800  1
  C  98  1  0.63970500  0.05933000  0.64493100  1
  C  105  1  0.67176300  0.04176200  0.55880200  1
  C  106  1  0.70015100  0.15629500  0.58280100  1
  C  107  1  0.70964700  0.07858900  0.69705100  1
  C  108  1  0.59689400  0.04478200  0.67245200  1
  C  113  1  0.33266600  0.42657200  0.63931300  1
  C  114  1  0.36531100  0.43780800  0.64474300  1
  C  115  1  0.37559000  0.44282300  0.66737100  1
  C  116  1  0.35207500  0.43724100  0.68500800  1
  C  117  1  0.31881500  0.42647700  0.68012700  1
  C  118  1  0.30990400  0.42072400  0.65726600  1
  C  121  1  0.32447800  0.41845700  0.61641300  1
  C  122  1  0.33047200  0.44121900  0.59847900  1
  C  123  1  0.32471900  0.43235100  0.57561800  1
  C  124  1  0.31378900  0.39916900  0.57069600  1
  C  125  1  0.30804600  0.37566600  0.58831300  1
  C  126  1  0.31306900  0.38587700  0.61095600  1
  C  133  1  0.29565600  0.41927500  0.69714900  1
  C  134  1  0.40852900  0.45196500  0.67210900  1
  C  135  1  0.33195800  0.45546500  0.55859900  1
  C  136  1  0.29874300  0.34280200  0.58351700  1
  C  141  1  0.17260800  0.57126200  0.13929600  1
  C  142  1  0.13997900  0.55997200  0.14471600  1
  C  143  1  0.12968500  0.55496900  0.16734200  1
  C  144  1  0.15318800  0.56056600  0.18498500  1
  C  145  1  0.18644300  0.57135800  0.18011200  1
  C  146  1  0.19535800  0.57713100  0.15725300  1
  C  149  1  0.18077700  0.57940800  0.11639500  1
  C  150  1  0.17481800  0.55663300  0.09846300  1
  C  151  1  0.18058000  0.56550200  0.07560200  1
  C  152  1  0.19146800  0.59869600  0.07068100  1
  C  153  1  0.19718700  0.62220400  0.08829800  1
  C  154  1  0.19216200  0.61199500  0.11094000  1
  C  161  1  0.20959600  0.57856200  0.19713700  1
  C  162  1  0.09674600  0.54580100  0.17206200  1
  C  163  1  0.17332700  0.54239300  0.05858300  1
  C  164  1  0.20646800  0.65507000  0.08349800  1
  C  169  1  0.67931900  0.91920500  0.38926700  1
  C  170  1  0.68919900  0.88621400  0.39493000  1
  C  171  1  0.69289100  0.87567600  0.41766300  1
  C  172  1  0.68743700  0.89960100  0.43511700  1
  C  173  1  0.67828700  0.93326000  0.43000100  1
  C  174  1  0.67370100  0.94227700  0.40705700  1
  C  177  1  0.67160500  0.92740400  0.36630900  1
  C  178  1  0.69446800  0.92116800  0.34847600  1
  C  179  1  0.68583500  0.92700200  0.32557300  1
  C  180  1  0.65274600  0.93811000  0.32052100  1
  C  181  1  0.62912200  0.94398100  0.33804000  1
  C  182  1  0.63913300  0.93897100  0.36071900  1
  C  189  1  0.67129600  0.95671300  0.44687300  1
  C  190  1  0.69993500  0.84218800  0.42283300  1
  C  191  1  0.70904900  0.91969000  0.30862000  1
  C  192  1  0.59630700  0.95334400  0.33314800  1
  C  197  1  0.82590700  0.07865100  0.88926600  1
  C  198  1  0.81595400  0.11162600  0.89492300  1
  C  199  1  0.81227400  0.12217000  0.91765600  1
  C  200  1  0.81775600  0.09825400  0.93511400  1
  C  201  1  0.82694800  0.06460400  0.92999900  1
  C  202  1  0.83155700  0.05559200  0.90705900  1
  C  205  1  0.83365000  0.07048300  0.86630900  1
  C  206  1  0.81077000  0.07667500  0.84847800  1
  C  207  1  0.81939800  0.07082300  0.82557500  1
  C  208  1  0.85250000  0.05975300  0.82052100  1
  C  209  1  0.87613300  0.05391400  0.83804000  1
  C  210  1  0.86612700  0.05893600  0.86071800  1
  C  217  1  0.83395400  0.04116000  0.94687300  1
  C  218  1  0.80519000  0.15565500  0.92281700  1
  C  219  1  0.79618100  0.07813300  0.80862300  1
  C  220  1  0.90895100  0.04456500  0.83314100  1
  C  225  1  0.83292800  0.57176700  0.13884000  1
  C  226  1  0.86600200  0.56214500  0.14449500  1
  C  227  1  0.87661500  0.55865400  0.16722700  1
  C  228  1  0.85268500  0.56403600  0.18469300  1
  C  229  1  0.81896600  0.57293400  0.17957800  1
  C  230  1  0.80986100  0.57734200  0.15664000  1
  C  233  1  0.82466400  0.57944100  0.11589000  1
  C  234  1  0.83084900  0.55659000  0.09804000  1
  C  235  1  0.82498300  0.56523500  0.07513500  1
  C  236  1  0.81391800  0.59836500  0.07011900  1
  C  237  1  0.80813400  0.62199100  0.08765600  1
  C  238  1  0.81314000  0.61192800  0.11032300  1
  C  245  1  0.79553800  0.57984700  0.19646500  1
  C  246  1  0.91015600  0.55185100  0.17239100  1
  C  247  1  0.83228700  0.54198100  0.05817800  1
  C  248  1  0.79886900  0.65486700  0.08282700  1
  C  253  1  0.67232500  0.42612500  0.63882700  1
  C  254  1  0.63927100  0.43581700  0.64448000  1
  C  255  1  0.62866600  0.43930400  0.66721400  1
  C  256  1  0.65259500  0.43390000  0.68467700  1
  C  257  1  0.68630500  0.42496300  0.67956100  1
  C  258  1  0.69539400  0.42052800  0.65662200  1
  C  261  1  0.68054900  0.41841200  0.61587400  1
  C  262  1  0.67439600  0.44126700  0.59802300  1
  C  263  1  0.68028000  0.43261900  0.57512000  1
  C  264  1  0.69131700  0.39948000  0.57010800  1
  C  265  1  0.69708300  0.37585400  0.58764700  1
  C  266  1  0.69206800  0.38592200  0.61031200  1
  C  273  1  0.70973200  0.41804300  0.69644300  1
  C  274  1  0.59513200  0.44614700  0.67237900  1
  C  275  1  0.67296500  0.45586400  0.55815800  1
  C  276  1  0.70634300  0.34297800  0.58282000  1
  C  281  1  0.18008200  0.07979900  0.88893000  1
  C  282  1  0.18993300  0.11274900  0.89472900  1
  C  283  1  0.19344600  0.12314400  0.91749900  1
  C  284  1  0.18790100  0.09909400  0.93486000  1
  C  285  1  0.17875200  0.06547900  0.92960700  1
  C  286  1  0.17423200  0.05662500  0.90662500  1
  C  289  1  0.17240800  0.07194500  0.86591700  1
  C  290  1  0.19556500  0.07794000  0.84823500  1
  C  291  1  0.18682500  0.07322000  0.82524500  1
  C  292  1  0.15330500  0.06370600  0.81998600  1
  C  293  1  0.12927200  0.05800800  0.83733500  1
  C  294  1  0.13958200  0.06171000  0.86010700  1
  C  301  1  0.17175900  0.04195100  0.94642500  1
  C  302  1  0.20043000  0.15661000  0.92277300  1
  C  303  1  0.21036100  0.08034500  0.80843900  1
  C  304  1  0.09586600  0.05075700  0.83205500  1
  C  309  1  0.32514500  0.91807100  0.38892400  1
  C  310  1  0.31526800  0.88512700  0.39471900  1
  C  311  1  0.31177600  0.87473000  0.41749000  1
  C  312  1  0.31731600  0.89878200  0.43485000  1
  C  313  1  0.32646300  0.93239900  0.42959700  1
  C  314  1  0.33099700  0.94124700  0.40661500  1
  C  317  1  0.33285400  0.92588800  0.36591100  1
  C  318  1  0.30967300  0.91994600  0.34823500  1
  C  319  1  0.31840600  0.92467300  0.32524400  1
  C  320  1  0.35193900  0.93413100  0.31998100  1
  C  321  1  0.37598700  0.93979400  0.33732500  1
  C  322  1  0.36568800  0.93609400  0.36009900  1
  C  329  1  0.33344700  0.95593200  0.44641200  1
  C  330  1  0.30482300  0.84125400  0.42276400  1
  C  331  1  0.29486000  0.91755100  0.30844100  1
  C  332  1  0.40939500  0.94700600  0.33203500  1
  C  337  1  0.67286800  0.57225400  0.36597500  1
  C  338  1  0.63985100  0.56243700  0.36033300  1
  C  339  1  0.62925300  0.55880200  0.33761100  1
  C  340  1  0.65316000  0.56422400  0.32013600  1
  C  341  1  0.68684700  0.57331800  0.32522500  1
  C  342  1  0.69590600  0.57787400  0.34816600  1
  C  345  1  0.68107800  0.57998500  0.38892500  1
  C  346  1  0.67490800  0.55712200  0.40677000  1
  C  347  1  0.68067700  0.56580500  0.42967300  1
  C  348  1  0.69162900  0.59895500  0.43471000  1
  C  349  1  0.69740500  0.62259100  0.41718100  1
  C  350  1  0.69249000  0.61251200  0.39450400  1
  C  357  1  0.71027900  0.58030700  0.30833700  1
  C  358  1  0.59573700  0.55180100  0.33248500  1
  C  359  1  0.67341200  0.54258100  0.44663500  1
  C  360  1  0.70658900  0.65547400  0.42204600  1
  C  365  1  0.83235500  0.42562300  0.86598600  1
  C  366  1  0.86536200  0.43547800  0.86034200  1
  C  367  1  0.87595000  0.43908300  0.83761400  1
  C  368  1  0.85203500  0.43365400  0.82014600  1
  C  369  1  0.81835300  0.42455700  0.82524400  1
  C  370  1  0.80930700  0.41999300  0.84818600  1
  C  373  1  0.82419000  0.41785900  0.88894000  1
  C  374  1  0.83032700  0.44074000  0.90678200  1
  C  375  1  0.82455100  0.43206000  0.92968500  1
  C  376  1  0.81363700  0.39890000  0.93472500  1
  C  377  1  0.80787800  0.37525600  0.91719600  1
  C  378  1  0.81279300  0.38532700  0.89451900  1
  C  385  1  0.79490800  0.41756800  0.80836000  1
  C  386  1  0.90946800  0.44606600  0.83247900  1
  C  387  1  0.83182300  0.45528400  0.94664500  1
  C  388  1  0.79870900  0.34237300  0.92206700  1
  C  393  1  0.32564500  0.07925000  0.61586600  1
  C  394  1  0.31566700  0.11215700  0.61006900  1
  C  395  1  0.31203500  0.12252300  0.58730400  1
  C  396  1  0.31757500  0.09847000  0.56994300  1
  C  397  1  0.32685000  0.06487600  0.57518400  1
  C  398  1  0.33149600  0.05607700  0.59817100  1
  C  401  1  0.33338400  0.07146600  0.63887900  1
  C  402  1  0.31021000  0.07744100  0.65655500  1
  C  403  1  0.31899800  0.07285700  0.67954200  1
  C  404  1  0.35254700  0.06350500  0.68482100  1
  C  405  1  0.37659200  0.05782200  0.66747900  1
  C  406  1  0.36626000  0.06139400  0.64469900  1
  C  413  1  0.33389100  0.04131700  0.55837400  1
  C  414  1  0.30497900  0.15598300  0.58205000  1
  C  415  1  0.29547500  0.07991400  0.69634800  1
  C  416  1  0.41001000  0.05070200  0.67279000  1
  C  421  1  0.17960700  0.91861000  0.11586400  1
  C  422  1  0.18966100  0.88572200  0.11007700  1
  C  423  1  0.19328200  0.87535000  0.08731100  1
  C  424  1  0.18771100  0.89939000  0.06994700  1
  C  425  1  0.17838800  0.93297400  0.07518400  1
  C  426  1  0.17371700  0.94177000  0.09816900  1
  C  429  1  0.17183200  0.92635900  0.13887900  1
  C  430  1  0.19503300  0.92044800  0.15654800  1
  C  431  1  0.18625300  0.92503400  0.17953800  1
  C  432  1  0.15268800  0.93432200  0.18482100  1
  C  433  1  0.12862600  0.93996000  0.16748300  1
  C  434  1  0.13894600  0.93639000  0.14470200  1
  C  441  1  0.17133100  0.95652400  0.05837300  1
  C  442  1  0.20038000  0.84189400  0.08206700  1
  C  443  1  0.20978500  0.91798500  0.19634000  1
  C  444  1  0.09520100  0.94703300  0.17280500  1
  C  449  1  0.27243900  0.43748200  0.73280600  1
  C  450  1  0.26473800  0.46801100  0.74383700  1
  C  451  1  0.24472100  0.46885900  0.76378600  1
  C  452  1  0.23286100  0.43830000  0.77326000  1
  C  453  1  0.24076500  0.40777600  0.76225100  1
  C  454  1  0.26027900  0.40736200  0.74240700  1
  C  456  1  0.24982000  0.52891000  0.76431300  1
  C  457  1  0.26965800  0.52805700  0.74458000  1
  C  463  1  0.28243700  0.55678600  0.73453700  1
  C  469  1  0.23279900  0.56035300  0.23280100  1
  C  470  1  0.24044000  0.52982200  0.24385300  1
  C  471  1  0.26043300  0.52896600  0.26381200  1
  C  472  1  0.27231800  0.55952000  0.27328400  1
  C  473  1  0.26448900  0.59003900  0.26224600  1
  C  474  1  0.24499000  0.59046300  0.24239700  1
  C  476  1  0.25524200  0.46892400  0.26436600  1
  C  477  1  0.23542900  0.46978500  0.24462100  1
  C  483  1  0.22261800  0.44106400  0.23458700  1
  C  489  1  0.81603400  0.01850100  0.98272600  1
  C  490  1  0.78550700  0.01088500  0.99377900  1
  C  491  1  0.78467900  0.99104000  0.01380100  1
  C  492  1  0.81525600  0.97933000  0.02332200  1
  C  493  1  0.84578000  0.98715600  0.01229700  1
  C  494  1  0.84617600  0.00648900  0.99237300  1
  C  496  1  0.72462500  0.99604700  0.01430000  1
  C  497  1  0.72545900  0.01571800  0.99449000  1
  C  503  1  0.69670900  0.02835100  0.98438600  1
  C  509  1  0.68921600  0.97936000  0.48272600  1
  C  510  1  0.71974800  0.98693500  0.49378900  1
  C  511  1  0.72058400  0.00677000  0.51381600  1
  C  512  1  0.69001200  0.01849400  0.52334000  1
  C  513  1  0.65948800  0.01072500  0.51229600  1
  C  514  1  0.65908200  0.99139400  0.49237000  1
  C  516  1  0.78063300  0.00169500  0.51433100  1
  C  517  1  0.77978900  0.98203800  0.49451400  1
  C  523  1  0.80853100  0.96938200  0.48441300  1
  C  529  1  0.73297200  0.56239400  0.27249000  1
  C  530  1  0.74062800  0.53186500  0.26144900  1
  C  531  1  0.76053100  0.53103400  0.24144900  1
  C  532  1  0.77226600  0.56160600  0.23193300  1
  C  533  1  0.76439700  0.59213000  0.24294700  1
  C  534  1  0.74501000  0.59253100  0.26284900  1
  C  536  1  0.75553100  0.47097800  0.24095400  1
  C  537  1  0.73580800  0.47181600  0.26074100  1
  C  543  1  0.72315400  0.44306900  0.27083500  1
  C  549  1  0.77223600  0.43547600  0.77250200  1
  C  550  1  0.76463500  0.46600200  0.76144200  1
  C  551  1  0.74476400  0.46684300  0.74142900  1
  C  552  1  0.73301700  0.43627400  0.73191100  1
  C  553  1  0.74081300  0.40575300  0.74295200  1
  C  554  1  0.76017700  0.40534400  0.76286400  1
  C  556  1  0.74984300  0.52689000  0.74091200  1
  C  557  1  0.76953300  0.52604600  0.76071400  1
  C  563  1  0.78220900  0.55478500  0.77080400  1
  C  569  1  0.18919000  0.97933700  0.02250800  1
  C  570  1  0.21971000  0.98694000  0.01143600  1
  C  571  1  0.22053600  0.00680100  0.99141700  1
  C  572  1  0.18996200  0.01853800  0.98190000  1
  C  573  1  0.15944600  0.01071900  0.99294100  1
  C  574  1  0.15905300  0.99138100  0.01286800  1
  C  576  1  0.28058700  0.00175100  0.99089600  1
  C  577  1  0.27975600  0.98205600  0.01069500  1
  C  583  1  0.30850300  0.96937400  0.02077400  1
  C  589  1  0.31603600  0.01851800  0.52250600  1
  C  590  1  0.28551700  0.01096100  0.51142100  1
  C  591  1  0.28468400  0.99111000  0.49139700  1
  C  592  1  0.31525300  0.97935500  0.48188100  1
  C  593  1  0.34576400  0.98711100  0.49294500  1
  C  594  1  0.34616600  0.00644600  0.51287400  1
  C  596  1  0.22463800  0.99623800  0.49085400  1
  C  597  1  0.22547700  0.01592000  0.51065900  1
  C  603  1  0.19673700  0.02862900  0.52073100  1
  C  609  1  0.77229900  0.93737700  0.23274700  1
  C  610  1  0.76470500  0.96790100  0.24381700  1
  C  611  1  0.74483200  0.96874400  0.26383100  1
  C  612  1  0.73303400  0.93818200  0.27333800  1
  C  613  1  0.74083900  0.90766400  0.26229200  1
  C  614  1  0.76020000  0.90725400  0.24237600  1
  C  616  1  0.74996300  0.02879600  0.26436100  1
  C  617  1  0.76967300  0.02794600  0.24456900  1
  C  623  1  0.78241500  0.05667600  0.23450200  1
  C  629  1  0.73292400  0.06045900  0.73275500  1
  C  630  1  0.74047500  0.02993600  0.74384400  1
  C  631  1  0.76034500  0.02908900  0.76385900  1
  C  632  1  0.77217300  0.05964800  0.77335500  1
  C  633  1  0.76442900  0.09016100  0.76228300  1
  C  634  1  0.74506300  0.09057500  0.74237100  1
  C  636  1  0.75513200  0.96904500  0.76442100  1
  C  637  1  0.73542400  0.96989900  0.74462800  1
  C  643  1  0.72264500  0.94117500  0.73457600  1
  C  649  1  0.31422400  0.51864600  0.48276700  1
  C  650  1  0.28369200  0.51100500  0.49381400  1
  C  651  1  0.28284900  0.49110900  0.51381800  1
  C  652  1  0.31341300  0.47932200  0.52332400  1
  C  653  1  0.34393700  0.48716800  0.51229800  1
  C  654  1  0.34434800  0.50656000  0.49239900  1
  C  656  1  0.22279600  0.49618200  0.51432400  1
  C  657  1  0.22364600  0.51590500  0.49453700  1
  C  663  1  0.19491200  0.52860900  0.48445600  1
  C  669  1  0.19102000  0.47921900  0.98274900  1
  C  670  1  0.22155200  0.48680700  0.99381100  1
  C  671  1  0.22240700  0.50669500  0.01381600  1
  C  672  1  0.19185100  0.51851100  0.02331800  1
  C  673  1  0.16132800  0.51073400  0.01227000  1
  C  674  1  0.16090400  0.49134000  0.99237300  1
  C  676  1  0.28245500  0.50152900  0.01434700  1
  C  677  1  0.28159100  0.48181700  0.99455700  1
  C  683  1  0.31031500  0.46907500  0.98448400  1
  C  689  1  0.23312800  0.06250200  0.77254900  1
  C  690  1  0.24068000  0.03198000  0.76146600  1
  C  691  1  0.26043500  0.03115500  0.74140200  1
  C  692  1  0.27211000  0.06173200  0.73185500  1
  C  693  1  0.26434100  0.09225100  0.74290800  1
  C  694  1  0.24510900  0.09264200  0.76288100  1
  C  696  1  0.25540200  0.97110100  0.74090000  1
  C  697  1  0.23581000  0.97193000  0.76074400  1
  C  703  1  0.22319300  0.94318300  0.77085800  1
  C  709  1  0.27210800  0.93537900  0.27254400  1
  C  710  1  0.26459700  0.96590000  0.26144600  1
  C  711  1  0.24484700  0.96672600  0.24138000  1
  C  712  1  0.23315800  0.93615200  0.23183900  1
  C  713  1  0.24086700  0.90563800  0.24291500  1
  C  714  1  0.26010100  0.90524400  0.26288800  1
  C  716  1  0.24994800  0.02677500  0.24085100  1
  C  717  1  0.26953200  0.02594300  0.26069900  1
  C  723  1  0.28217600  0.05468600  0.27080300  1
  C  729  1  0.69108700  0.47917100  0.52245900  1
  C  730  1  0.72161000  0.48681200  0.51139900  1
  C  731  1  0.72245400  0.50675000  0.49141100  1
  C  732  1  0.69189500  0.51857800  0.48191500  1
  C  733  1  0.66137800  0.51072900  0.49295000  1
  C  734  1  0.66096900  0.49130500  0.51284100  1
  C  736  1  0.78250500  0.50163000  0.49088100  1
  C  737  1  0.78165400  0.48185700  0.51064400  1
  C  743  1  0.81038600  0.46909000  0.52069500  1
  C  749  1  0.81416900  0.51868600  0.02247200  1
  C  750  1  0.78364700  0.51110300  0.01139000  1
  C  751  1  0.78279900  0.49117500  0.99139900  1
  C  752  1  0.81335300  0.47931100  0.98191300  1
  C  753  1  0.84386400  0.48709100  0.99297800  1
  C  754  1  0.84428100  0.50651200  0.01286700  1
  C  756  1  0.72275800  0.49639600  0.99083100  1
  C  757  1  0.72361400  0.51615600  0.01059900  1
  C  763  1  0.69488900  0.52896300  0.02063600  1
  C  769  1  0.19469600  0.28546200  0.91282500  1
  C  770  1  0.22446800  0.26734800  0.91768400  1
  C  771  1  0.22524800  0.23156500  0.91677100  1
  C  772  1  0.19530600  0.21385100  0.91124900  1
  C  773  1  0.16609100  0.23212300  0.90580400  1
  C  774  1  0.16583000  0.26733800  0.90651100  1
  C  776  1  0.28400600  0.23314100  0.92579700  1
  C  777  1  0.28313700  0.26849000  0.92701100  1
  C  783  1  0.31118100  0.28771100  0.93208300  1
  C  789  1  0.31051300  0.71241100  0.41276100  1
  C  790  1  0.28076300  0.73052200  0.41768100  1
  C  791  1  0.27998500  0.76630700  0.41677400  1
  C  792  1  0.30990900  0.78401900  0.41120400  1
  C  793  1  0.33912500  0.76574700  0.40576000  1
  C  794  1  0.33938800  0.73053200  0.40646800  1
  C  796  1  0.22124700  0.76473600  0.42586100  1
  C  797  1  0.22211900  0.72938700  0.42707900  1
  C  803  1  0.19408000  0.71016900  0.43217000  1
  C  809  1  0.96630900  0.94147600  0.16324800  1
  C  810  1  0.98449100  0.97122400  0.16805200  1
  C  811  1  0.02026900  0.97196000  0.16701000  1
  C  812  1  0.03790200  0.94199300  0.16142600  1
  C  813  1  0.01955400  0.91279900  0.15605000  1
  C  814  1  0.98434500  0.91258600  0.15687300  1
  C  816  1  0.01883500  0.03072300  0.17602900  1
  C  817  1  0.98349400  0.02989300  0.17738100  1
  C  823  1  0.96435400  0.05796900  0.18251200  1
  C  829  1  0.53889800  0.05632000  0.66318100  1
  C  830  1  0.52073700  0.02658300  0.66804500  1
  C  831  1  0.48495700  0.02583100  0.66701600  1
  C  832  1  0.46730800  0.05577000  0.66138700  1
  C  833  1  0.48564000  0.08497500  0.65601200  1
  C  834  1  0.52084500  0.08521000  0.65683200  1
  C  836  1  0.48642300  0.96708700  0.67609000  1
  C  837  1  0.52176400  0.96793600  0.67744000  1
  C  843  1  0.54092200  0.93987700  0.68258600  1
  C  849  1  0.31043300  0.28485200  0.59253900  1
  C  850  1  0.28069000  0.26671800  0.58763400  1
  C  851  1  0.28001000  0.23092000  0.58833600  1
  C  852  1  0.31002400  0.21322100  0.59370100  1
  C  853  1  0.33920800  0.23150600  0.59920000  1
  C  854  1  0.33937600  0.26672800  0.59868700  1
  C  856  1  0.22120900  0.23245600  0.57943300  1
  C  857  1  0.22197600  0.26782300  0.57844200  1
  C  863  1  0.19385500  0.28703100  0.57355000  1
  C  869  1  0.19485700  0.71302600  0.09259700  1
  C  870  1  0.22459200  0.73114400  0.08763700  1
  C  871  1  0.22529000  0.76694200  0.08833200  1
  C  872  1  0.19530300  0.78465600  0.09374100  1
  C  873  1  0.16610500  0.76639000  0.09923300  1
  C  874  1  0.16591500  0.73116700  0.09872200  1
  C  876  1  0.28407600  0.76537300  0.07937900  1
  C  877  1  0.28328500  0.73000700  0.07838500  1
  C  883  1  0.31139200  0.71078100  0.07348200  1
  C  889  1  0.53831100  0.94160900  0.34213900  1
  C  890  1  0.52013000  0.97134000  0.33728200  1
  C  891  1  0.48433700  0.97200000  0.33810700  1
  C  892  1  0.46669500  0.94197500  0.34353800  1
  C  893  1  0.48503500  0.91280200  0.34897300  1
  C  894  1  0.52025000  0.91265600  0.34835300  1
  C  896  1  0.48577800  0.03080200  0.32920100  1
  C  897  1  0.52113400  0.03005000  0.32808000  1
  C  903  1  0.54028900  0.05818500  0.32312700  1
  C  909  1  0.96695400  0.05622100  0.84220800  1
  C  910  1  0.98511800  0.02650000  0.83729300  1
  C  911  1  0.02091200  0.02582100  0.83810700  1
  C  912  1  0.03857100  0.05581600  0.84358100  1
  C  913  1  0.02025000  0.08500500  0.84901500  1
  C  914  1  0.98503300  0.08517100  0.84839700  1
  C  916  1  0.01943700  0.96703500  0.82914900  1
  C  917  1  0.98407900  0.96781000  0.82802700  1
  C  923  1  0.96490600  0.93969100  0.82306300  1
  C  929  1  0.81047400  0.71277500  0.09224700  1
  C  930  1  0.78074300  0.73100400  0.08747600  1
  C  931  1  0.78003000  0.76677400  0.08862100  1
  C  932  1  0.80999400  0.78435800  0.09427800  1
  C  933  1  0.83916800  0.76596100  0.09962600  1
  C  934  1  0.83935900  0.73075500  0.09870600  1
  C  936  1  0.72128400  0.76543600  0.07954300  1
  C  937  1  0.72209500  0.73010500  0.07809200  1
  C  943  1  0.69401800  0.71101700  0.07287700  1
  C  949  1  0.69478900  0.28506500  0.59231400  1
  C  950  1  0.72450000  0.26684100  0.58748300  1
  C  951  1  0.72521500  0.23106900  0.58862000  1
  C  952  1  0.69526800  0.21348600  0.59432400  1
  C  953  1  0.66609300  0.23188000  0.59967300  1
  C  954  1  0.66589700  0.26708500  0.59875200  1
  C  956  1  0.78393900  0.23240400  0.57948100  1
  C  957  1  0.78312500  0.26773500  0.57802800  1
  C  963  1  0.81119400  0.28682500  0.57279500  1
  C  969  1  0.69482900  0.71339000  0.41282900  1
  C  970  1  0.72452500  0.73163900  0.41765900  1
  C  971  1  0.72514200  0.76742700  0.41672500  1
  C  972  1  0.69511300  0.78499800  0.41120700  1
  C  973  1  0.66597500  0.76658800  0.40579000  1
  C  974  1  0.66587400  0.73137300  0.40651500  1
  C  976  1  0.78391800  0.76612900  0.42571400  1
  C  977  1  0.78321100  0.73077500  0.42694100  1
  C  983  1  0.81135700  0.71169500  0.43199100  1
  C  989  1  0.81038100  0.28445000  0.91277300  1
  C  990  1  0.78069300  0.26622100  0.91765700  1
  C  991  1  0.78005300  0.23043400  0.91673200  1
  C  992  1  0.81005500  0.21284200  0.91117500  1
  C  993  1  0.83921100  0.23123200  0.90576500  1
  C  994  1  0.83933600  0.26644700  0.90648900  1
  C  996  1  0.72129200  0.23177300  0.92576600  1
  C  997  1  0.72202700  0.26712500  0.92699400  1
  C  1003  1  0.69389800  0.28622500  0.93205300  1
  C  1009  1  0.46638400  0.44051400  0.66259300  1
  C  1010  1  0.48453500  0.47028000  0.66740300  1
  C  1011  1  0.52031300  0.47105500  0.66636500  1
  C  1012  1  0.53798500  0.44111900  0.66077200  1
  C  1013  1  0.51967000  0.41191300  0.65536900  1
  C  1014  1  0.48445700  0.41165700  0.65619100  1
  C  1016  1  0.51881900  0.52979900  0.67543600  1
  C  1017  1  0.48348100  0.52893000  0.67677900  1
  C  1023  1  0.46431100  0.55697200  0.68194400  1
  C  1029  1  0.03889800  0.55728800  0.16251000  1
  C  1030  1  0.02071800  0.52756500  0.16738700  1
  C  1031  1  0.98493700  0.52682900  0.16636900  1
  C  1032  1  0.96729800  0.55676900  0.16073100  1
  C  1033  1  0.98564000  0.58595500  0.15532300  1
  C  1034  1  0.02085300  0.58617300  0.15613300  1
  C  1036  1  0.98637100  0.46810600  0.17549700  1
  C  1037  1  0.02171400  0.46893700  0.17683000  1
  C  1043  1  0.04085800  0.44088000  0.18200400  1
  C  1049  1  0.03823800  0.44067700  0.84279800  1
  C  1050  1  0.02006600  0.47041300  0.83793200  1
  C  1051  1  0.98427500  0.47109300  0.83875700  1
  C  1052  1  0.96661300  0.44108900  0.84420500  1
  C  1053  1  0.98493700  0.41191500  0.84967000  1
  C  1054  1  0.02016100  0.41175000  0.84904500  1
  C  1056  1  0.98573600  0.52987200  0.82979000  1
  C  1057  1  0.02109500  0.52910400  0.82867600  1
  C  1063  1  0.04026100  0.55721500  0.82368600  1
  C  1069  1  0.46697100  0.55714500  0.34286700  1
  C  1070  1  0.48514500  0.52743200  0.33794700  1
  C  1071  1  0.52093800  0.52676200  0.33876100  1
  C  1072  1  0.53859500  0.55675300  0.34424700  1
  C  1073  1  0.52026500  0.58592700  0.34970800  1
  C  1074  1  0.48504500  0.58608500  0.34908800  1
  C  1076  1  0.51948200  0.46799300  0.32975000  1
  C  1077  1  0.48412600  0.46875900  0.32863700  1
  C  1083  1  0.46496300  0.44064700  0.32364100  1
  N  455  1  0.23814400  0.49962400  0.77318600  1
  N  458  1  0.27609900  0.49757600  0.73532600  1
  N  467  1  0.29209900  0.43842500  0.71449900  1
  N  468  1  0.21295600  0.43933900  0.79142700  1
  N  475  1  0.26695200  0.49820100  0.27323000  1
  N  478  1  0.22904700  0.50026700  0.23535000  1
  N  487  1  0.21315900  0.55940700  0.21448400  1
  N  488  1  0.29221900  0.55846300  0.29145100  1
  N  495  1  0.75392400  0.98449300  0.02322200  1
  N  498  1  0.75593200  0.02212500  0.98521500  1
  N  507  1  0.81511300  0.03811800  0.96441500  1
  N  508  1  0.81425900  0.95944400  0.04147900  1
  N  515  1  0.75134100  0.01327700  0.52324800  1
  N  518  1  0.74931500  0.97567000  0.48522900  1
  N  527  1  0.69012500  0.95973000  0.46442200  1
  N  528  1  0.69102400  0.03837800  0.54149800  1
  N  535  1  0.76710500  0.50027700  0.23204100  1
  N  538  1  0.72936900  0.50229200  0.27000200  1
  N  547  1  0.71330700  0.56147800  0.29078600  1
  N  548  1  0.79218700  0.56061200  0.21378800  1
  N  555  1  0.73824300  0.49759800  0.73200400  1
  N  558  1  0.77591900  0.49557000  0.76999200  1
  N  567  1  0.79188300  0.43639000  0.79080600  1
  N  568  1  0.71310600  0.43728800  0.71376100  1
  N  575  1  0.25128800  0.01333800  0.98199100  1
  N  578  1  0.24928500  0.97566500  0.01997900  1
  N  587  1  0.19011200  0.95967200  0.04080500  1
  N  588  1  0.19096000  0.03847300  0.96375800  1
  N  595  1  0.25392900  0.98461900  0.48195700  1
  N  598  1  0.25594700  0.02226700  0.51995700  1
  N  607  1  0.31512500  0.03819600  0.54079700  1
  N  608  1  0.31423900  0.95941900  0.46374000  1
  N  615  1  0.73833100  0.99950900  0.27325900  1
  N  618  1  0.77602900  0.99746800  0.23528400  1
  N  627  1  0.79188800  0.93833600  0.21440900  1
  N  628  1  0.71319400  0.93923900  0.29153200  1
  N  635  1  0.76680400  0.99832700  0.77330200  1
  N  638  1  0.72911300  0.00037500  0.73532600  1
  N  647  1  0.71332400  0.05950500  0.71442400  1
  N  648  1  0.79204400  0.05858500  0.79153400  1
  N  655  1  0.25208400  0.48457300  0.52323100  1
  N  658  1  0.25412400  0.52230100  0.48527000  1
  N  667  1  0.31326500  0.53822100  0.46442700  1
  N  668  1  0.31236400  0.45950600  0.54152600  1
  N  675  1  0.25317300  0.51318200  0.02324300  1
  N  678  1  0.25111000  0.47547100  0.98527600  1
  N  687  1  0.19197200  0.45964900  0.96440500  1
  N  688  1  0.19291700  0.53835600  0.04150600  1
  N  695  1  0.26693400  0.00040000  0.73196300  1
  N  698  1  0.22945700  0.00240300  0.77003900  1
  N  707  1  0.21352800  0.06157300  0.79087000  1
  N  708  1  0.29196800  0.06072100  0.71368100  1
  N  715  1  0.23838600  0.99747800  0.23192600  1
  N  718  1  0.27584800  0.99547300  0.27000900  1
  N  727  1  0.29172000  0.93630500  0.29086200  1
  N  728  1  0.21327000  0.93716800  0.21368000  1
  N  735  1  0.75321900  0.51328400  0.48199600  1
  N  738  1  0.75117600  0.47546800  0.51991700  1
  N  747  1  0.69204300  0.45952900  0.54077800  1
  N  748  1  0.69294900  0.53846200  0.46373400  1
  N  755  1  0.75203700  0.48469600  0.98196400  1
  N  758  1  0.75409000  0.52248900  0.01989300  1
  N  767  1  0.81321500  0.53831900  0.04079600  1
  N  768  1  0.81229100  0.45940100  0.96374800  1
  N  775  1  0.25543000  0.21606400  0.92060300  1
  N  778  1  0.25340200  0.28374500  0.92264700  1
  N  787  1  0.19207900  0.31873200  0.91179000  1
  N  788  1  0.19259200  0.18071400  0.90931500  1
  N  795  1  0.24981400  0.78181000  0.42063900  1
  N  798  1  0.25184000  0.71413000  0.42267400  1
  N  807  1  0.31315900  0.67913500  0.41179000  1
  N  808  1  0.31263000  0.81715800  0.40929400  1
  N  815  1  0.03583700  0.00212200  0.17077800  1
  N  818  1  0.96816400  0.00017400  0.17307200  1
  N  827  1  0.93304200  0.93891800  0.16224900  1
  N  828  1  0.07101900  0.93919700  0.15941400  1
  N  835  1  0.46940600  0.99566600  0.67081500  1
  N  838  1  0.53707600  0.99764900  0.67309200  1
  N  847  1  0.57216900  0.05892300  0.66224300  1
  N  848  1  0.43418600  0.05855500  0.65939700  1
  N  855  1  0.24985400  0.21538800  0.58446800  1
  N  858  1  0.25168700  0.28310000  0.58283700  1
  N  867  1  0.31298400  0.31812200  0.59371200  1
  N  868  1  0.31282300  0.18007900  0.59551100  1
  N  875  1  0.25544700  0.78245800  0.08443500  1
  N  878  1  0.25357700  0.71474800  0.08281500  1
  N  887  1  0.19226600  0.67975500  0.09371400  1
  N  888  1  0.19251700  0.81780400  0.09552800  1
  N  895  1  0.46876100  0.00214700  0.33429500  1
  N  898  1  0.53646400  0.00034500  0.33242400  1
  N  907  1  0.57157600  0.93909600  0.34328300  1
  N  908  1  0.43356800  0.93911600  0.34542100  1
  N  915  1  0.03646900  0.99567100  0.83426500  1
  N  918  1  0.96876700  0.99751100  0.83241000  1
  N  927  1  0.93368700  0.05877600  0.84329300  1
  N  928  1  0.07170100  0.05866000  0.84544300  1
  N  935  1  0.74988300  0.78238500  0.08487000  1
  N  938  1  0.75179300  0.71472800  0.08238200  1
  N  947  1  0.81297900  0.67949700  0.09316300  1
  N  948  1  0.81279800  0.81748000  0.09630300  1
  N  955  1  0.75535000  0.21545500  0.58483300  1
  N  958  1  0.75344000  0.28311500  0.58235900  1
  N  967  1  0.69225600  0.31834800  0.59316700  1
  N  968  1  0.69246200  0.18036100  0.59632700  1
  N  975  1  0.75525700  0.78307000  0.42053100  1
  N  978  1  0.75353800  0.71537500  0.42260500  1
  N  987  1  0.69239200  0.68010900  0.41177100  1
  N  988  1  0.69222600  0.81812700  0.40930700  1
  N  995  1  0.74993500  0.21481100  0.92056400  1
  N  998  1  0.75169800  0.28250200  0.92262600  1
  N  1007  1  0.81286400  0.31773000  0.91177600  1
  N  1008  1  0.81292400  0.17971000  0.90929500  1
  N  1015  1  0.53585100  0.50122800  0.67016300  1
  N  1018  1  0.46818400  0.49920700  0.67244500  1
  N  1027  1  0.43310400  0.43791800  0.66167200  1
  N  1028  1  0.57112400  0.43840300  0.65881800  1
  N  1035  1  0.96936900  0.49668500  0.17020400  1
  N  1038  1  0.03704100  0.49863000  0.17245200  1
  N  1047  1  0.07218400  0.55985400  0.16161900  1
  N  1048  1  0.93415600  0.55952500  0.15880800  1
  N  1055  1  0.96871100  0.50123800  0.83491300  1
  N  1058  1  0.03641100  0.49940300  0.83304700  1
  N  1067  1  0.07152000  0.43816700  0.84387500  1
  N  1068  1  0.93346600  0.43829500  0.84604100  1
  N  1075  1  0.53650600  0.49662400  0.33489000  1
  N  1078  1  0.46880600  0.49844700  0.33304200  1
  N  1087  1  0.43368600  0.55966500  0.34390100  1
  N  1088  1  0.57174200  0.55956000  0.34605400  1
  O  8  1  0.14269800  0.44179900  0.79870500  1
  O  15  1  0.19551200  0.38992300  0.95684300  1
  O  36  1  0.36249500  0.55601800  0.29871900  1
  O  43  1  0.30972300  0.60794900  0.45685300  1
  O  64  1  0.81484700  0.88927900  0.04846000  1
  O  71  1  0.86154400  0.94224100  0.20706200  1
  O  92  1  0.69041600  0.10855400  0.54847200  1
  O  99  1  0.64367400  0.05559500  0.70706500  1
  O  120  1  0.36195000  0.44154100  0.70691700  1
  O  127  1  0.30949400  0.38936900  0.54876900  1
  O  148  1  0.14330500  0.55625600  0.20689000  1
  O  155  1  0.19576300  0.60849900  0.04875500  1
  O  176  1  0.69023300  0.88989400  0.45717800  1
  O  183  1  0.64312400  0.94245000  0.29856200  1
  O  204  1  0.81495000  0.10796300  0.95717200  1
  O  211  1  0.86211600  0.05540300  0.79856400  1
  O  232  1  0.86241200  0.56142200  0.20675800  1
  O  239  1  0.80955300  0.60805200  0.04817900  1
  O  260  1  0.64287600  0.43653300  0.70674400  1
  O  267  1  0.69569500  0.38978800  0.54817100  1
  O  288  1  0.19060000  0.10863300  0.95695900  1
  O  295  1  0.14378700  0.06082100  0.79789300  1
  O  316  1  0.31462000  0.88924600  0.45695100  1
  O  323  1  0.36145300  0.93700800  0.29788700  1
  O  344  1  0.64341000  0.56145500  0.29808400  1
  O  351  1  0.69589400  0.60861700  0.45666600  1
  O  372  1  0.86177500  0.43641200  0.79809100  1
  O  379  1  0.80937200  0.38924100  0.95668100  1
  O  400  1  0.31475300  0.10802200  0.54785300  1
  O  407  1  0.36204500  0.06075800  0.70692700  1
  O  428  1  0.19054300  0.88983600  0.04785900  1
  O  435  1  0.14319600  0.93705800  0.20692900  1
  O  461  1  0.24261500  0.55828200  0.77479400  1
  O  464  1  0.31028800  0.55533000  0.72592800  1
  O  465  1  0.26371800  0.57833600  0.72630000  1
  O  481  1  0.26238600  0.43955000  0.27486700  1
  O  484  1  0.19478100  0.44255200  0.22596100  1
  O  485  1  0.24131700  0.41947900  0.22636800  1
  O  501  1  0.69525800  0.98889100  0.02480400  1
  O  504  1  0.69812500  0.05611900  0.97565400  1
  O  505  1  0.67520700  0.00951100  0.97621800  1
  O  521  1  0.80999900  0.00880900  0.52484500  1
  O  524  1  0.80709000  0.94162100  0.47567300  1
  O  525  1  0.83005800  0.98820300  0.47625700  1
  O  541  1  0.76272000  0.44161100  0.23046400  1
  O  544  1  0.69536100  0.44448300  0.27953000  1
  O  545  1  0.74197600  0.42157200  0.27903200  1
  O  561  1  0.74271100  0.55625900  0.73040400  1
  O  564  1  0.80998700  0.55334700  0.77952000  1
  O  565  1  0.76340000  0.57631000  0.77898100  1
  O  581  1  0.30994900  0.00889400  0.98038300  1
  O  584  1  0.30707000  0.94159600  0.02949000  1
  O  585  1  0.33005500  0.98817300  0.02892800  1
  O  601  1  0.19527600  0.98914200  0.48032600  1
  O  604  1  0.19819700  0.05640000  0.52945500  1
  O  605  1  0.17515400  0.00985300  0.52887000  1
  O  621  1  0.74284700  0.05816500  0.27487300  1
  O  624  1  0.81020300  0.05520400  0.22580500  1
  O  625  1  0.76366400  0.07826700  0.22634400  1
  O  641  1  0.76220000  0.93968100  0.77495300  1
  O  644  1  0.69485900  0.94267300  0.72587800  1
  O  645  1  0.74136800  0.91954900  0.72643000  1
  O  661  1  0.19342300  0.48902800  0.52482000  1
  O  664  1  0.19635900  0.55640700  0.47576900  1
  O  665  1  0.17338000  0.50982500  0.47626200  1
  O  681  1  0.31182600  0.50863100  0.02485800  1
  O  684  1  0.30883400  0.44128500  0.97579100  1
  O  685  1  0.33188500  0.48782600  0.97630600  1
  O  701  1  0.26250400  0.94173700  0.73037400  1
  O  704  1  0.19546200  0.94461100  0.77964300  1
  O  705  1  0.24204400  0.92164300  0.77897400  1
  O  721  1  0.24288900  0.05613500  0.23031000  1
  O  724  1  0.30990400  0.05323700  0.27959100  1
  O  725  1  0.26334700  0.07625300  0.27890500  1
  O  741  1  0.81187500  0.50878100  0.48038000  1
  O  744  1  0.80891800  0.44127200  0.52935000  1
  O  745  1  0.83196600  0.48782100  0.52888600  1
  O  761  1  0.69339100  0.48930200  0.98030900  1
  O  764  1  0.69639300  0.55677400  0.02930000  1
  O  765  1  0.67326400  0.51026700  0.02880700  1
  O  781  1  0.31293300  0.21593900  0.92914300  1
  O  784  1  0.31422600  0.31501700  0.92289300  1
  O  785  1  0.32555500  0.28535900  0.95054600  1
  O  801  1  0.19232600  0.78193800  0.42922800  1
  O  804  1  0.19102300  0.68285800  0.42298500  1
  O  805  1  0.17972100  0.71253100  0.45063600  1
  O  821  1  0.03610000  0.05963200  0.17929800  1
  O  824  1  0.93696000  0.06102900  0.17344000  1
  O  825  1  0.96691700  0.07240500  0.20093900  1
  O  841  1  0.46917500  0.93817200  0.67937900  1
  O  844  1  0.56831500  0.93682200  0.67351400  1
  O  845  1  0.53835900  0.92545300  0.70101700  1
  O  861  1  0.19231500  0.21522400  0.57602700  1
  O  864  1  0.19073200  0.31415100  0.58297700  1
  O  865  1  0.17949200  0.28499000  0.55506900  1
  O  881  1  0.31297300  0.78258800  0.07595500  1
  O  884  1  0.31451000  0.68365900  0.08290600  1
  O  885  1  0.32574300  0.71282000  0.05499600  1
  O  901  1  0.46850300  0.05968900  0.32586400  1
  O  904  1  0.56749700  0.06130800  0.33243900  1
  O  905  1  0.53805000  0.07260600  0.30467600  1
  O  921  1  0.03669300  0.93814200  0.82579400  1
  O  924  1  0.93769800  0.93657300  0.83237500  1
  O  925  1  0.96714300  0.92528000  0.80460900  1
  O  941  1  0.69239400  0.78274400  0.07629800  1
  O  944  1  0.69092100  0.68356800  0.08186600  1
  O  945  1  0.67962200  0.71371100  0.05444300  1
  O  961  1  0.81282300  0.21509900  0.57621400  1
  O  964  1  0.81430400  0.31427600  0.58177800  1
  O  965  1  0.82557500  0.28411900  0.55435800  1
  O  981  1  0.81277100  0.78346400  0.42903700  1
  O  984  1  0.81454300  0.68442700  0.42276900  1
  O  985  1  0.82572300  0.71408500  0.45045200  1
  O  1001  1  0.69243200  0.21445700  0.92910200  1
  O  1004  1  0.69072300  0.31349600  0.92283400  1
  O  1005  1  0.67953700  0.28384000  0.95051700  1
  O  1021  1  0.53605400  0.55871600  0.67874200  1
  O  1024  1  0.43692200  0.56003200  0.67286400  1
  O  1025  1  0.46683100  0.57132800  0.70040200  1
  O  1041  1  0.96910800  0.43921100  0.17882600  1
  O  1044  1  0.06823600  0.43777800  0.17291700  1
  O  1045  1  0.03833000  0.42654000  0.20046600  1
  O  1061  1  0.96847500  0.55875700  0.82641700  1
  O  1064  1  0.06746100  0.56035800  0.83300500  1
  O  1065  1  0.03805900  0.57154600  0.80520000  1
  O  1081  1  0.53675000  0.43911600  0.32636200  1
  O  1084  1  0.43776500  0.43749200  0.33296100  1
  O  1085  1  0.46716700  0.42632400  0.30515300  1
