# generated using pymatgen
data_H27(C21N2)2
_symmetry_space_group_name_H-M   'P 1'
_cell_length_a   68.65670000
_cell_length_b   68.65670000
_cell_length_c   68.65670000
_cell_angle_alpha   90.00000000
_cell_angle_beta   90.00000000
_cell_angle_gamma   90.00000000
_symmetry_Int_Tables_number   1
_chemical_formula_structural   H27(C21N2)2
_chemical_formula_sum   'H324 C504 N48'
_cell_volume   323630.00160265
_cell_formula_units_Z   12
loop_
 _symmetry_equiv_pos_site_id
 _symmetry_equiv_pos_as_xyz
  1  'x, y, z'
loop_
 _atom_site_type_symbol
 _atom_site_label
 _atom_site_symmetry_multiplicity
 _atom_site_fract_x
 _atom_site_fract_y
 _atom_site_fract_z
 _atom_site_occupancy
  H  73  1  0.03136900  0.68375000  0.49187800  1
  H  74  1  0.03137800  0.64907900  0.49194100  1
  H  75  1  0.98368300  0.68397000  0.53054300  1
  H  76  1  0.98390900  0.64922500  0.53106900  1
  H  77  1  0.97696700  0.62071300  0.51069200  1
  H  78  1  0.97700600  0.58593100  0.51097300  1
  H  79  1  0.03848200  0.62069000  0.51258200  1
  H  80  1  0.03841500  0.58589700  0.51229100  1
  H  81  1  0.00937000  0.57600100  0.47260800  1
  H  82  1  0.00957600  0.55019900  0.44628900  1
  H  83  1  0.00635100  0.52276400  0.49897100  1
  H  84  1  0.00938500  0.49837400  0.52292400  1
  H  85  1  0.00780200  0.57593700  0.55100600  1
  H  86  1  0.00780600  0.54953000  0.57696700  1
  H  87  1  0.97636400  0.51296300  0.58588000  1
  H  88  1  0.97580300  0.51274600  0.62063200  1
  H  89  1  0.03748300  0.50703900  0.58671500  1
  H  90  1  0.03698300  0.50612000  0.62146900  1
  H  91  1  0.00445900  0.47118700  0.57559700  1
  H  92  1  0.00424300  0.44532600  0.54933800  1
  H  93  1  0.00800800  0.47167200  0.44494400  1
  H  94  1  0.00828400  0.44532300  0.47080400  1
  H  95  1  0.03620800  0.43478800  0.51968400  1
  H  96  1  0.03612400  0.39996100  0.51905500  1
  H  97  1  0.97779400  0.43533300  0.50064800  1
  H  98  1  0.97768800  0.40049400  0.49987000  1
  H  99  1  0.99469900  0.37316000  0.48035700  1
  H  100  1  0.99534100  0.33833700  0.47891800  1
  H  101  1  0.02043000  0.33642200  0.53490400  1
  H  102  1  0.01967900  0.37119900  0.53652600  1
  H  103  1  0.97822100  0.51897500  0.43541100  1
  H  104  1  0.97836800  0.51941100  0.40059000  1
  H  105  1  0.02392800  0.48546200  0.37243400  1
  H  106  1  0.02447000  0.48584400  0.33776600  1
  H  107  1  0.99300500  0.53859200  0.33769800  1
  H  108  1  0.99279900  0.53850300  0.37250300  1
  H  109  1  0.03795700  0.50410500  0.40074200  1
  H  110  1  0.03770400  0.50360600  0.43555300  1
  H  111  1  0.03153200  0.52605400  0.65026200  1
  H  112  1  0.03081500  0.52568200  0.68499300  1
  H  113  1  0.98014700  0.49222800  0.64901900  1
  H  114  1  0.97918400  0.49258300  0.68376900  1
  H  191  1  0.48577400  0.02460000  0.68374600  1
  H  192  1  0.48546200  0.02399700  0.64907200  1
  H  193  1  0.53847600  0.99306000  0.68397600  1
  H  194  1  0.53845600  0.99278800  0.64917500  1
  H  195  1  0.51942700  0.97833300  0.62107200  1
  H  196  1  0.51930400  0.97818300  0.58624800  1
  H  197  1  0.50423800  0.03795000  0.62077700  1
  H  198  1  0.50405700  0.03769700  0.58596200  1
  H  199  1  0.47246300  0.00770700  0.57603100  1
  H  200  1  0.44620700  0.00800700  0.55023200  1
  H  201  1  0.49896800  0.00758500  0.52280000  1
  H  202  1  0.52288400  0.00756700  0.49847200  1
  H  203  1  0.55105400  0.00895400  0.57590900  1
  H  204  1  0.57695200  0.00863600  0.54949800  1
  H  205  1  0.58590800  0.97654500  0.51263200  1
  H  206  1  0.62064900  0.97600600  0.51240200  1
  H  207  1  0.58669600  0.03772600  0.50740600  1
  H  208  1  0.62145500  0.03725400  0.50644600  1
  H  209  1  0.57566600  0.00700100  0.47106900  1
  H  210  1  0.54934700  0.00704300  0.44521200  1
  H  211  1  0.44494700  0.00619700  0.47167200  1
  H  212  1  0.47090000  0.00614400  0.44532200  1
  H  213  1  0.50722800  0.03748800  0.43488900  1
  H  214  1  0.50635000  0.03702700  0.40013600  1
  H  215  1  0.51300600  0.97635400  0.43566600  1
  H  216  1  0.51286900  0.97583400  0.40091700  1
  H  217  1  0.49236200  0.98019800  0.37257900  1
  H  218  1  0.49262700  0.97925700  0.33783200  1
  H  219  1  0.52567500  0.03091700  0.33655000  1
  H  220  1  0.52615100  0.03160800  0.37127900  1
  H  221  1  0.43538400  0.97793700  0.51894000  1
  H  222  1  0.40055400  0.97805900  0.51930100  1
  H  223  1  0.37237900  0.02363800  0.48531800  1
  H  224  1  0.33771400  0.02424300  0.48574200  1
  H  225  1  0.33765000  0.99276700  0.53848100  1
  H  226  1  0.37245300  0.99250200  0.53835300  1
  H  227  1  0.40069800  0.03762000  0.50389300  1
  H  228  1  0.43550200  0.03738900  0.50346000  1
  H  229  1  0.65031000  0.03164300  0.52619100  1
  H  230  1  0.68503600  0.03090000  0.52580300  1
  H  231  1  0.64901800  0.98050200  0.49199900  1
  H  232  1  0.68376200  0.97950300  0.49235000  1
  H  309  1  0.68375200  0.48577200  0.02460000  1
  H  310  1  0.64907800  0.48546100  0.02399700  1
  H  311  1  0.68398200  0.53847500  0.99306000  1
  H  312  1  0.64918100  0.53845300  0.99278800  1
  H  313  1  0.62108000  0.51942400  0.97832900  1
  H  314  1  0.58625500  0.51929800  0.97817700  1
  H  315  1  0.62078300  0.50423200  0.03794500  1
  H  316  1  0.58596800  0.50404900  0.03768900  1
  H  317  1  0.57603400  0.47245200  0.00772700  1
  H  318  1  0.55023200  0.44620000  0.00802900  1
  H  319  1  0.52280300  0.49896200  0.00756600  1
  H  320  1  0.49846900  0.52286800  0.00755700  1
  H  321  1  0.57591100  0.55104500  0.00897900  1
  H  322  1  0.54949400  0.57693700  0.00866200  1
  H  323  1  0.51266500  0.58587800  0.97653300  1
  H  324  1  0.51244100  0.62061900  0.97599000  1
  H  325  1  0.50737800  0.58667300  0.03771000  1
  H  326  1  0.50642400  0.62143100  0.03723300  1
  H  327  1  0.47107000  0.57565100  0.00699600  1
  H  328  1  0.44521100  0.54933500  0.00704400  1
  H  329  1  0.47167600  0.44493700  0.00619400  1
  H  330  1  0.44532000  0.47088700  0.00613700  1
  H  331  1  0.43488900  0.50720100  0.03748700  1
  H  332  1  0.40013500  0.50632800  0.03703000  1
  H  333  1  0.43565900  0.51301100  0.97635500  1
  H  334  1  0.40090900  0.51288100  0.97584000  1
  H  335  1  0.37257000  0.49237200  0.98019900  1
  H  336  1  0.33782200  0.49264100  0.97926300  1
  H  337  1  0.33655100  0.52566800  0.03093700  1
  H  338  1  0.37128100  0.52614100  0.03162300  1
  H  339  1  0.51892300  0.43538700  0.97793100  1
  H  340  1  0.51929300  0.40055700  0.97805700  1
  H  341  1  0.48533200  0.37238900  0.02364200  1
  H  342  1  0.48576200  0.33772500  0.02425300  1
  H  343  1  0.53850400  0.33766600  0.99277800  1
  H  344  1  0.53836900  0.37246900  0.99250800  1
  H  345  1  0.50392600  0.40070500  0.03763100  1
  H  346  1  0.50348500  0.43550900  0.03739500  1
  H  347  1  0.52621100  0.65026600  0.03161500  1
  H  348  1  0.52582500  0.68499400  0.03087500  1
  H  349  1  0.49200600  0.64898300  0.98048000  1
  H  350  1  0.49235900  0.68372800  0.97948500  1
  H  427  1  0.53111100  0.18381000  0.99155100  1
  H  428  1  0.53113600  0.14914200  0.99160100  1
  H  429  1  0.48381800  0.18399700  0.03069200  1
  H  430  1  0.48407000  0.14925300  0.03121300  1
  H  431  1  0.47695000  0.12069800  0.01103100  1
  H  432  1  0.47704900  0.08591400  0.01133500  1
  H  433  1  0.53848500  0.12077000  0.01207300  1
  H  434  1  0.53846900  0.08598300  0.01177900  1
  H  435  1  0.50791400  0.07603500  0.97246400  1
  H  436  1  0.50793300  0.05016100  0.94615400  1
  H  437  1  0.50778500  0.02278700  0.99895600  1
  H  438  1  0.50765200  0.99847600  0.02286200  1
  H  439  1  0.50773900  0.07597900  0.05094400  1
  H  440  1  0.50756900  0.04958100  0.07691600  1
  H  441  1  0.47645900  0.01241700  0.08586100  1
  H  442  1  0.47590700  0.01220000  0.12060400  1
  H  443  1  0.53768000  0.00767100  0.08668300  1
  H  444  1  0.53719900  0.00670800  0.12143800  1
  H  445  1  0.50706900  0.97109300  0.07564800  1
  H  446  1  0.50718600  0.94522700  0.04933800  1
  H  447  1  0.50751500  0.97170500  0.94489600  1
  H  448  1  0.50729800  0.94529800  0.97084200  1
  H  449  1  0.53773800  0.93485300  0.00748900  1
  H  450  1  0.53725000  0.90010100  0.00659700  1
  H  451  1  0.47655700  0.93568800  0.01272500  1
  H  452  1  0.47600300  0.90094200  0.01258900  1
  H  453  1  0.48048100  0.87259400  0.99216000  1
  H  454  1  0.47949600  0.83784900  0.99243500  1
  H  455  1  0.53092300  0.83651900  0.02584300  1
  H  456  1  0.53165000  0.87124500  0.02631500  1
  H  457  1  0.47704900  0.01097400  0.93566200  1
  H  458  1  0.47691100  0.01097300  0.90087500  1
  H  459  1  0.53102600  0.99159300  0.87232200  1
  H  460  1  0.53094500  0.99162300  0.83765800  1
  H  461  1  0.48371600  0.03084400  0.83763300  1
  H  462  1  0.48402300  0.03128300  0.87238100  1
  H  463  1  0.53844700  0.01197400  0.90074300  1
  H  464  1  0.53846900  0.01137600  0.93552600  1
  H  465  1  0.53145500  0.02638600  0.15027400  1
  H  466  1  0.53072200  0.02598200  0.18500200  1
  H  467  1  0.48053700  0.99185600  0.14898600  1
  H  468  1  0.47954100  0.99219600  0.18373000  1
  H  545  1  0.99158000  0.53109900  0.18385400  1
  H  546  1  0.99161500  0.53112500  0.14918600  1
  H  547  1  0.03073500  0.48381800  0.18402400  1
  H  548  1  0.03124100  0.48407000  0.14928000  1
  H  549  1  0.01105100  0.47694700  0.12073000  1
  H  550  1  0.01134700  0.47704500  0.08594700  1
  H  551  1  0.01207600  0.53848100  0.12080300  1
  H  552  1  0.01177600  0.53846500  0.08601700  1
  H  553  1  0.97246500  0.50790100  0.07606600  1
  H  554  1  0.94615700  0.50792200  0.05019100  1
  H  555  1  0.99895900  0.50778800  0.02281800  1
  H  556  1  0.02286300  0.50765500  0.99850500  1
  H  557  1  0.05094600  0.50774200  0.07601000  1
  H  558  1  0.07691800  0.50757300  0.04961200  1
  H  559  1  0.08586200  0.47646100  0.01245400  1
  H  560  1  0.12060400  0.47590900  0.01223200  1
  H  561  1  0.08668300  0.53768000  0.00769200  1
  H  562  1  0.12143700  0.53719900  0.00672400  1
  H  563  1  0.07565000  0.50705900  0.97112400  1
  H  564  1  0.04934000  0.50717100  0.94525700  1
  H  565  1  0.94489900  0.50751100  0.97173400  1
  H  566  1  0.97084400  0.50729100  0.94532700  1
  H  567  1  0.00748900  0.53773100  0.93488100  1
  H  568  1  0.00658800  0.53724100  0.90012800  1
  H  569  1  0.01271900  0.47655000  0.93571700  1
  H  570  1  0.01257400  0.47599500  0.90097200  1
  H  571  1  0.99214400  0.48047500  0.87262800  1
  H  572  1  0.99240200  0.47949200  0.83788200  1
  H  573  1  0.02580200  0.53092200  0.83653800  1
  H  574  1  0.02629200  0.53164800  0.87126400  1
  H  575  1  0.93566400  0.47704800  0.01099900  1
  H  576  1  0.90088000  0.47690900  0.01099100  1
  H  577  1  0.87232900  0.53102500  0.99161700  1
  H  578  1  0.83766500  0.53094600  0.99164200  1
  H  579  1  0.83763500  0.48371400  0.03086100  1
  H  580  1  0.87238300  0.48402000  0.03130300  1
  H  581  1  0.90074600  0.53844600  0.01200100  1
  H  582  1  0.93552900  0.53846900  0.01141000  1
  H  583  1  0.15027700  0.53145500  0.02640600  1
  H  584  1  0.18500600  0.53071900  0.02599900  1
  H  585  1  0.14898000  0.48053600  0.99188000  1
  H  586  1  0.18372400  0.47953500  0.99221800  1
  H  663  1  0.18373000  0.99210800  0.53151900  1
  H  664  1  0.14905900  0.99218600  0.53152500  1
  H  665  1  0.18397000  0.03006700  0.48326800  1
  H  666  1  0.14922100  0.03059000  0.48347100  1
  H  667  1  0.12069700  0.00996600  0.47685400  1
  H  668  1  0.08590700  0.01024000  0.47690900  1
  H  669  1  0.12071200  0.01311800  0.53831300  1
  H  670  1  0.08591800  0.01287600  0.53827400  1
  H  671  1  0.07594000  0.97261900  0.51099800  1
  H  672  1  0.05011300  0.94629900  0.51120600  1
  H  673  1  0.02283900  0.99888800  0.50575100  1
  H  674  1  0.99844600  0.02300700  0.50484100  1
  H  675  1  0.07593000  0.05080000  0.50448100  1
  H  676  1  0.04961700  0.07680100  0.50402800  1
  H  677  1  0.99950700  0.08621800  0.47823600  1
  H  678  1  0.99859800  0.12104700  0.47817500  1
  H  679  1  0.02045700  0.08680600  0.53598900  1
  H  680  1  0.01964200  0.12162500  0.53596700  1
  H  681  1  0.97122400  0.07550800  0.51125800  1
  H  682  1  0.94541300  0.04917600  0.51112600  1
  H  683  1  0.97176000  0.94501200  0.50459800  1
  H  684  1  0.94541600  0.97099800  0.50447000  1
  H  685  1  0.93500500  0.00645000  0.53752000  1
  H  686  1  0.90023900  0.00562100  0.53706800  1
  H  687  1  0.93572100  0.01388900  0.47656600  1
  H  688  1  0.90097000  0.01372000  0.47606700  1
  H  689  1  0.87268000  0.99290700  0.48002300  1
  H  690  1  0.83792700  0.99317200  0.47909300  1
  H  691  1  0.83664400  0.02527100  0.53135000  1
  H  692  1  0.87137800  0.02571700  0.53205900  1
  H  693  1  0.02017600  0.93539600  0.47844900  1
  H  694  1  0.02054100  0.90057500  0.47857600  1
  H  695  1  0.98498100  0.87235800  0.52308400  1
  H  696  1  0.98538400  0.83770600  0.52369400  1
  H  697  1  0.03896000  0.83763800  0.49366200  1
  H  698  1  0.03886100  0.87243400  0.49343100  1
  H  699  1  0.00284500  0.90070200  0.53749900  1
  H  700  1  0.00232700  0.93550000  0.53723100  1
  H  701  1  0.03652800  0.15034500  0.51918600  1
  H  702  1  0.03501700  0.18512000  0.51992000  1
  H  703  1  0.97982000  0.14850100  0.49544500  1
  H  704  1  0.97850200  0.18332500  0.49603900  1
  H  715  1  0.00929300  0.54351800  0.25000500  1
  H  716  1  0.00847000  0.48325500  0.23760700  1
  H  717  1  0.01014700  0.47628700  0.27150500  1
  H  718  1  0.01096800  0.53655000  0.28393000  1
  H  720  1  0.01523200  0.48748100  0.30475300  1
  H  722  1  0.00337800  0.53204000  0.21671600  1
  H  729  1  0.98722400  0.53431700  0.77282700  1
  H  730  1  0.03016100  0.49147900  0.78305400  1
  H  731  1  0.03420900  0.48739600  0.74877100  1
  H  732  1  0.99126700  0.53023000  0.73854400  1
  H  734  1  0.03048800  0.50417400  0.71617100  1
  H  736  1  0.00407900  0.53067200  0.80541200  1
  H  743  1  0.24995800  0.00930300  0.54346800  1
  H  744  1  0.23752800  0.00840200  0.48321500  1
  H  745  1  0.27142400  0.00998400  0.47622900  1
  H  746  1  0.28388200  0.01088200  0.53648100  1
  H  748  1  0.30469100  0.01501100  0.48739300  1
  H  750  1  0.21664600  0.00358500  0.53206300  1
  H  757  1  0.77283400  0.98723700  0.53425500  1
  H  758  1  0.78311700  0.03025800  0.49151400  1
  H  759  1  0.74884100  0.03437100  0.48745600  1
  H  760  1  0.73855600  0.99134700  0.53018900  1
  H  762  1  0.71623900  0.03067200  0.50427000  1
  H  764  1  0.80545300  0.00390800  0.53062000  1
  H  771  1  0.54350600  0.24998400  0.00921700  1
  H  772  1  0.48325000  0.23755300  0.00840000  1
  H  773  1  0.47626400  0.27144800  0.01003300  1
  H  774  1  0.53651900  0.28390800  0.01084900  1
  H  776  1  0.48743600  0.30470600  0.01508000  1
  H  778  1  0.53204700  0.21668000  0.00334600  1
  H  785  1  0.53432200  0.77277600  0.98731700  1
  H  786  1  0.49147600  0.78305400  0.03023500  1
  H  787  1  0.48739500  0.74877700  0.03432600  1
  H  788  1  0.53023700  0.73849800  0.99140400  1
  H  790  1  0.50421200  0.71617400  0.03065500  1
  H  792  1  0.53067100  0.80538300  0.00412000  1
  H  799  1  0.54337000  0.00948400  0.77158300  1
  H  800  1  0.48310500  0.00863000  0.78396600  1
  H  801  1  0.47614600  0.01032100  0.75006400  1
  H  802  1  0.53641100  0.01117500  0.73765700  1
  H  804  1  0.48736700  0.01547600  0.71681300  1
  H  806  1  0.53189300  0.00354000  0.80485600  1
  H  813  1  0.53440700  0.98749900  0.24874500  1
  H  814  1  0.49125700  0.03012800  0.23853200  1
  H  815  1  0.48715900  0.03414800  0.27281700  1
  H  816  1  0.53030200  0.99151500  0.28303000  1
  H  818  1  0.50401500  0.03055700  0.30541000  1
  H  820  1  0.53063700  0.00433700  0.21616300  1
  H  827  1  0.03424600  0.24998600  0.48675700  1
  H  828  1  0.99166800  0.23760000  0.52939200  1
  H  829  1  0.98675200  0.27162800  0.53432200  1
  H  830  1  0.02936300  0.28401800  0.49172100  1
  H  832  1  0.00167400  0.30475800  0.53119800  1
  H  834  1  0.03105400  0.21683100  0.50153600  1
  H  841  1  0.97630400  0.77138300  0.51001200  1
  H  842  1  0.03654900  0.78388500  0.51098300  1
  H  843  1  0.04356100  0.74996500  0.50940100  1
  H  844  1  0.98331500  0.73749400  0.50842700  1
  H  846  1  0.03214700  0.71664600  0.50354900  1
  H  848  1  0.98740600  0.80465500  0.51492500  1
  H  855  1  0.24874600  0.53438400  0.98749800  1
  H  856  1  0.23852700  0.49126600  0.03015600  1
  H  857  1  0.27281400  0.48717200  0.03418500  1
  H  858  1  0.28303000  0.53028400  0.99152100  1
  H  860  1  0.30541100  0.50400400  0.03057200  1
  H  862  1  0.21616500  0.53063200  0.00434700  1
  H  869  1  0.77158900  0.54337200  0.00952200  1
  H  870  1  0.78397100  0.48310700  0.00862000  1
  H  871  1  0.75006800  0.47614800  0.01030500  1
  H  872  1  0.73766300  0.53641100  0.01120500  1
  H  874  1  0.71681900  0.48736700  0.01548000  1
  H  876  1  0.80486100  0.53189600  0.00356300  1
  C  1  1  0.00861600  0.56136700  0.47521100  1
  C  2  1  0.00872700  0.54728000  0.46085500  1
  C  3  1  0.00779400  0.52899700  0.46976900  1
  C  5  1  0.00777700  0.55207200  0.49330000  1
  C  6  1  0.00765300  0.56180600  0.51163000  1
  C  7  1  0.00757200  0.55224400  0.52999700  1
  C  9  1  0.00755700  0.52892500  0.55292100  1
  C  10  1  0.00772400  0.54697500  0.56230700  1
  C  11  1  0.00768800  0.56132200  0.54820500  1
  C  12  1  0.00730400  0.51039500  0.56216400  1
  C  13  1  0.00700300  0.49224900  0.55208200  1
  C  15  1  0.00697300  0.46911400  0.52858800  1
  C  16  1  0.00547000  0.45991600  0.54669100  1
  C  17  1  0.00557500  0.47402500  0.56102900  1
  C  18  1  0.00724500  0.45931200  0.51027200  1
  C  19  1  0.00758500  0.46894400  0.49191400  1
  C  21  1  0.00770800  0.49231800  0.46897300  1
  C  22  1  0.00786600  0.47426400  0.45959600  1
  C  23  1  0.00801100  0.45991700  0.47368200  1
  C  24  1  0.00776200  0.51084500  0.45968200  1
  C  25  1  0.00793700  0.51122100  0.43881200  1
  C  26  1  0.02511100  0.50694400  0.42830500  1
  C  27  1  0.02517400  0.50711900  0.40778300  1
  C  28  1  0.00817900  0.51179700  0.39702600  1
  C  29  1  0.99108100  0.51626300  0.40770100  1
  C  30  1  0.99091000  0.51587100  0.42822400  1
  C  31  1  0.00827100  0.51192300  0.37612500  1
  C  32  1  0.99928800  0.52711000  0.36541500  1
  C  33  1  0.99952400  0.52726600  0.34488100  1
  C  34  1  0.00850400  0.51213400  0.33425000  1
  C  35  1  0.01755500  0.49695000  0.34485700  1
  C  36  1  0.01744000  0.49687500  0.36538200  1
  C  37  1  0.00700500  0.43841800  0.51025200  1
  C  38  1  0.02373800  0.42769300  0.51562800  1
  C  39  1  0.02361400  0.40716800  0.51535600  1
  C  40  1  0.00688700  0.39663900  0.50940900  1
  C  41  1  0.99017900  0.40748400  0.50402100  1
  C  42  1  0.99016300  0.42800500  0.50459200  1
  C  43  1  0.00694400  0.37577300  0.50867600  1
  C  44  1  0.01443800  0.36452700  0.52427200  1
  C  45  1  0.01466100  0.34401300  0.52345800  1
  C  46  1  0.00745800  0.33400800  0.50695200  1
  C  47  1  0.00032100  0.34513300  0.49121800  1
  C  48  1  0.99982000  0.36564100  0.49216300  1
  C  49  1  0.00697300  0.51004200  0.58300200  1
  C  50  1  0.98922500  0.51153100  0.59328500  1
  C  51  1  0.98895400  0.51119700  0.61380800  1
  C  52  1  0.00633200  0.50933700  0.62484700  1
  C  53  1  0.02404600  0.50786300  0.61429300  1
  C  54  1  0.02439900  0.50820800  0.59376800  1
  C  55  1  0.00600600  0.50903100  0.64582800  1
  C  56  1  0.02062500  0.51845800  0.65699100  1
  C  57  1  0.02023300  0.51832100  0.67752100  1
  C  58  1  0.00516700  0.50869500  0.68773100  1
  C  59  1  0.99039600  0.49952000  0.67680800  1
  C  60  1  0.99092500  0.49951000  0.65627900  1
  C  61  1  0.00771000  0.58263700  0.51164200  1
  C  62  1  0.99004400  0.59315900  0.51130500  1
  C  63  1  0.02538800  0.59314000  0.51197500  1
  C  64  1  0.02535800  0.61366700  0.51197200  1
  C  65  1  0.00772600  0.62444000  0.51165300  1
  C  66  1  0.99008700  0.61368300  0.51132100  1
  C  67  1  0.00773800  0.64539300  0.51162700  1
  C  68  1  0.99395600  0.65621000  0.52256800  1
  C  69  1  0.99389000  0.67674100  0.52242300  1
  C  70  1  0.00772300  0.68730700  0.51150200  1
  C  71  1  0.02144400  0.67666300  0.50041300  1
  C  72  1  0.02145300  0.65613200  0.50052800  1
  C  119  1  0.47514000  0.00774500  0.56139500  1
  C  120  1  0.46079400  0.00788800  0.54730000  1
  C  121  1  0.46973600  0.00767900  0.52901200  1
  C  123  1  0.49327000  0.00775900  0.55213300  1
  C  124  1  0.51160700  0.00779600  0.56190000  1
  C  125  1  0.52997300  0.00777300  0.55229300  1
  C  127  1  0.55289900  0.00762100  0.52893000  1
  C  128  1  0.56229500  0.00818300  0.54696400  1
  C  129  1  0.54820600  0.00834600  0.56131800  1
  C  130  1  0.56216200  0.00742400  0.51040300  1
  C  131  1  0.55211000  0.00732700  0.49224100  1
  C  133  1  0.52859800  0.00728900  0.46914200  1
  C  134  1  0.54671600  0.00716200  0.45985900  1
  C  135  1  0.56106900  0.00712300  0.47396100  1
  C  136  1  0.51025900  0.00723400  0.45941500  1
  C  137  1  0.49189700  0.00726900  0.46900200  1
  C  139  1  0.46893600  0.00741900  0.49232700  1
  C  140  1  0.45958800  0.00675200  0.47426100  1
  C  141  1  0.47369800  0.00670800  0.45992600  1
  C  142  1  0.45964700  0.00757200  0.51085400  1
  C  143  1  0.43877600  0.00764900  0.51118000  1
  C  144  1  0.42826000  0.02479200  0.50680400  1
  C  145  1  0.40773800  0.02484300  0.50693700  1
  C  146  1  0.39698100  0.00785400  0.51163400  1
  C  147  1  0.40766300  0.99076600  0.51612800  1
  C  148  1  0.42819000  0.99061000  0.51579400  1
  C  149  1  0.37607700  0.00795600  0.51176400  1
  C  150  1  0.36536600  0.99898800  0.52695800  1
  C  151  1  0.34483200  0.99926800  0.52714300  1
  C  152  1  0.33419600  0.00826900  0.51202600  1
  C  153  1  0.34480300  0.01730200  0.49683200  1
  C  154  1  0.36532800  0.01714300  0.49673000  1
  C  155  1  0.51021100  0.00697000  0.43857200  1
  C  156  1  0.50843600  0.02441400  0.42782300  1
  C  157  1  0.50809200  0.02408200  0.40729800  1
  C  158  1  0.50953000  0.00637600  0.39672600  1
  C  159  1  0.51137200  0.98898500  0.40774900  1
  C  160  1  0.51166900  0.98923200  0.42827300  1
  C  161  1  0.50916300  0.00606400  0.37574600  1
  C  162  1  0.51854400  0.02069900  0.36456600  1
  C  163  1  0.51834300  0.02032600  0.34403700  1
  C  164  1  0.50869600  0.00526300  0.33384400  1
  C  165  1  0.49957600  0.99046900  0.34478100  1
  C  166  1  0.49961500  0.99098900  0.36531000  1
  C  167  1  0.58300500  0.00718300  0.51005800  1
  C  168  1  0.59330100  0.98942900  0.51134600  1
  C  169  1  0.61382400  0.98917100  0.51101200  1
  C  170  1  0.62485700  0.00657200  0.50932100  1
  C  171  1  0.61428900  0.02429500  0.50805800  1
  C  172  1  0.59376000  0.02463600  0.50843100  1
  C  173  1  0.64584300  0.00624600  0.50898300  1
  C  174  1  0.65702300  0.02079500  0.51849900  1
  C  175  1  0.67755500  0.02038100  0.51836300  1
  C  176  1  0.68775300  0.00536800  0.50864300  1
  C  177  1  0.67681300  0.99067400  0.49936300  1
  C  178  1  0.65628300  0.99122800  0.49935100  1
  C  179  1  0.51164200  0.00791500  0.58277400  1
  C  180  1  0.51613100  0.99087100  0.59340600  1
  C  181  1  0.50727500  0.02508900  0.59324200  1
  C  182  1  0.50725300  0.02515100  0.61376600  1
  C  183  1  0.51183800  0.00815900  0.62456400  1
  C  184  1  0.51633700  0.99104400  0.61393200  1
  C  185  1  0.51190100  0.00828200  0.64546700  1
  C  186  1  0.52705400  0.99930100  0.65622500  1
  C  187  1  0.52717200  0.99958100  0.67675900  1
  C  188  1  0.51203500  0.00860400  0.68734000  1
  C  189  1  0.49688300  0.01765500  0.67668900  1
  C  190  1  0.49684900  0.01750100  0.65616200  1
  C  237  1  0.56139800  0.47513100  0.00774500  1
  C  238  1  0.54730200  0.46078700  0.00788600  1
  C  239  1  0.52901500  0.46973200  0.00767300  1
  C  241  1  0.55213900  0.49326200  0.00775200  1
  C  242  1  0.56190600  0.51159800  0.00778600  1
  C  243  1  0.55229700  0.52996200  0.00774600  1
  C  245  1  0.52893200  0.55288200  0.00759500  1
  C  246  1  0.54696400  0.56228200  0.00815700  1
  C  247  1  0.56132100  0.54819400  0.00832500  1
  C  248  1  0.51040300  0.56214100  0.00741400  1
  C  249  1  0.49223900  0.55209200  0.00732200  1
  C  251  1  0.46913900  0.52858500  0.00728600  1
  C  252  1  0.45985800  0.54670100  0.00716200  1
  C  253  1  0.47396100  0.56105300  0.00712600  1
  C  254  1  0.45941100  0.51024800  0.00723100  1
  C  255  1  0.46899900  0.49188500  0.00726400  1
  C  257  1  0.49232700  0.46893000  0.00741700  1
  C  258  1  0.47426300  0.45958000  0.00675000  1
  C  259  1  0.45992500  0.47368600  0.00671400  1
  C  260  1  0.51085500  0.45964700  0.00757000  1
  C  261  1  0.51118300  0.43877800  0.00764900  1
  C  262  1  0.50682000  0.42826600  0.02479800  1
  C  263  1  0.50695200  0.40774500  0.02484900  1
  C  264  1  0.51164600  0.39699000  0.00786000  1
  C  265  1  0.51612500  0.40766600  0.99076500  1
  C  266  1  0.51578700  0.42819300  0.99060600  1
  C  267  1  0.51178000  0.37608700  0.00796300  1
  C  268  1  0.52697900  0.36538000  0.99899700  1
  C  269  1  0.52716500  0.34484600  0.99928000  1
  C  270  1  0.51205200  0.33421200  0.00828500  1
  C  271  1  0.49685300  0.34481600  0.01731500  1
  C  272  1  0.49675000  0.36534000  0.01715600  1
  C  273  1  0.43856800  0.51020000  0.00697000  1
  C  274  1  0.42782200  0.50842000  0.02441500  1
  C  275  1  0.40729500  0.50808300  0.02408600  1
  C  276  1  0.39672200  0.50952700  0.00638000  1
  C  277  1  0.40774300  0.51137400  0.98898900  1
  C  278  1  0.42826700  0.51166900  0.98923400  1
  C  279  1  0.37574200  0.50916300  0.00607100  1
  C  280  1  0.36456500  0.51853500  0.02071500  1
  C  281  1  0.34403500  0.51834000  0.02034200  1
  C  282  1  0.33383900  0.50870100  0.00527600  1
  C  283  1  0.34477400  0.49958400  0.99047600  1
  C  284  1  0.36530300  0.49962500  0.99099200  1
  C  285  1  0.51005800  0.58298100  0.00716800  1
  C  286  1  0.51136000  0.59327200  0.98941300  1
  C  287  1  0.51102500  0.61379300  0.98915400  1
  C  288  1  0.50932300  0.62482600  0.00655200  1
  C  289  1  0.50803400  0.61426100  0.02427600  1
  C  290  1  0.50841200  0.59373600  0.02462100  1
  C  291  1  0.50899100  0.64580800  0.00622600  1
  C  292  1  0.51851300  0.65698200  0.02077200  1
  C  293  1  0.51837500  0.67751300  0.02036200  1
  C  294  1  0.50864000  0.68771000  0.00535900  1
  C  295  1  0.49937000  0.67677600  0.99065700  1
  C  296  1  0.49936000  0.65624700  0.99120600  1
  C  297  1  0.58278000  0.51163300  0.00790700  1
  C  298  1  0.59341400  0.51612500  0.99086400  1
  C  299  1  0.59324600  0.50726600  0.02508200  1
  C  300  1  0.61377100  0.50724700  0.02514600  1
  C  301  1  0.62457000  0.51183400  0.00815400  1
  C  302  1  0.61393900  0.51633300  0.99103900  1
  C  303  1  0.64547300  0.51189600  0.00827800  1
  C  304  1  0.65623200  0.52704900  0.99929600  1
  C  305  1  0.67676500  0.52717000  0.99957700  1
  C  306  1  0.68734600  0.51203200  0.00860100  1
  C  307  1  0.67669500  0.49688000  0.01765300  1
  C  308  1  0.65616800  0.49684300  0.01749400  1
  C  355  1  0.50790700  0.06138800  0.97510300  1
  C  356  1  0.50791700  0.04728100  0.96075600  1
  C  357  1  0.50786500  0.02900800  0.96973000  1
  C  359  1  0.50784000  0.05211300  0.99322500  1
  C  360  1  0.50777900  0.06184000  0.01156300  1
  C  361  1  0.50768400  0.05228300  0.02993900  1
  C  363  1  0.50749600  0.02896000  0.05288400  1
  C  364  1  0.50756300  0.04702000  0.06225700  1
  C  365  1  0.50766500  0.06136300  0.04814700  1
  C  366  1  0.50738800  0.01042800  0.06213900  1
  C  367  1  0.50740000  0.99225900  0.05208800  1
  C  369  1  0.50741800  0.96914600  0.02858000  1
  C  370  1  0.50727000  0.95987300  0.04670100  1
  C  371  1  0.50721800  0.97398100  0.06105000  1
  C  372  1  0.50746300  0.95940400  0.01024600  1
  C  373  1  0.50759500  0.96897400  0.99187500  1
  C  375  1  0.50773500  0.99230700  0.96894500  1
  C  376  1  0.50759500  0.97425600  0.95955700  1
  C  377  1  0.50748500  0.95990800  0.97365800  1
  C  378  1  0.50781100  0.01083700  0.95969700  1
  C  379  1  0.50776700  0.01117100  0.93887000  1
  C  380  1  0.52541700  0.01134000  0.92832100  1
  C  381  1  0.52533100  0.01152200  0.90779700  1
  C  382  1  0.50767100  0.01151800  0.89706700  1
  C  383  1  0.49005700  0.01137700  0.90787300  1
  C  384  1  0.49006800  0.01120900  0.92839800  1
  C  385  1  0.50763500  0.01155900  0.87611500  1
  C  386  1  0.49395900  0.02269000  0.86535400  1
  C  387  1  0.49384700  0.02259300  0.84482100  1
  C  388  1  0.50752500  0.01153500  0.83420000  1
  C  389  1  0.52114400  0.00026600  0.84478600  1
  C  390  1  0.52118800  0.00032000  0.86531600  1
  C  391  1  0.50720100  0.93856400  0.01020100  1
  C  392  1  0.52464800  0.92779900  0.00858200  1
  C  393  1  0.52429600  0.90727400  0.00822300  1
  C  394  1  0.50656800  0.89671800  0.00950600  1
  C  395  1  0.48917300  0.90776000  0.01119500  1
  C  396  1  0.48944000  0.92828300  0.01150000  1
  C  397  1  0.50623800  0.87573900  0.00913600  1
  C  398  1  0.52079900  0.86454400  0.01861600  1
  C  399  1  0.52039100  0.84401600  0.01843400  1
  C  400  1  0.50538400  0.83383700  0.00868600  1
  C  401  1  0.49067300  0.84478800  0.99945000  1
  C  402  1  0.49121500  0.86531700  0.99948800  1
  C  403  1  0.50711800  0.01008400  0.08297700  1
  C  404  1  0.48934800  0.01122600  0.09326200  1
  C  405  1  0.48908400  0.01089200  0.11378500  1
  C  406  1  0.50649300  0.00934600  0.12482500  1
  C  407  1  0.52423000  0.00821100  0.11426500  1
  C  408  1  0.52457800  0.00859400  0.09373900  1
  C  409  1  0.50616400  0.00901900  0.14581000  1
  C  410  1  0.52064400  0.01864100  0.15698800  1
  C  411  1  0.52024100  0.01849100  0.17751800  1
  C  412  1  0.50530000  0.00866000  0.18771400  1
  C  413  1  0.49065900  0.99929300  0.17677800  1
  C  414  1  0.49120900  0.99928800  0.15625000  1
  C  415  1  0.50776300  0.08267100  0.01156600  1
  C  416  1  0.49007600  0.09316300  0.01148500  1
  C  417  1  0.52542500  0.09320300  0.01164300  1
  C  418  1  0.52536200  0.11372900  0.01164900  1
  C  419  1  0.50771300  0.12447900  0.01156300  1
  C  420  1  0.49008900  0.11368900  0.01147600  1
  C  421  1  0.50769900  0.14543400  0.01152700  1
  C  422  1  0.49402300  0.15624400  0.02260900  1
  C  423  1  0.49394600  0.17677500  0.02246900  1
  C  424  1  0.50766700  0.18735000  0.01141800  1
  C  425  1  0.52127400  0.17671600  0.00018100  1
  C  426  1  0.52128700  0.15618600  0.00028300  1
  C  473  1  0.97510400  0.50789700  0.06141900  1
  C  474  1  0.96075900  0.50790700  0.04731100  1
  C  475  1  0.96973300  0.50786000  0.02903800  1
  C  477  1  0.99322800  0.50783400  0.05214400  1
  C  478  1  0.01156500  0.50777600  0.06187200  1
  C  479  1  0.02994000  0.50768400  0.05231500  1
  C  481  1  0.05288500  0.50749900  0.02899200  1
  C  482  1  0.06225800  0.50757100  0.04705100  1
  C  483  1  0.04814800  0.50766800  0.06139400  1
  C  484  1  0.06214000  0.50739000  0.01045800  1
  C  485  1  0.05208900  0.50739900  0.99229000  1
  C  487  1  0.02858200  0.50741200  0.96917500  1
  C  488  1  0.04670300  0.50726200  0.95990200  1
  C  489  1  0.06105100  0.50721200  0.97401200  1
  C  490  1  0.01024700  0.50745800  0.95943300  1
  C  491  1  0.99187600  0.50759800  0.96900300  1
  C  493  1  0.96894700  0.50773900  0.99233600  1
  C  494  1  0.95956000  0.50760300  0.97428600  1
  C  495  1  0.97365900  0.50748600  0.95993700  1
  C  496  1  0.95970000  0.50781100  0.01086800  1
  C  497  1  0.93887300  0.50776600  0.01120100  1
  C  498  1  0.92832400  0.52541700  0.01137400  1
  C  499  1  0.90780000  0.52533000  0.01155100  1
  C  500  1  0.89707100  0.50767000  0.01154400  1
  C  501  1  0.90787700  0.49005600  0.01141000  1
  C  502  1  0.92840200  0.49006600  0.01123200  1
  C  503  1  0.87611700  0.50763200  0.01158000  1
  C  504  1  0.86535500  0.49395500  0.02270700  1
  C  505  1  0.84482300  0.49384600  0.02261000  1
  C  506  1  0.83420300  0.50752400  0.01155100  1
  C  507  1  0.84479200  0.52113500  0.00027700  1
  C  508  1  0.86532000  0.52118800  0.00034100  1
  C  509  1  0.01020500  0.50719500  0.93859200  1
  C  510  1  0.00858800  0.52464200  0.92782700  1
  C  511  1  0.00822800  0.52429000  0.90730200  1
  C  512  1  0.00950300  0.50656000  0.89674600  1
  C  513  1  0.01119800  0.48916600  0.90778800  1
  C  514  1  0.01149900  0.48943200  0.92831200  1
  C  515  1  0.00912400  0.50622900  0.87576500  1
  C  516  1  0.01860600  0.52078400  0.86456700  1
  C  517  1  0.01839900  0.52038900  0.84403800  1
  C  518  1  0.00864600  0.50538300  0.83386400  1
  C  519  1  0.99942400  0.49066500  0.84481800  1
  C  520  1  0.99947600  0.49120500  0.86534800  1
  C  521  1  0.08297800  0.50711900  0.01011600  1
  C  522  1  0.09326300  0.48934900  0.01126400  1
  C  523  1  0.11378500  0.48908600  0.01092400  1
  C  524  1  0.12482500  0.50649400  0.00937500  1
  C  525  1  0.11426600  0.52423200  0.00824200  1
  C  526  1  0.09373900  0.52458000  0.00861900  1
  C  527  1  0.14581000  0.50616600  0.00904000  1
  C  528  1  0.15699000  0.52064900  0.01865500  1
  C  529  1  0.17752100  0.52024400  0.01850100  1
  C  530  1  0.18771400  0.50529800  0.00867300  1
  C  531  1  0.17677500  0.49066000  0.99930600  1
  C  532  1  0.15624700  0.49120900  0.99930900  1
  C  533  1  0.01156800  0.50776000  0.08270400  1
  C  534  1  0.01149200  0.49007300  0.09319600  1
  C  535  1  0.01164200  0.52542200  0.09323600  1
  C  536  1  0.01164600  0.52535900  0.11376200  1
  C  537  1  0.01157500  0.50770900  0.12451200  1
  C  538  1  0.01149700  0.49008500  0.11372300  1
  C  539  1  0.01154900  0.50769600  0.14546800  1
  C  540  1  0.02263800  0.49402200  0.15627300  1
  C  541  1  0.02250400  0.49394300  0.17680600  1
  C  542  1  0.01145200  0.50765900  0.18738500  1
  C  543  1  0.00021300  0.52126800  0.17675500  1
  C  544  1  0.00031200  0.52128500  0.15622500  1
  C  591  1  0.06131800  0.97520900  0.51001300  1
  C  592  1  0.04722600  0.96085500  0.51010800  1
  C  593  1  0.02898800  0.96974300  0.50840100  1
  C  595  1  0.05206100  0.99326400  0.50838800  1
  C  596  1  0.06179900  0.01157200  0.50758200  1
  C  597  1  0.05223500  0.02992500  0.50681600  1
  C  599  1  0.02896000  0.05292500  0.50662100  1
  C  600  1  0.04701600  0.06219400  0.50514300  1
  C  601  1  0.06132900  0.04806400  0.50537400  1
  C  602  1  0.01046000  0.06225700  0.50717100  1
  C  603  1  0.99234400  0.05211700  0.50798300  1
  C  605  1  0.96926800  0.02857800  0.50804200  1
  C  606  1  0.96002200  0.04661300  0.50988200  1
  C  607  1  0.97411200  0.06097000  0.50994800  1
  C  608  1  0.95950200  0.01027900  0.50728400  1
  C  609  1  0.96907400  0.99192400  0.50676400  1
  C  611  1  0.99236100  0.96895300  0.50700500  1
  C  612  1  0.97432800  0.95963900  0.50555600  1
  C  613  1  0.96000600  0.97376000  0.50545600  1
  C  614  1  0.01085900  0.95964300  0.50769400  1
  C  615  1  0.01120100  0.93877700  0.50781800  1
  C  616  1  0.00617300  0.92826100  0.52477900  1
  C  617  1  0.00636300  0.90773900  0.52484300  1
  C  618  1  0.01172700  0.89698200  0.50805300  1
  C  619  1  0.01687400  0.90767300  0.49115400  1
  C  620  1  0.01654200  0.92819800  0.49098900  1
  C  621  1  0.01185800  0.87607100  0.50815300  1
  C  622  1  0.02728800  0.86535400  0.49959800  1
  C  623  1  0.02745400  0.84482000  0.49986300  1
  C  624  1  0.01210100  0.83418400  0.50845200  1
  C  625  1  0.99666900  0.84479200  0.51707100  1
  C  626  1  0.99657500  0.86531600  0.51691300  1
  C  627  1  0.93865800  0.01026200  0.50709300  1
  C  628  1  0.92792400  0.00800800  0.52449100  1
  C  629  1  0.90739600  0.00769400  0.52416900  1
  C  630  1  0.89681300  0.00958600  0.50651300  1
  C  631  1  0.90781900  0.01189300  0.48916900  1
  C  632  1  0.92834300  0.01221400  0.48941200  1
  C  633  1  0.87583600  0.00921400  0.50620100  1
  C  634  1  0.86465900  0.01832000  0.52100800  1
  C  635  1  0.84412800  0.01813200  0.52062500  1
  C  636  1  0.83393200  0.00876400  0.50538700  1
  C  637  1  0.84487500  0.99991300  0.49043200  1
  C  638  1  0.86540500  0.99995000  0.49094900  1
  C  639  1  0.01009100  0.08314900  0.50710600  1
  C  640  1  0.00377300  0.09355100  0.49049600  1
  C  641  1  0.00314200  0.11407100  0.49053800  1
  C  642  1  0.00906300  0.12493900  0.50705300  1
  C  643  1  0.01555200  0.11441500  0.52358200  1
  C  644  1  0.01591800  0.09389100  0.52368000  1
  C  645  1  0.00838100  0.14581500  0.50709900  1
  C  646  1  0.02417100  0.15703800  0.51422000  1
  C  647  1  0.02342500  0.17755500  0.51441600  1
  C  648  1  0.00679100  0.18759700  0.50756500  1
  C  649  1  0.99088400  0.17650300  0.50077600  1
  C  650  1  0.99174900  0.15598900  0.50032000  1
  C  651  1  0.08263300  0.01156600  0.50759100  1
  C  652  1  0.09314300  0.01084100  0.48992900  1
  C  653  1  0.09315000  0.01227900  0.52525100  1
  C  654  1  0.11367700  0.01224200  0.52521000  1
  C  655  1  0.12443700  0.01155300  0.50758400  1
  C  656  1  0.11367000  0.01086600  0.48996000  1
  C  657  1  0.14538700  0.01151100  0.50758800  1
  C  658  1  0.15620600  0.02224200  0.49364500  1
  C  659  1  0.17673900  0.02209500  0.49359100  1
  C  660  1  0.18730200  0.01137600  0.50758200  1
  C  661  1  0.17665000  0.00049000  0.52146100  1
  C  662  1  0.15612000  0.00061500  0.52146900  1
  C  709  1  0.01002700  0.49058200  0.26723700  1
  C  710  1  0.00910400  0.49469200  0.24714700  1
  C  711  1  0.00883400  0.51412300  0.24023600  1
  C  712  1  0.00945600  0.52922800  0.25428700  1
  C  713  1  0.01039000  0.52511400  0.27438300  1
  C  714  1  0.01064200  0.50568100  0.28129800  1
  C  719  1  0.01183000  0.50107000  0.30109500  1
  C  721  1  0.00747700  0.51865500  0.22043900  1
  C  723  1  0.02390100  0.49702800  0.75361700  1
  C  724  1  0.02143800  0.49935000  0.77387200  1
  C  725  1  0.00802000  0.51305700  0.78143000  1
  C  726  1  0.99686600  0.52401800  0.76798200  1
  C  727  1  0.99917600  0.52154200  0.74772500  1
  C  728  1  0.01289900  0.50813900  0.74016400  1
  C  733  1  0.01685100  0.50690200  0.72029100  1
  C  735  1  0.00680100  0.51703100  0.80130000  1
  C  737  1  0.26716600  0.00989800  0.49052500  1
  C  738  1  0.24707400  0.00902700  0.49464700  1
  C  739  1  0.24016900  0.00880800  0.51408100  1
  C  740  1  0.25423200  0.00942700  0.52917700  1
  C  741  1  0.27433000  0.01030300  0.52505200  1
  C  742  1  0.28123700  0.01050500  0.50561600  1
  C  747  1  0.30103600  0.01164500  0.50099300  1
  C  749  1  0.22036800  0.00752600  0.51863100  1
  C  751  1  0.75367300  0.02404100  0.49707200  1
  C  752  1  0.77392800  0.02154100  0.49938100  1
  C  753  1  0.78147300  0.00807400  0.51305000  1
  C  754  1  0.76800400  0.99692600  0.52399100  1
  C  755  1  0.74775000  0.99925900  0.52151500  1
  C  756  1  0.74020300  0.01302000  0.50814400  1
  C  761  1  0.72033600  0.01701500  0.50692800  1
  C  763  1  0.80134700  0.00679700  0.51701200  1
  C  765  1  0.49056100  0.26718900  0.00992200  1
  C  766  1  0.49468200  0.24710100  0.00902500  1
  C  767  1  0.51411800  0.24020000  0.00876400  1
  C  768  1  0.52921400  0.25425900  0.00937300  1
  C  769  1  0.52509000  0.27435500  0.01028200  1
  C  770  1  0.50565200  0.28125700  0.01052100  1
  C  775  1  0.50102800  0.30105300  0.01168100  1
  C  777  1  0.51865800  0.22040200  0.00743000  1
  C  779  1  0.49703000  0.75360900  0.02401300  1
  C  780  1  0.49935000  0.77386400  0.02152500  1
  C  781  1  0.51305900  0.78140600  0.00809900  1
  C  782  1  0.52402200  0.76794300  0.99696400  1
  C  783  1  0.52154700  0.74768900  0.99930000  1
  C  784  1  0.50814100  0.74014700  0.01302900  1
  C  789  1  0.50690600  0.72028000  0.01700600  1
  C  791  1  0.51703100  0.80127400  0.00685600  1
  C  793  1  0.49043900  0.01020800  0.75433600  1
  C  794  1  0.49454500  0.00927400  0.77442700  1
  C  795  1  0.51397300  0.00900600  0.78134300  1
  C  796  1  0.52908200  0.00964400  0.76729800  1
  C  797  1  0.52497500  0.01058400  0.74720100  1
  C  798  1  0.50554200  0.01083300  0.74028200  1
  C  803  1  0.50094200  0.01202500  0.72048200  1
  C  805  1  0.51850600  0.00763900  0.80113900  1
  C  807  1  0.49687200  0.02391600  0.26796800  1
  C  808  1  0.49920400  0.02147000  0.24770900  1
  C  809  1  0.51300000  0.00814500  0.24014700  1
  C  810  1  0.52405100  0.99707900  0.25359400  1
  C  811  1  0.52155200  0.99935700  0.27385100  1
  C  812  1  0.50805000  0.01297900  0.28141600  1
  C  817  1  0.50680300  0.01693200  0.30128900  1
  C  819  1  0.51697500  0.00695000  0.22027600  1
  C  821  1  0.99654600  0.26730300  0.52393500  1
  C  822  1  0.99936500  0.24718200  0.52095200  1
  C  823  1  0.01323800  0.24029600  0.50733700  1
  C  824  1  0.02387500  0.25431200  0.49656800  1
  C  825  1  0.02093500  0.27443400  0.49942900  1
  C  826  1  0.00733100  0.28131700  0.51331100  1
  C  831  1  0.00545200  0.30106300  0.51769300  1
  C  833  1  0.01758600  0.22054200  0.50542700  1
  C  835  1  0.02926600  0.75423000  0.50951400  1
  C  836  1  0.02512700  0.77432400  0.51039300  1
  C  837  1  0.00568400  0.78121600  0.51057400  1
  C  838  1  0.99060400  0.76713500  0.50994600  1
  C  839  1  0.99474100  0.74704900  0.50907400  1
  C  840  1  0.01418100  0.74016000  0.50887400  1
  C  845  1  0.01873900  0.72036400  0.50757300  1
  C  847  1  0.00103900  0.80101200  0.51169000  1
  C  849  1  0.26796500  0.49686400  0.02393300  1
  C  850  1  0.24770800  0.49919700  0.02148600  1
  C  851  1  0.24014700  0.51299000  0.00815900  1
  C  852  1  0.25359400  0.52403400  0.99708500  1
  C  853  1  0.27385000  0.52153600  0.99936500  1
  C  854  1  0.28141300  0.50805000  0.01300500  1
  C  859  1  0.30128800  0.50680100  0.01695000  1
  C  861  1  0.22027700  0.51696800  0.00696100  1
  C  863  1  0.75434200  0.49043900  0.01019800  1
  C  864  1  0.77443200  0.49454500  0.00926800  1
  C  865  1  0.78134700  0.51397500  0.00901800  1
  C  866  1  0.76730200  0.52908300  0.00966700  1
  C  867  1  0.74720600  0.52497500  0.01060400  1
  C  868  1  0.74028600  0.50554200  0.01083300  1
  C  873  1  0.72048800  0.50094200  0.01202800  1
  C  875  1  0.80114300  0.51850800  0.00765600  1
  N  4  1  0.00727300  0.53273300  0.48918600  1
  N  8  1  0.00748900  0.53286900  0.53361200  1
  N  14  1  0.00782500  0.48845200  0.53268200  1
  N  20  1  0.00748400  0.48832800  0.48828600  1
  N  115  1  0.00829000  0.51340100  0.31480400  1
  N  116  1  0.00652000  0.70674000  0.51175700  1
  N  117  1  0.00364200  0.50901200  0.70712700  1
  N  118  1  0.00824000  0.31465400  0.50505200  1
  N  122  1  0.48916000  0.00766500  0.53278000  1
  N  126  1  0.53359100  0.00742000  0.53291500  1
  N  132  1  0.53269300  0.00742700  0.48848900  1
  N  138  1  0.48824800  0.00765000  0.48837200  1
  N  233  1  0.31474900  0.00809700  0.51331800  1
  N  234  1  0.51326800  0.00841600  0.70678900  1
  N  235  1  0.70714900  0.00381700  0.50896000  1
  N  236  1  0.50899600  0.00373400  0.31444900  1
  N  240  1  0.53278400  0.48915400  0.00765200  1
  N  244  1  0.53292000  0.53357500  0.00739200  1
  N  250  1  0.48848700  0.53267700  0.00742200  1
  N  256  1  0.48837100  0.48824200  0.00764900  1
  N  351  1  0.51334400  0.31476600  0.00810800  1
  N  352  1  0.70679400  0.51326700  0.00841600  1
  N  353  1  0.50897200  0.70710300  0.00380400  1
  N  354  1  0.31444600  0.50900100  0.00375100  1
  N  358  1  0.50783700  0.03276500  0.98914400  1
  N  362  1  0.50758900  0.03291100  0.03357400  1
  N  368  1  0.50752500  0.98849500  0.03267200  1
  N  374  1  0.50773700  0.98834800  0.98825200  1
  N  469  1  0.50630300  0.01185400  0.81476700  1
  N  470  1  0.50645900  0.20678400  0.01168400  1
  N  471  1  0.50375600  0.00895700  0.20710700  1
  N  472  1  0.50383600  0.81444500  0.00898900  1
  N  476  1  0.98914700  0.50783600  0.03279600  1
  N  480  1  0.03357500  0.50758800  0.03294300  1
  N  486  1  0.03267300  0.50752500  0.98852600  1
  N  492  1  0.98825500  0.50773900  0.98837700  1
  N  587  1  0.81477000  0.50630300  0.01186800  1
  N  588  1  0.01173200  0.50645600  0.20682000  1
  N  589  1  0.20710700  0.50375200  0.00897100  1
  N  590  1  0.00893200  0.50383300  0.81447200  1
  N  594  1  0.03274000  0.98914400  0.50752200  1
  N  598  1  0.03288400  0.03362300  0.50756300  1
  N  604  1  0.98858700  0.03271200  0.50704600  1
  N  610  1  0.98842100  0.98825900  0.50769000  1
  N  705  1  0.01339100  0.81473700  0.50828400  1
  N  706  1  0.20674000  0.01162600  0.50638800  1
  N  707  1  0.00496000  0.20696000  0.50833500  1
  N  708  1  0.81453400  0.00908000  0.50385300  1
