# generated using pymatgen
data_H21(C11N3)2
_symmetry_space_group_name_H-M   'P 1'
_cell_length_a   28.71670000
_cell_length_b   78.05990000
_cell_length_c   78.05990000
_cell_angle_alpha   90.00000000
_cell_angle_beta   90.00000000
_cell_angle_gamma   90.00000000
_symmetry_Int_Tables_number   1
_chemical_formula_structural   H21(C11N3)2
_chemical_formula_sum   'H1344 C1408 N384'
_cell_volume   174980.84616729
_cell_formula_units_Z   64
loop_
 _symmetry_equiv_pos_site_id
 _symmetry_equiv_pos_as_xyz
  1  'x, y, z'
loop_
 _atom_site_type_symbol
 _atom_site_label
 _atom_site_symmetry_multiplicity
 _atom_site_fract_x
 _atom_site_fract_y
 _atom_site_fract_z
 _atom_site_occupancy
  H  7  1  0.30967500  0.06456400  0.01112400  1
  H  16  1  0.23936000  0.10728500  0.01968000  1
  H  19  1  0.22026200  0.10688500  0.98502500  1
  H  20  1  0.25590400  0.11796100  0.97299700  1
  H  21  1  0.20966100  0.04421900  0.99456500  1
  H  22  1  0.24567900  0.05800400  0.98602000  1
  H  23  1  0.13102300  0.06132400  0.04920400  1
  H  24  1  0.13031500  0.08122100  0.05485000  1
  H  25  1  0.42130200  0.10083700  0.96971200  1
  H  26  1  0.43987000  0.08452300  0.98055700  1
  H  28  1  0.13101200  0.10819200  0.04230100  1
  H  29  1  0.18119300  0.10481300  0.05516300  1
  H  31  1  0.11702500  0.04757600  0.02683400  1
  H  32  1  0.16636200  0.03720500  0.01918600  1
  H  34  1  0.40796500  0.05807300  0.98587000  1
  H  35  1  0.42635200  0.06797200  0.00522400  1
  H  37  1  0.38233200  0.12409900  0.97765300  1
  H  38  1  0.32506100  0.13018200  0.97838100  1
  H  45  1  0.80988200  0.43735000  0.99085100  1
  H  54  1  0.73961600  0.39463800  0.98230100  1
  H  57  1  0.72040800  0.39507500  0.01698300  1
  H  58  1  0.75601100  0.38402300  0.02905000  1
  H  59  1  0.70984600  0.45765900  0.00750100  1
  H  60  1  0.74590100  0.44386900  0.01600300  1
  H  61  1  0.63004200  0.44047100  0.95291700  1
  H  62  1  0.62984700  0.42058100  0.94731500  1
  H  63  1  0.92150700  0.40108300  0.03227400  1
  H  64  1  0.94007100  0.41739800  0.02143400  1
  H  66  1  0.63108700  0.39362900  0.95987100  1
  H  67  1  0.68094300  0.39710500  0.94686200  1
  H  69  1  0.61737700  0.45443400  0.97520500  1
  H  70  1  0.66657800  0.46470600  0.98304400  1
  H  72  1  0.90811700  0.44385400  0.01614000  1
  H  73  1  0.92653200  0.43396200  0.99678700  1
  H  75  1  0.88241500  0.37783300  0.02437700  1
  H  76  1  0.82511700  0.37177500  0.02370400  1
  H  83  1  0.56073700  0.24061000  0.81618900  1
  H  92  1  0.49022800  0.23220900  0.85877400  1
  H  95  1  0.47117900  0.26695300  0.85834700  1
  H  96  1  0.50665400  0.27911100  0.86933400  1
  H  97  1  0.46161700  0.25709100  0.79557800  1
  H  98  1  0.49770100  0.26570800  0.80929800  1
  H  99  1  0.37953900  0.20356400  0.81280200  1
  H  100  1  0.37982100  0.19758400  0.83261000  1
  H  101  1  0.67196900  0.28258900  0.85197500  1
  H  102  1  0.69068600  0.27155200  0.83581700  1
  H  104  1  0.38146500  0.20982600  0.85970400  1
  H  105  1  0.43128600  0.19685000  0.85606600  1
  H  107  1  0.36490700  0.22650300  0.79989900  1
  H  108  1  0.41469000  0.23311200  0.78898500  1
  H  110  1  0.65876000  0.26598800  0.80944900  1
  H  111  1  0.67735900  0.24671600  0.81944900  1
  H  113  1  0.63325300  0.27490000  0.87533800  1
  H  114  1  0.57605600  0.27400600  0.88148400  1
  H  121  1  0.06072700  0.26136900  0.18583400  1
  H  130  1  0.99034800  0.26985100  0.14324800  1
  H  133  1  0.97097600  0.23514300  0.14362600  1
  H  134  1  0.00641100  0.22295100  0.13266700  1
  H  135  1  0.96140000  0.24498500  0.20643500  1
  H  136  1  0.99737200  0.23631200  0.19270700  1
  H  137  1  0.88102200  0.29878600  0.18935800  1
  H  138  1  0.88118200  0.30479900  0.16952400  1
  H  139  1  0.17177200  0.21937100  0.14999600  1
  H  140  1  0.19051800  0.23036800  0.16618300  1
  H  142  1  0.88188900  0.29250600  0.14244100  1
  H  143  1  0.93214500  0.30530200  0.14590600  1
  H  145  1  0.86528500  0.27584100  0.20214600  1
  H  146  1  0.91481400  0.26898300  0.21306200  1
  H  148  1  0.15865900  0.23596200  0.19256600  1
  H  149  1  0.17732600  0.25521400  0.18254600  1
  H  151  1  0.13299700  0.22713300  0.12664500  1
  H  152  1  0.07577900  0.22797500  0.12052500  1
  H  159  1  0.69073100  0.93676400  0.99133500  1
  H  168  1  0.75895700  0.89434200  0.98167800  1
  H  171  1  0.78053300  0.89341000  0.01591800  1
  H  172  1  0.74577600  0.88288600  0.02879000  1
  H  173  1  0.79690700  0.95533300  0.01021100  1
  H  174  1  0.75884500  0.94169900  0.01762200  1
  H  175  1  0.87430100  0.93950800  0.95329600  1
  H  176  1  0.86985700  0.91996400  0.94704500  1
  H  177  1  0.58687200  0.90391900  0.03772100  1
  H  178  1  0.56645200  0.91987300  0.02681400  1
  H  180  1  0.86761100  0.89329400  0.95924100  1
  H  181  1  0.81748000  0.89670300  0.94635400  1
  H  183  1  0.87522400  0.95630800  0.97354100  1
  H  184  1  0.82936900  0.96424400  0.98508200  1
  H  186  1  0.59786200  0.94538100  0.01741500  1
  H  187  1  0.57336400  0.93335700  0.00037800  1
  H  189  1  0.61769700  0.87935600  0.02811200  1
  H  190  1  0.67321200  0.87191100  0.02480400  1
  H  197  1  0.19037000  0.56529400  0.01062800  1
  H  206  1  0.25709400  0.60746200  0.02112600  1
  H  209  1  0.27947000  0.60912300  0.98659400  1
  H  210  1  0.24482500  0.61952400  0.97358600  1
  H  211  1  0.29948200  0.54825000  0.98998400  1
  H  212  1  0.25891100  0.56139700  0.98363800  1
  H  213  1  0.38782400  0.56441300  0.04476800  1
  H  214  1  0.37595600  0.58275400  0.05305100  1
  H  215  1  0.08631300  0.59809600  0.96422800  1
  H  216  1  0.06620600  0.58197400  0.97495900  1
  H  218  1  0.36818300  0.60933600  0.04166100  1
  H  219  1  0.32036200  0.60523700  0.05549900  1
  H  221  1  0.36975700  0.54464200  0.02859100  1
  H  222  1  0.32685400  0.53817900  0.01508100  1
  H  224  1  0.09800000  0.55650900  0.98446900  1
  H  225  1  0.07288900  0.56850500  0.00140400  1
  H  227  1  0.11672700  0.62269200  0.97393700  1
  H  228  1  0.17207700  0.63025200  0.97729200  1
  H  235  1  0.43980700  0.76107200  0.18680000  1
  H  244  1  0.50750300  0.77167600  0.14516800  1
  H  247  1  0.52793400  0.73585700  0.14365800  1
  H  248  1  0.49252900  0.72347200  0.13290100  1
  H  249  1  0.54563100  0.73892400  0.20386900  1
  H  250  1  0.50298000  0.73379800  0.19111000  1
  H  251  1  0.65709900  0.78446800  0.18451200  1
  H  252  1  0.64428100  0.79583300  0.16775700  1
  H  253  1  0.32728400  0.71967800  0.15080100  1
  H  254  1  0.30928500  0.73036900  0.16730200  1
  H  256  1  0.62216500  0.78740400  0.14114200  1
  H  257  1  0.58344900  0.80377400  0.14798900  1
  H  259  1  0.62132200  0.77648000  0.20688100  1
  H  260  1  0.57612900  0.76404400  0.21371000  1
  H  262  1  0.34228700  0.73559300  0.19367700  1
  H  263  1  0.32294700  0.75493500  0.18400700  1
  H  265  1  0.36576000  0.72740300  0.12741400  1
  H  266  1  0.42279300  0.72824000  0.12111100  1
  H  273  1  0.94180900  0.74125900  0.81497600  1
  H  282  1  0.01155500  0.73264300  0.85757600  1
  H  285  1  0.03057600  0.76747200  0.85743100  1
  H  286  1  0.99478100  0.77945800  0.86845400  1
  H  287  1  0.04227200  0.75876700  0.79501400  1
  H  288  1  0.00518000  0.76673300  0.80871600  1
  H  289  1  0.12723600  0.70484200  0.81265700  1
  H  290  1  0.12804800  0.69968500  0.83264500  1
  H  291  1  0.82897900  0.78221000  0.85132000  1
  H  292  1  0.81085300  0.77138200  0.83492400  1
  H  294  1  0.12109700  0.71186200  0.85977600  1
  H  295  1  0.07484700  0.69760300  0.85470700  1
  H  297  1  0.13426700  0.72642800  0.79753000  1
  H  298  1  0.08468100  0.73434300  0.78777300  1
  H  300  1  0.84311300  0.76631800  0.80844100  1
  H  301  1  0.82501900  0.74687300  0.81822600  1
  H  303  1  0.86844700  0.77453100  0.87453800  1
  H  304  1  0.92574500  0.77412700  0.88058300  1
  H  311  1  0.81228500  0.56625000  0.51095900  1
  H  320  1  0.74407000  0.60778500  0.52152300  1
  H  323  1  0.72496900  0.60955000  0.48554900  1
  H  324  1  0.76089600  0.62039200  0.47346500  1
  H  325  1  0.70527700  0.54976500  0.48772900  1
  H  326  1  0.75054700  0.56168200  0.48359900  1
  H  327  1  0.58881100  0.57015300  0.52950800  1
  H  328  1  0.59842300  0.58738100  0.54065000  1
  H  329  1  0.92614200  0.60256700  0.47026700  1
  H  330  1  0.94386700  0.58603500  0.48096500  1
  H  332  1  0.62875700  0.61365100  0.53454700  1
  H  333  1  0.66037300  0.60470000  0.55194200  1
  H  335  1  0.63066900  0.54714500  0.52594600  1
  H  336  1  0.67418000  0.53989100  0.51280400  1
  H  338  1  0.91079900  0.55967700  0.48597200  1
  H  339  1  0.92961000  0.56934600  0.50538900  1
  H  341  1  0.88736300  0.62585900  0.47758300  1
  H  342  1  0.83035400  0.63215800  0.47842600  1
  H  349  1  0.31205200  0.93546000  0.49109200  1
  H  358  1  0.24418800  0.89383900  0.48066600  1
  H  361  1  0.22570900  0.89205100  0.51678400  1
  H  362  1  0.26203800  0.88122900  0.52871500  1
  H  363  1  0.20503100  0.95171600  0.51463200  1
  H  364  1  0.25102200  0.94007300  0.51847000  1
  H  365  1  0.08687200  0.93059800  0.47410500  1
  H  366  1  0.09610800  0.91327500  0.46305900  1
  H  367  1  0.42720800  0.89919400  0.53136500  1
  H  368  1  0.44456400  0.91574800  0.52062000  1
  H  370  1  0.12909000  0.88713200  0.46839900  1
  H  371  1  0.15810200  0.89684100  0.45080000  1
  H  373  1  0.12903800  0.95383700  0.47668100  1
  H  374  1  0.17294400  0.96136200  0.48952300  1
  H  376  1  0.41113100  0.94207800  0.51579500  1
  H  377  1  0.42957300  0.93247900  0.49629700  1
  H  379  1  0.38842300  0.87588800  0.52423300  1
  H  380  1  0.33145400  0.86953100  0.52348900  1
  H  387  1  0.06332600  0.74053800  0.31548100  1
  H  396  1  0.99087100  0.73192100  0.35713600  1
  H  399  1  0.96740000  0.76720500  0.35518800  1
  H  400  1  0.00030400  0.78024300  0.36620300  1
  H  401  1  0.95867300  0.75854700  0.29485200  1
  H  402  1  0.99593700  0.76628100  0.30863500  1
  H  403  1  0.88086100  0.70216700  0.31125700  1
  H  404  1  0.88199700  0.69661900  0.33110000  1
  H  405  1  0.17059500  0.78226600  0.35340200  1
  H  406  1  0.19025100  0.77182500  0.33703100  1
  H  408  1  0.88258500  0.70933500  0.35772300  1
  H  409  1  0.93281400  0.69637400  0.35479800  1
  H  411  1  0.87618100  0.72301400  0.29506500  1
  H  412  1  0.92296900  0.73376000  0.28658100  1
  H  414  1  0.16181200  0.76567200  0.30987700  1
  H  415  1  0.17937200  0.74708000  0.32122400  1
  H  417  1  0.12548600  0.77734700  0.37521200  1
  H  418  1  0.06731000  0.77742600  0.37969800  1
  H  425  1  0.56253100  0.76111200  0.68693800  1
  H  434  1  0.49148800  0.76975900  0.64493300  1
  H  437  1  0.46902400  0.73491800  0.64587100  1
  H  438  1  0.50291000  0.72209100  0.63498000  1
  H  439  1  0.45779000  0.74307200  0.70709400  1
  H  440  1  0.49516500  0.73525900  0.69338800  1
  H  441  1  0.38231800  0.79972800  0.69073500  1
  H  442  1  0.38331800  0.80528300  0.67086200  1
  H  443  1  0.66926700  0.71760400  0.65110800  1
  H  444  1  0.68930400  0.72851400  0.66710200  1
  H  446  1  0.38347800  0.79260900  0.64419600  1
  H  447  1  0.43408600  0.80535400  0.64717000  1
  H  449  1  0.37548600  0.77871100  0.70662900  1
  H  450  1  0.42230500  0.76808200  0.71530300  1
  H  452  1  0.65958200  0.73587500  0.69360300  1
  H  453  1  0.67928900  0.75396500  0.68192500  1
  H  455  1  0.62946400  0.72445700  0.62805500  1
  H  456  1  0.57196400  0.72554700  0.62236100  1
  H  463  1  0.18974700  0.43712200  0.49267000  1
  H  472  1  0.25362100  0.39473200  0.48166000  1
  H  475  1  0.27576100  0.39234400  0.51645900  1
  H  476  1  0.24016500  0.38195400  0.52911300  1
  H  477  1  0.30219800  0.45204500  0.51487900  1
  H  478  1  0.25824200  0.43994200  0.52023400  1
  H  479  1  0.39555800  0.43518600  0.46244200  1
  H  480  1  0.38214400  0.41751400  0.45294500  1
  H  481  1  0.08225700  0.40429300  0.53805600  1
  H  482  1  0.06360500  0.42080600  0.52754600  1
  H  484  1  0.36664400  0.39096500  0.46339200  1
  H  485  1  0.32298600  0.39665200  0.44830300  1
  H  487  1  0.36756000  0.45656500  0.47500800  1
  H  488  1  0.32905400  0.46281800  0.49031100  1
  H  490  1  0.09664900  0.44618300  0.51819700  1
  H  491  1  0.07149600  0.43428600  0.50120200  1
  H  493  1  0.11205600  0.37968700  0.52835500  1
  H  494  1  0.16706700  0.37181700  0.52499300  1
  H  501  1  0.68942200  0.06488800  0.50899400  1
  H  510  1  0.75273000  0.10720400  0.52036100  1
  H  513  1  0.77464100  0.10990500  0.48529300  1
  H  514  1  0.73878000  0.12032000  0.47277200  1
  H  515  1  0.80348100  0.05113500  0.48564900  1
  H  516  1  0.75766100  0.06260000  0.48104000  1
  H  517  1  0.89910200  0.06770800  0.53698500  1
  H  518  1  0.88594900  0.08516200  0.54704000  1
  H  519  1  0.58037000  0.09811100  0.46434700  1
  H  520  1  0.56217200  0.08146200  0.47473300  1
  H  522  1  0.86667100  0.11172300  0.53750000  1
  H  523  1  0.82517600  0.10520500  0.55306300  1
  H  525  1  0.86578000  0.04578200  0.52620400  1
  H  526  1  0.83152800  0.03982200  0.50942700  1
  H  528  1  0.59566800  0.05599900  0.48369800  1
  H  529  1  0.57091200  0.06774500  0.50087400  1
  H  531  1  0.61078500  0.12260000  0.47389900  1
  H  532  1  0.66591700  0.13042300  0.47703900  1
  H  539  1  0.94186100  0.25859500  0.68776200  1
  H  548  1  0.00489700  0.27030400  0.64524600  1
  H  551  1  0.02620500  0.23533100  0.64228600  1
  H  552  1  0.99004900  0.22307900  0.63171400  1
  H  553  1  0.05668600  0.23523200  0.70084900  1
  H  554  1  0.01017300  0.23081000  0.68965100  1
  H  555  1  0.15233600  0.28632600  0.68451800  1
  H  556  1  0.13982000  0.29628800  0.66691900  1
  H  557  1  0.83119700  0.21498000  0.65379600  1
  H  558  1  0.81371600  0.22499100  0.67075800  1
  H  560  1  0.11898900  0.28698600  0.64032500  1
  H  561  1  0.07875700  0.30278800  0.64733600  1
  H  563  1  0.11594600  0.27641500  0.70659500  1
  H  564  1  0.08438400  0.25885500  0.71241100  1
  H  566  1  0.84769300  0.23337200  0.69636200  1
  H  567  1  0.82318400  0.25076300  0.68486900  1
  H  569  1  0.86211300  0.22481600  0.62950000  1
  H  570  1  0.91742900  0.22758400  0.62173000  1
  H  577  1  0.44139200  0.24346700  0.31420600  1
  H  586  1  0.50474900  0.23178900  0.35661100  1
  H  589  1  0.52655500  0.26680800  0.35944700  1
  H  590  1  0.49056200  0.27907500  0.37006800  1
  H  591  1  0.55627300  0.26675900  0.30091500  1
  H  592  1  0.50988500  0.27124200  0.31214000  1
  H  593  1  0.65119300  0.21531000  0.31704800  1
  H  594  1  0.63865000  0.20539700  0.33466900  1
  H  595  1  0.33102400  0.28692300  0.34850600  1
  H  596  1  0.31333100  0.27691200  0.33156200  1
  H  598  1  0.61873800  0.21482700  0.36129200  1
  H  599  1  0.57778300  0.19917700  0.35451500  1
  H  601  1  0.61520400  0.22554500  0.29507100  1
  H  602  1  0.58398200  0.24320700  0.28934200  1
  H  604  1  0.34684000  0.26859800  0.30585100  1
  H  605  1  0.32275900  0.25116400  0.31740200  1
  H  607  1  0.36273700  0.27710300  0.37270400  1
  H  608  1  0.41831800  0.27455300  0.38027300  1
  H  615  1  0.03549400  0.04731800  0.01413400  1
  H  624  1  0.90027900  0.01372400  0.02299600  1
  H  625  1  0.95672300  0.03641100  0.02279000  1
  H  626  1  0.87705500  0.98386300  0.01442200  1
  H  628  1  0.15983200  0.02377500  0.98086000  1
  H  629  1  0.12606700  0.00953400  0.96852400  1
  H  630  1  0.15247900  0.00238100  0.98779700  1
  H  632  1  0.01361200  0.95085500  0.97799800  1
  H  633  1  0.95519800  0.94618900  0.97274600  1
  H  634  1  0.97925000  0.93879500  0.99237300  1
  H  636  1  0.89882000  0.94221900  0.00256900  1
  H  638  1  0.10542200  0.05789900  0.99649700  1
  H  645  1  0.53571300  0.45453200  0.98774800  1
  H  654  1  0.40074300  0.48837600  0.97904200  1
  H  655  1  0.45703800  0.46562500  0.97905100  1
  H  656  1  0.37781200  0.51824400  0.98790800  1
  H  658  1  0.65963400  0.47763500  0.02158400  1
  H  659  1  0.62575500  0.49177100  0.03399300  1
  H  660  1  0.65245400  0.49910000  0.01484100  1
  H  662  1  0.51459700  0.55040400  0.02497400  1
  H  663  1  0.45625100  0.55508200  0.03022500  1
  H  664  1  0.48056100  0.56276500  0.01075200  1
  H  666  1  0.40130400  0.55982900  0.00034400  1
  H  668  1  0.60540500  0.44373600  0.00541300  1
  H  675  1  0.28496200  0.24053500  0.79839100  1
  H  684  1  0.15287400  0.23286000  0.76273800  1
  H  685  1  0.20627900  0.23291900  0.78642100  1
  H  686  1  0.13538700  0.24037700  0.73206000  1
  H  688  1  0.41392300  0.27255700  0.77646000  1
  H  689  1  0.38339400  0.28432100  0.76086100  1
  H  690  1  0.40997100  0.26456200  0.75528900  1
  H  692  1  0.28221400  0.27297200  0.70098500  1
  H  693  1  0.22603300  0.27948700  0.69471800  1
  H  694  1  0.24769400  0.25904500  0.68851900  1
  H  696  1  0.16596900  0.25413600  0.68986500  1
  H  698  1  0.35647900  0.25679500  0.80973700  1
  H  705  1  0.78508800  0.26219600  0.20364800  1
  H  714  1  0.65322400  0.26993900  0.23940700  1
  H  715  1  0.70666300  0.27000900  0.21573300  1
  H  716  1  0.63543200  0.26200300  0.26996600  1
  H  718  1  0.91293300  0.22926100  0.22511200  1
  H  719  1  0.88197600  0.21740700  0.24052800  1
  H  720  1  0.90923500  0.23695100  0.24640100  1
  H  722  1  0.78114900  0.22825700  0.30051900  1
  H  723  1  0.72475300  0.22186400  0.30664300  1
  H  724  1  0.74701600  0.24210000  0.31322000  1
  H  726  1  0.66564500  0.24758400  0.31193700  1
  H  728  1  0.85604300  0.24567000  0.19209200  1
  H  735  1  0.96652900  0.45783800  0.97916200  1
  H  744  1  0.10200100  0.49240400  0.97741200  1
  H  745  1  0.04534400  0.47024900  0.97290200  1
  H  746  1  0.12437000  0.52026100  0.99119800  1
  H  748  1  0.83797000  0.47610000  0.01348000  1
  H  749  1  0.84813800  0.49835700  0.01192200  1
  H  750  1  0.87135500  0.48655300  0.02937200  1
  H  752  1  0.98955400  0.54459500  0.03462300  1
  H  753  1  0.02113800  0.55998200  0.02287400  1
  H  754  1  0.04864800  0.54834700  0.03962400  1
  H  756  1  0.11884700  0.55223600  0.02136100  1
  H  758  1  0.87723300  0.45291300  0.98127000  1
  H  765  1  0.46631500  0.04407000  0.02289900  1
  H  774  1  0.60178700  0.00950900  0.02470000  1
  H  775  1  0.54507700  0.03164500  0.02921200  1
  H  776  1  0.62430700  0.98169900  0.01086000  1
  H  778  1  0.33791400  0.02583800  0.98848900  1
  H  779  1  0.34807400  0.00358000  0.99004100  1
  H  780  1  0.37135900  0.01539200  0.97261000  1
  H  782  1  0.48971600  0.95738700  0.96733400  1
  H  783  1  0.52124100  0.94199200  0.97909200  1
  H  784  1  0.54883100  0.95364000  0.96236800  1
  H  786  1  0.61916700  0.94984300  0.98059100  1
  H  788  1  0.37704200  0.04901300  0.02073600  1
  H  795  1  0.71706800  0.22868000  0.79564700  1
  H  804  1  0.85227200  0.22616000  0.76097900  1
  H  805  1  0.79561500  0.22202200  0.78320600  1
  H  806  1  0.87496600  0.23972000  0.73304100  1
  H  808  1  0.58941000  0.26338100  0.77726500  1
  H  809  1  0.59957900  0.26170400  0.75501700  1
  H  810  1  0.62317800  0.27912700  0.76675600  1
  H  812  1  0.74228000  0.28419100  0.70904800  1
  H  813  1  0.77243300  0.27218200  0.69349200  1
  H  814  1  0.80158700  0.28860400  0.70505000  1
  H  816  1  0.87113200  0.26997700  0.70127700  1
  H  818  1  0.62795600  0.23106900  0.80057900  1
  H  825  1  0.21711500  0.27321700  0.20635100  1
  H  834  1  0.35211600  0.27571100  0.24112600  1
  H  835  1  0.29563000  0.27983900  0.21883800  1
  H  836  1  0.37454200  0.26220400  0.26911600  1
  H  838  1  0.08910900  0.23868500  0.22472500  1
  H  839  1  0.09912300  0.24043300  0.24697800  1
  H  840  1  0.12269200  0.22294700  0.23532300  1
  H  842  1  0.24134700  0.21795300  0.29313900  1
  H  843  1  0.27139400  0.23000900  0.30868600  1
  H  844  1  0.30058900  0.21351700  0.29724100  1
  H  846  1  0.37045400  0.23200900  0.30088200  1
  H  848  1  0.12798900  0.27091300  0.20138600  1
  H  855  1  0.71580400  0.76459400  0.20440200  1
  H  864  1  0.85299300  0.77257000  0.23718800  1
  H  865  1  0.79542700  0.77285800  0.21487700  1
  H  866  1  0.87697900  0.76383800  0.26694400  1
  H  868  1  0.59206400  0.73132400  0.22845700  1
  H  869  1  0.62694300  0.71849200  0.24190800  1
  H  870  1  0.60105500  0.73750200  0.24996600  1
  H  872  1  0.73934800  0.72873200  0.30080900  1
  H  873  1  0.79746700  0.72296400  0.30531400  1
  H  874  1  0.77505200  0.74289600  0.31257900  1
  H  876  1  0.85599100  0.75252200  0.30865500  1
  H  878  1  0.64950400  0.74662000  0.19372200  1
  H  885  1  0.21665400  0.73967400  0.79843200  1
  H  894  1  0.35291700  0.73064300  0.76546100  1
  H  895  1  0.29603300  0.73118700  0.78799200  1
  H  896  1  0.37642600  0.73853800  0.73544600  1
  H  898  1  0.09153800  0.77163300  0.77368200  1
  H  899  1  0.12507200  0.78380600  0.75922000  1
  H  900  1  0.09969000  0.76419400  0.75249800  1
  H  902  1  0.23858400  0.77288200  0.70095300  1
  H  903  1  0.29671900  0.77850100  0.69627100  1
  H  904  1  0.27411800  0.75844000  0.68945000  1
  H  906  1  0.35532700  0.74909400  0.69344800  1
  H  908  1  0.14596600  0.75686900  0.80844300  1
  H  915  1  0.28441600  0.77268600  0.20818200  1
  H  924  1  0.15118200  0.77484500  0.24387800  1
  H  925  1  0.20653100  0.77917500  0.22124300  1
  H  926  1  0.13003100  0.76097300  0.27183700  1
  H  928  1  0.41354400  0.73815100  0.22546300  1
  H  929  1  0.40481400  0.73984400  0.24779300  1
  H  930  1  0.38064700  0.72237000  0.23628700  1
  H  932  1  0.26496800  0.71687400  0.29473900  1
  H  933  1  0.23645700  0.72905300  0.31057300  1
  H  934  1  0.20604700  0.71256200  0.29953200  1
  H  936  1  0.13402800  0.72999600  0.30221800  1
  H  938  1  0.37325700  0.77049100  0.20263300  1
  H  945  1  0.78558200  0.72932500  0.79404800  1
  H  954  1  0.65135400  0.72729200  0.75883000  1
  H  955  1  0.70732500  0.72287500  0.78124100  1
  H  956  1  0.62951300  0.74120900  0.73097300  1
  H  958  1  0.91418400  0.76395300  0.77641000  1
  H  959  1  0.90485400  0.76233800  0.75410700  1
  H  960  1  0.88092800  0.77975400  0.76576700  1
  H  962  1  0.76410300  0.78520700  0.70756800  1
  H  963  1  0.73456700  0.77317300  0.69187500  1
  H  964  1  0.70506500  0.78971600  0.70315800  1
  H  966  1  0.63363900  0.77197700  0.70007900  1
  H  968  1  0.87479200  0.73156800  0.79929400  1
  H  975  1  0.53418800  0.54705200  0.51581700  1
  H  984  1  0.40176700  0.51174600  0.52488700  1
  H  985  1  0.45682900  0.53493200  0.52518400  1
  H  986  1  0.38034400  0.48181000  0.51534700  1
  H  988  1  0.65752100  0.52541100  0.48061600  1
  H  989  1  0.62302900  0.51146900  0.46817500  1
  H  990  1  0.65182700  0.50373900  0.48674800  1
  H  992  1  0.52089300  0.45145300  0.47862400  1
  H  993  1  0.46355000  0.44685100  0.47214700  1
  H  994  1  0.48553000  0.43840400  0.49170800  1
  H  996  1  0.40690000  0.44043600  0.50111500  1
  H  998  1  0.59676200  0.55911600  0.49677200  1
  H  1005  1  0.03294400  0.95482500  0.48711500  1
  H  1014  1  0.90220400  0.99102900  0.47811400  1
  H  1015  1  0.95597100  0.96743300  0.47787400  1
  H  1016  1  0.88276300  0.02122500  0.48735900  1
  H  1018  1  0.15782900  0.97585000  0.52196200  1
  H  1019  1  0.12438200  0.99030000  0.53419100  1
  H  1020  1  0.15356200  0.99746600  0.51547300  1
  H  1022  1  0.02646100  0.05089200  0.52301600  1
  H  1023  1  0.96974000  0.05617000  0.52971600  1
  H  1024  1  0.99164000  0.06410800  0.50991500  1
  H  1026  1  0.91166600  0.06266500  0.50270800  1
  H  1028  1  0.09553100  0.94245100  0.50597100  1
  H  1035  1  0.46844900  0.95648400  0.47886600  1
  H  1044  1  0.60273000  0.99164300  0.47681600  1
  H  1045  1  0.54680400  0.96920300  0.47248900  1
  H  1046  1  0.62423000  0.01968300  0.49040400  1
  H  1048  1  0.33979800  0.97419200  0.51342500  1
  H  1049  1  0.34921200  0.99649000  0.51181100  1
  H  1050  1  0.37303100  0.98482200  0.52924200  1
  H  1052  1  0.48953800  0.04336100  0.53423200  1
  H  1053  1  0.51978900  0.05893000  0.52226300  1
  H  1054  1  0.54859100  0.04757800  0.53891200  1
  H  1056  1  0.61839400  0.05164800  0.52044900  1
  H  1058  1  0.37910000  0.95127100  0.48110400  1
  H  1065  1  0.96874800  0.54541800  0.52291100  1
  H  1074  1  0.10324600  0.51036700  0.52485900  1
  H  1075  1  0.04721900  0.53276700  0.52922700  1
  H  1076  1  0.12477800  0.48232800  0.51127800  1
  H  1078  1  0.83991300  0.52756000  0.48852000  1
  H  1079  1  0.84945800  0.50527000  0.49015400  1
  H  1080  1  0.87307800  0.51693300  0.47268200  1
  H  1082  1  0.98970100  0.45842000  0.46772600  1
  H  1083  1  0.02041600  0.44292900  0.47964600  1
  H  1084  1  0.04872700  0.45430800  0.46290100  1
  H  1086  1  0.11857200  0.45020800  0.48134200  1
  H  1088  1  0.87947900  0.55056800  0.52077800  1
  H  1095  1  0.35085900  0.20758000  0.88955600  1
  H  1104  1  0.26731900  0.16903000  0.92502700  1
  H  1105  1  0.28893700  0.19202200  0.90619500  1
  H  1106  1  0.29037300  0.14302500  0.94218600  1
  H  1108  1  0.51545300  0.20028600  0.88382700  1
  H  1109  1  0.51602100  0.17789800  0.88717900  1
  H  1110  1  0.52580300  0.19209200  0.90456800  1
  H  1112  1  0.47847100  0.13109900  0.93954400  1
  H  1113  1  0.44050400  0.11345600  0.94152300  1
  H  1114  1  0.45106200  0.12724300  0.95935100  1
  H  1116  1  0.35861400  0.10860900  0.94950800  1
  H  1118  1  0.42460700  0.22548200  0.88089000  1
  H  1125  1  0.85079500  0.29455100  0.11262100  1
  H  1134  1  0.76725500  0.33316900  0.07721700  1
  H  1135  1  0.78883800  0.31016800  0.09604700  1
  H  1136  1  0.79041600  0.35911500  0.05998200  1
  H  1138  1  0.01557000  0.30155600  0.11799800  1
  H  1139  1  0.01638600  0.32393800  0.11461300  1
  H  1140  1  0.02571700  0.30970500  0.09722400  1
  H  1142  1  0.97868600  0.37075100  0.06234300  1
  H  1143  1  0.94090300  0.38845100  0.06039600  1
  H  1144  1  0.95113800  0.37462900  0.04256900  1
  H  1146  1  0.85893300  0.39340400  0.05249900  1
  H  1148  1  0.92430700  0.27656300  0.12124100  1
  H  1155  1  0.60058900  0.36357600  0.95802100  1
  H  1164  1  0.51735100  0.32750600  0.91991800  1
  H  1165  1  0.53882300  0.34659800  0.94271600  1
  H  1166  1  0.54050500  0.31019500  0.89401000  1
  H  1168  1  0.76499800  0.36965100  0.95044200  1
  H  1169  1  0.76535700  0.36615100  0.92807600  1
  H  1170  1  0.77565400  0.34888200  0.94236800  1
  H  1172  1  0.72835800  0.31344300  0.88170500  1
  H  1173  1  0.69021600  0.31109700  0.86415800  1
  H  1174  1  0.70152700  0.29347900  0.87813200  1
  H  1176  1  0.60857000  0.30276100  0.85954000  1
  H  1178  1  0.67415600  0.37257600  0.97574500  1
  H  1185  1  0.10008200  0.13815800  0.04415600  1
  H  1194  1  0.01694200  0.17416900  0.08234000  1
  H  1195  1  0.03832000  0.15504500  0.05955600  1
  H  1196  1  0.04026000  0.19162100  0.10812800  1
  H  1198  1  0.26474400  0.13251500  0.05131700  1
  H  1199  1  0.26550100  0.13611200  0.07366600  1
  H  1200  1  0.27516300  0.15334500  0.05927400  1
  H  1202  1  0.22836900  0.18882400  0.12000400  1
  H  1203  1  0.19046400  0.19106200  0.13763300  1
  H  1204  1  0.20125700  0.20872300  0.12365700  1
  H  1206  1  0.10862900  0.19923200  0.14241800  1
  H  1208  1  0.17351900  0.12929000  0.02626400  1
  H  1215  1  0.64366500  0.79170400  0.11059800  1
  H  1224  1  0.72957300  0.82772400  0.07318200  1
  H  1225  1  0.70535700  0.80493100  0.09184700  1
  H  1226  1  0.71150000  0.85571200  0.05835600  1
  H  1228  1  0.48679800  0.80713900  0.12429100  1
  H  1229  1  0.49409300  0.82950500  0.12204800  1
  H  1230  1  0.47344600  0.81709800  0.10458000  1
  H  1232  1  0.53266600  0.87697800  0.07092800  1
  H  1233  1  0.57566900  0.89260600  0.06699700  1
  H  1234  1  0.55314600  0.87986700  0.04987400  1
  H  1236  1  0.65423300  0.89370900  0.05518400  1
  H  1238  1  0.56545200  0.77739800  0.12145800  1
  H  1245  1  0.14576500  0.71028400  0.89124400  1
  H  1254  1  0.23105200  0.67365700  0.92825400  1
  H  1255  1  0.20742300  0.69659000  0.90966300  1
  H  1256  1  0.21191300  0.64593000  0.94333700  1
  H  1258  1  0.98713800  0.69636800  0.87882100  1
  H  1259  1  0.99339200  0.67394000  0.88087900  1
  H  1260  1  0.97403000  0.68636400  0.89853300  1
  H  1262  1  0.03156800  0.62589800  0.93172600  1
  H  1263  1  0.07407600  0.61000100  0.93529500  1
  H  1264  1  0.05280900  0.62272200  0.95263700  1
  H  1266  1  0.15321300  0.60842400  0.94689900  1
  H  1268  1  0.07092800  0.72544400  0.88041300  1
  H  1275  1  0.39803700  0.63857400  0.04472300  1
  H  1284  1  0.48196100  0.67397900  0.08324500  1
  H  1285  1  0.46023800  0.65503200  0.06035200  1
  H  1286  1  0.45878600  0.69156300  0.10899500  1
  H  1288  1  0.23315800  0.63345900  0.05178900  1
  H  1289  1  0.23227100  0.63707800  0.07413400  1
  H  1290  1  0.22338500  0.65434300  0.05971200  1
  H  1292  1  0.27036100  0.68961400  0.12038500  1
  H  1293  1  0.30800600  0.69167300  0.13810900  1
  H  1294  1  0.29798600  0.70939300  0.12413300  1
  H  1296  1  0.39024000  0.69950700  0.14308500  1
  H  1298  1  0.32298500  0.63011600  0.02679100  1
  H  1305  1  0.89921000  0.86386800  0.95703800  1
  H  1314  1  0.98305300  0.82856300  0.91843300  1
  H  1315  1  0.96137600  0.84752400  0.94131100  1
  H  1316  1  0.95984000  0.81087000  0.89280700  1
  H  1318  1  0.73401600  0.86823000  0.95068800  1
  H  1319  1  0.73258200  0.86452900  0.92836000  1
  H  1320  1  0.72454800  0.84728400  0.94287500  1
  H  1322  1  0.77112000  0.81186800  0.88201600  1
  H  1323  1  0.80843000  0.81009700  0.86416200  1
  H  1324  1  0.79955000  0.79227000  0.87810200  1
  H  1326  1  0.89081400  0.80270400  0.85890300  1
  H  1328  1  0.82539900  0.87222900  0.97525500  1
  H  1335  1  0.85071200  0.70716400  0.38742100  1
  H  1344  1  0.76865500  0.66867100  0.42346300  1
  H  1345  1  0.78924200  0.69137100  0.40411700  1
  H  1346  1  0.79310700  0.64342700  0.44151000  1
  H  1348  1  0.01611800  0.70154200  0.38296400  1
  H  1349  1  0.01832000  0.67925700  0.38686300  1
  H  1350  1  0.02602000  0.69396200  0.40396700  1
  H  1352  1  0.98197700  0.63309900  0.43963700  1
  H  1353  1  0.94498100  0.61521500  0.44192000  1
  H  1354  1  0.95460600  0.62941400  0.45947800  1
  H  1356  1  0.86308400  0.60993400  0.44987100  1
  H  1358  1  0.92367300  0.72562800  0.37880800  1
  H  1365  1  0.35168800  0.79460800  0.61447300  1
  H  1374  1  0.26987900  0.83308900  0.57836600  1
  H  1375  1  0.29035500  0.81039500  0.59773000  1
  H  1376  1  0.29439300  0.85832600  0.56035100  1
  H  1378  1  0.51707300  0.80015500  0.61902300  1
  H  1379  1  0.51938800  0.82243500  0.61510900  1
  H  1380  1  0.52709100  0.80771300  0.59802000  1
  H  1382  1  0.48328700  0.86860400  0.56214800  1
  H  1383  1  0.44631900  0.88650300  0.55989500  1
  H  1384  1  0.45577000  0.87230000  0.54233200  1
  H  1386  1  0.36449900  0.89180000  0.55197200  1
  H  1388  1  0.42442300  0.77612300  0.62316000  1
  H  1395  1  0.11586100  0.85622100  0.46102800  1
  H  1404  1  0.03311000  0.81726900  0.42569100  1
  H  1405  1  0.05740900  0.83556900  0.44875700  1
  H  1406  1  0.04755600  0.80510800  0.39630600  1
  H  1408  1  0.26016800  0.87899700  0.44061200  1
  H  1409  1  0.24633500  0.87829400  0.41856700  1
  H  1410  1  0.27663700  0.86102200  0.42827400  1
  H  1412  1  0.20938100  0.82965700  0.36804300  1
  H  1413  1  0.16275500  0.82478200  0.35417800  1
  H  1414  1  0.19594600  0.80808300  0.36379400  1
  H  1416  1  0.10466300  0.80336900  0.35577900  1
  H  1418  1  0.19433900  0.86921200  0.47307400  1
  H  1425  1  0.61260600  0.64419000  0.54144500  1
  H  1434  1  0.52860900  0.68238000  0.57723600  1
  H  1435  1  0.55273800  0.66400200  0.55420000  1
  H  1436  1  0.54491700  0.69558400  0.60611300  1
  H  1438  1  0.76205600  0.62456000  0.56008800  1
  H  1439  1  0.75074500  0.62571200  0.58230700  1
  H  1440  1  0.77762200  0.64316800  0.57161800  1
  H  1442  1  0.71419200  0.67540500  0.63171600  1
  H  1443  1  0.67057200  0.68151400  0.64636300  1
  H  1444  1  0.70060000  0.69724900  0.63399000  1
  H  1446  1  0.60191900  0.69773500  0.64575800  1
  H  1448  1  0.69165400  0.63222000  0.52851500  1
  H  1455  1  0.14031800  0.29118400  0.61021700  1
  H  1464  1  0.22613700  0.32817900  0.57380900  1
  H  1465  1  0.20223800  0.30507200  0.59213500  1
  H  1466  1  0.20719100  0.35602500  0.55893500  1
  H  1468  1  0.98238400  0.30556800  0.62337800  1
  H  1469  1  0.98878100  0.32798700  0.62129700  1
  H  1470  1  0.96912000  0.31557300  0.60368000  1
  H  1472  1  0.02640400  0.37583100  0.57005700  1
  H  1473  1  0.06892800  0.39180400  0.56684900  1
  H  1474  1  0.04840400  0.37924100  0.54928900  1
  H  1476  1  0.14848700  0.39349400  0.55555200  1
  H  1478  1  0.06246300  0.27630200  0.62079900  1
  H  1485  1  0.64075000  0.21062700  0.39128900  1
  H  1494  1  0.72594100  0.17338700  0.42763100  1
  H  1495  1  0.70255400  0.19649500  0.40922000  1
  H  1496  1  0.70618900  0.14578300  0.44278700  1
  H  1498  1  0.48172700  0.19718600  0.37894100  1
  H  1499  1  0.48704800  0.17474700  0.38120200  1
  H  1500  1  0.46863000  0.18745500  0.39879100  1
  H  1502  1  0.52412800  0.12704200  0.43267600  1
  H  1503  1  0.56609300  0.11082600  0.43566700  1
  H  1504  1  0.54684600  0.12351800  0.45332200  1
  H  1506  1  0.64610200  0.10872300  0.44658200  1
  H  1508  1  0.56316400  0.22592100  0.38093700  1
  H  1515  1  0.88966500  0.14153700  0.54147800  1
  H  1524  1  0.97568100  0.17760500  0.57870700  1
  H  1525  1  0.95193200  0.15920000  0.55564800  1
  H  1526  1  0.95612800  0.19298300  0.60619700  1
  H  1528  1  0.72977500  0.13030600  0.55448300  1
  H  1529  1  0.73459400  0.13278500  0.57691600  1
  H  1530  1  0.71734300  0.15034400  0.56394500  1
  H  1532  1  0.77301100  0.18441500  0.62429900  1
  H  1533  1  0.81477800  0.18688600  0.64067100  1
  H  1534  1  0.79708400  0.20481300  0.62805000  1
  H  1536  1  0.89574800  0.19705400  0.64307900  1
  H  1538  1  0.81188100  0.13144900  0.52604600  1
  H  1545  1  0.39160900  0.36115600  0.46010300  1
  H  1554  1  0.47747200  0.32542500  0.42248100  1
  H  1555  1  0.45405700  0.34384000  0.44558200  1
  H  1556  1  0.45710400  0.30964300  0.39528900  1
  H  1558  1  0.23013600  0.37073100  0.44848500  1
  H  1559  1  0.23368500  0.36809700  0.42603800  1
  H  1560  1  0.21843200  0.35050800  0.43930200  1
  H  1562  1  0.27253600  0.31680000  0.37860900  1
  H  1563  1  0.31353300  0.31462900  0.36193900  1
  H  1564  1  0.29740500  0.29657200  0.37465900  1
  H  1566  1  0.39508400  0.30496500  0.35896400  1
  H  1568  1  0.31467400  0.37092900  0.47609700  1
  H  1575  1  0.30967500  0.06456400  0.26733700  1
  H  1584  1  0.23936000  0.10728500  0.27589300  1
  H  1587  1  0.22026200  0.10688500  0.24123800  1
  H  1588  1  0.25590400  0.11796100  0.22921000  1
  H  1589  1  0.20966100  0.04421900  0.25077800  1
  H  1590  1  0.24567900  0.05800400  0.24223300  1
  H  1591  1  0.13102300  0.06132400  0.30541700  1
  H  1592  1  0.13031500  0.08122100  0.31106300  1
  H  1593  1  0.42130200  0.10083700  0.22592500  1
  H  1594  1  0.43987000  0.08452300  0.23677000  1
  H  1596  1  0.13101200  0.10819200  0.29851400  1
  H  1597  1  0.18119300  0.10481300  0.31137600  1
  H  1599  1  0.11702500  0.04757600  0.28304700  1
  H  1600  1  0.16636200  0.03720500  0.27539900  1
  H  1602  1  0.40796500  0.05807300  0.24208300  1
  H  1603  1  0.42635200  0.06797200  0.26143700  1
  H  1605  1  0.38233200  0.12409900  0.23386600  1
  H  1606  1  0.32506100  0.13018200  0.23459400  1
  H  1613  1  0.80988200  0.43735000  0.24706400  1
  H  1622  1  0.73961600  0.39463800  0.23851400  1
  H  1625  1  0.72040800  0.39507500  0.27319600  1
  H  1626  1  0.75601100  0.38402300  0.28526300  1
  H  1627  1  0.70984600  0.45765900  0.26371400  1
  H  1628  1  0.74590100  0.44386900  0.27221600  1
  H  1629  1  0.63004200  0.44047100  0.20913000  1
  H  1630  1  0.62984700  0.42058100  0.20352800  1
  H  1631  1  0.92150700  0.40108300  0.28848700  1
  H  1632  1  0.94007100  0.41739800  0.27764700  1
  H  1634  1  0.63108700  0.39362900  0.21608400  1
  H  1635  1  0.68094300  0.39710500  0.20307500  1
  H  1637  1  0.61737700  0.45443400  0.23141800  1
  H  1638  1  0.66657800  0.46470600  0.23925700  1
  H  1640  1  0.90811700  0.44385400  0.27235300  1
  H  1641  1  0.92653200  0.43396200  0.25300000  1
  H  1643  1  0.88241500  0.37783300  0.28059000  1
  H  1644  1  0.82511700  0.37177500  0.27991700  1
  H  1651  1  0.56073700  0.24061000  0.07240250  1
  H  1660  1  0.49022800  0.23220900  0.11498700  1
  H  1663  1  0.47117900  0.26695300  0.11456000  1
  H  1664  1  0.50665400  0.27911100  0.12554700  1
  H  1665  1  0.46161700  0.25709100  0.05179150  1
  H  1666  1  0.49770100  0.26570800  0.06551150  1
  H  1667  1  0.37953900  0.20356400  0.06901550  1
  H  1668  1  0.37982100  0.19758400  0.08882350  1
  H  1669  1  0.67196900  0.28258900  0.10818800  1
  H  1670  1  0.69068600  0.27155200  0.09203050  1
  H  1672  1  0.38146500  0.20982600  0.11591700  1
  H  1673  1  0.43128600  0.19685000  0.11227900  1
  H  1675  1  0.36490700  0.22650300  0.05611250  1
  H  1676  1  0.41469000  0.23311200  0.04519850  1
  H  1678  1  0.65876000  0.26598800  0.06566250  1
  H  1679  1  0.67735900  0.24671600  0.07566250  1
  H  1681  1  0.63325300  0.27490000  0.13155100  1
  H  1682  1  0.57605600  0.27400600  0.13769700  1
  H  1689  1  0.06072700  0.26136900  0.44204700  1
  H  1698  1  0.99034800  0.26985100  0.39946100  1
  H  1701  1  0.97097600  0.23514300  0.39983900  1
  H  1702  1  0.00641100  0.22295100  0.38888000  1
  H  1703  1  0.96140000  0.24498500  0.46264800  1
  H  1704  1  0.99737200  0.23631200  0.44892000  1
  H  1705  1  0.88102200  0.29878600  0.44557100  1
  H  1706  1  0.88118200  0.30479900  0.42573700  1
  H  1707  1  0.17177200  0.21937100  0.40620900  1
  H  1708  1  0.19051800  0.23036800  0.42239600  1
  H  1710  1  0.88188900  0.29250600  0.39865400  1
  H  1711  1  0.93214500  0.30530200  0.40211900  1
  H  1713  1  0.86528500  0.27584100  0.45835900  1
  H  1714  1  0.91481400  0.26898300  0.46927500  1
  H  1716  1  0.15865900  0.23596200  0.44877900  1
  H  1717  1  0.17732600  0.25521400  0.43875900  1
  H  1719  1  0.13299700  0.22713300  0.38285800  1
  H  1720  1  0.07577900  0.22797500  0.37673800  1
  H  1727  1  0.69073100  0.93676400  0.24754800  1
  H  1736  1  0.75895700  0.89434200  0.23789100  1
  H  1739  1  0.78053300  0.89341000  0.27213100  1
  H  1740  1  0.74577600  0.88288600  0.28500300  1
  H  1741  1  0.79690700  0.95533300  0.26642400  1
  H  1742  1  0.75884500  0.94169900  0.27383500  1
  H  1743  1  0.87430100  0.93950800  0.20950900  1
  H  1744  1  0.86985700  0.91996400  0.20325800  1
  H  1745  1  0.58687200  0.90391900  0.29393400  1
  H  1746  1  0.56645200  0.91987300  0.28302700  1
  H  1748  1  0.86761100  0.89329400  0.21545400  1
  H  1749  1  0.81748000  0.89670300  0.20256700  1
  H  1751  1  0.87522400  0.95630800  0.22975400  1
  H  1752  1  0.82936900  0.96424400  0.24129500  1
  H  1754  1  0.59786200  0.94538100  0.27362800  1
  H  1755  1  0.57336400  0.93335700  0.25659100  1
  H  1757  1  0.61769700  0.87935600  0.28432500  1
  H  1758  1  0.67321200  0.87191100  0.28101700  1
  H  1765  1  0.19037000  0.56529400  0.26684100  1
  H  1774  1  0.25709400  0.60746200  0.27733900  1
  H  1777  1  0.27947000  0.60912300  0.24280700  1
  H  1778  1  0.24482500  0.61952400  0.22979900  1
  H  1779  1  0.29948200  0.54825000  0.24619700  1
  H  1780  1  0.25891100  0.56139700  0.23985100  1
  H  1781  1  0.38782400  0.56441300  0.30098100  1
  H  1782  1  0.37595600  0.58275400  0.30926400  1
  H  1783  1  0.08631300  0.59809600  0.22044100  1
  H  1784  1  0.06620600  0.58197400  0.23117200  1
  H  1786  1  0.36818300  0.60933600  0.29787400  1
  H  1787  1  0.32036200  0.60523700  0.31171200  1
  H  1789  1  0.36975700  0.54464200  0.28480400  1
  H  1790  1  0.32685400  0.53817900  0.27129400  1
  H  1792  1  0.09800000  0.55650900  0.24068200  1
  H  1793  1  0.07288900  0.56850500  0.25761700  1
  H  1795  1  0.11672700  0.62269200  0.23015000  1
  H  1796  1  0.17207700  0.63025200  0.23350500  1
  H  1803  1  0.43980700  0.76107200  0.44301300  1
  H  1812  1  0.50750300  0.77167600  0.40138100  1
  H  1815  1  0.52793400  0.73585700  0.39987100  1
  H  1816  1  0.49252900  0.72347200  0.38911400  1
  H  1817  1  0.54563100  0.73892400  0.46008200  1
  H  1818  1  0.50298000  0.73379800  0.44732300  1
  H  1819  1  0.65709900  0.78446800  0.44072500  1
  H  1820  1  0.64428100  0.79583300  0.42397000  1
  H  1821  1  0.32728400  0.71967800  0.40701400  1
  H  1822  1  0.30928500  0.73036900  0.42351500  1
  H  1824  1  0.62216500  0.78740400  0.39735500  1
  H  1825  1  0.58344900  0.80377400  0.40420200  1
  H  1827  1  0.62132200  0.77648000  0.46309400  1
  H  1828  1  0.57612900  0.76404400  0.46992300  1
  H  1830  1  0.34228700  0.73559300  0.44989000  1
  H  1831  1  0.32294700  0.75493500  0.44022000  1
  H  1833  1  0.36576000  0.72740300  0.38362700  1
  H  1834  1  0.42279300  0.72824000  0.37732400  1
  H  1841  1  0.94180900  0.74125900  0.07118950  1
  H  1850  1  0.01155500  0.73264300  0.11378900  1
  H  1853  1  0.03057600  0.76747200  0.11364400  1
  H  1854  1  0.99478100  0.77945800  0.12466700  1
  H  1855  1  0.04227200  0.75876700  0.05122750  1
  H  1856  1  0.00518000  0.76673300  0.06492950  1
  H  1857  1  0.12723600  0.70484200  0.06887050  1
  H  1858  1  0.12804800  0.69968500  0.08885850  1
  H  1859  1  0.82897900  0.78221000  0.10753300  1
  H  1860  1  0.81085300  0.77138200  0.09113750  1
  H  1862  1  0.12109700  0.71186200  0.11598900  1
  H  1863  1  0.07484700  0.69760300  0.11092000  1
  H  1865  1  0.13426700  0.72642800  0.05374350  1
  H  1866  1  0.08468100  0.73434300  0.04398650  1
  H  1868  1  0.84311300  0.76631800  0.06465450  1
  H  1869  1  0.82501900  0.74687300  0.07443950  1
  H  1871  1  0.86844700  0.77453100  0.13075100  1
  H  1872  1  0.92574500  0.77412700  0.13679600  1
  H  1879  1  0.81228500  0.56625000  0.76717200  1
  H  1888  1  0.74407000  0.60778500  0.77773600  1
  H  1891  1  0.72496900  0.60955000  0.74176200  1
  H  1892  1  0.76089600  0.62039200  0.72967800  1
  H  1893  1  0.70527700  0.54976500  0.74394200  1
  H  1894  1  0.75054700  0.56168200  0.73981200  1
  H  1895  1  0.58881100  0.57015300  0.78572100  1
  H  1896  1  0.59842300  0.58738100  0.79686300  1
  H  1897  1  0.92614200  0.60256700  0.72648000  1
  H  1898  1  0.94386700  0.58603500  0.73717800  1
  H  1900  1  0.62875700  0.61365100  0.79076000  1
  H  1901  1  0.66037300  0.60470000  0.80815500  1
  H  1903  1  0.63066900  0.54714500  0.78215900  1
  H  1904  1  0.67418000  0.53989100  0.76901700  1
  H  1906  1  0.91079900  0.55967700  0.74218500  1
  H  1907  1  0.92961000  0.56934600  0.76160200  1
  H  1909  1  0.88736300  0.62585900  0.73379600  1
  H  1910  1  0.83035400  0.63215800  0.73463900  1
  H  1917  1  0.31205200  0.93546000  0.74730500  1
  H  1926  1  0.24418800  0.89383900  0.73687900  1
  H  1929  1  0.22570900  0.89205100  0.77299700  1
  H  1930  1  0.26203800  0.88122900  0.78492800  1
  H  1931  1  0.20503100  0.95171600  0.77084500  1
  H  1932  1  0.25102200  0.94007300  0.77468300  1
  H  1933  1  0.08687200  0.93059800  0.73031800  1
  H  1934  1  0.09610800  0.91327500  0.71927200  1
  H  1935  1  0.42720800  0.89919400  0.78757800  1
  H  1936  1  0.44456400  0.91574800  0.77683300  1
  H  1938  1  0.12909000  0.88713200  0.72461200  1
  H  1939  1  0.15810200  0.89684100  0.70701300  1
  H  1941  1  0.12903800  0.95383700  0.73289400  1
  H  1942  1  0.17294400  0.96136200  0.74573600  1
  H  1944  1  0.41113100  0.94207800  0.77200800  1
  H  1945  1  0.42957300  0.93247900  0.75251000  1
  H  1947  1  0.38842300  0.87588800  0.78044600  1
  H  1948  1  0.33145400  0.86953100  0.77970200  1
  H  1955  1  0.06332600  0.74053800  0.57169400  1
  H  1964  1  0.99087100  0.73192100  0.61334900  1
  H  1967  1  0.96740000  0.76720500  0.61140100  1
  H  1968  1  0.00030400  0.78024300  0.62241600  1
  H  1969  1  0.95867300  0.75854700  0.55106500  1
  H  1970  1  0.99593700  0.76628100  0.56484800  1
  H  1971  1  0.88086100  0.70216700  0.56747000  1
  H  1972  1  0.88199700  0.69661900  0.58731300  1
  H  1973  1  0.17059500  0.78226600  0.60961500  1
  H  1974  1  0.19025100  0.77182500  0.59324400  1
  H  1976  1  0.88258500  0.70933500  0.61393600  1
  H  1977  1  0.93281400  0.69637400  0.61101100  1
  H  1979  1  0.87618100  0.72301400  0.55127800  1
  H  1980  1  0.92296900  0.73376000  0.54279400  1
  H  1982  1  0.16181200  0.76567200  0.56609000  1
  H  1983  1  0.17937200  0.74708000  0.57743700  1
  H  1985  1  0.12548600  0.77734700  0.63142500  1
  H  1986  1  0.06731000  0.77742600  0.63591100  1
  H  1993  1  0.56253100  0.76111200  0.94315100  1
  H  2002  1  0.49148800  0.76975900  0.90114600  1
  H  2005  1  0.46902400  0.73491800  0.90208400  1
  H  2006  1  0.50291000  0.72209100  0.89119300  1
  H  2007  1  0.45779000  0.74307200  0.96330700  1
  H  2008  1  0.49516500  0.73525900  0.94960100  1
  H  2009  1  0.38231800  0.79972800  0.94694800  1
  H  2010  1  0.38331800  0.80528300  0.92707500  1
  H  2011  1  0.66926700  0.71760400  0.90732100  1
  H  2012  1  0.68930400  0.72851400  0.92331500  1
  H  2014  1  0.38347800  0.79260900  0.90040900  1
  H  2015  1  0.43408600  0.80535400  0.90338300  1
  H  2017  1  0.37548600  0.77871100  0.96284200  1
  H  2018  1  0.42230500  0.76808200  0.97151600  1
  H  2020  1  0.65958200  0.73587500  0.94981600  1
  H  2021  1  0.67928900  0.75396500  0.93813800  1
  H  2023  1  0.62946400  0.72445700  0.88426800  1
  H  2024  1  0.57196400  0.72554700  0.87857400  1
  H  2031  1  0.18974700  0.43712200  0.74888300  1
  H  2040  1  0.25362100  0.39473200  0.73787300  1
  H  2043  1  0.27576100  0.39234400  0.77267200  1
  H  2044  1  0.24016500  0.38195400  0.78532600  1
  H  2045  1  0.30219800  0.45204500  0.77109200  1
  H  2046  1  0.25824200  0.43994200  0.77644700  1
  H  2047  1  0.39555800  0.43518600  0.71865500  1
  H  2048  1  0.38214400  0.41751400  0.70915800  1
  H  2049  1  0.08225700  0.40429300  0.79426900  1
  H  2050  1  0.06360500  0.42080600  0.78375900  1
  H  2052  1  0.36664400  0.39096500  0.71960500  1
  H  2053  1  0.32298600  0.39665200  0.70451600  1
  H  2055  1  0.36756000  0.45656500  0.73122100  1
  H  2056  1  0.32905400  0.46281800  0.74652400  1
  H  2058  1  0.09664900  0.44618300  0.77441000  1
  H  2059  1  0.07149600  0.43428600  0.75741500  1
  H  2061  1  0.11205600  0.37968700  0.78456800  1
  H  2062  1  0.16706700  0.37181700  0.78120600  1
  H  2069  1  0.68942200  0.06488800  0.76520700  1
  H  2078  1  0.75273000  0.10720400  0.77657400  1
  H  2081  1  0.77464100  0.10990500  0.74150600  1
  H  2082  1  0.73878000  0.12032000  0.72898500  1
  H  2083  1  0.80348100  0.05113500  0.74186200  1
  H  2084  1  0.75766100  0.06260000  0.73725300  1
  H  2085  1  0.89910200  0.06770800  0.79319800  1
  H  2086  1  0.88594900  0.08516200  0.80325300  1
  H  2087  1  0.58037000  0.09811100  0.72056000  1
  H  2088  1  0.56217200  0.08146200  0.73094600  1
  H  2090  1  0.86667100  0.11172300  0.79371300  1
  H  2091  1  0.82517600  0.10520500  0.80927600  1
  H  2093  1  0.86578000  0.04578200  0.78241700  1
  H  2094  1  0.83152800  0.03982200  0.76564000  1
  H  2096  1  0.59566800  0.05599900  0.73991100  1
  H  2097  1  0.57091200  0.06774500  0.75708700  1
  H  2099  1  0.61078500  0.12260000  0.73011200  1
  H  2100  1  0.66591700  0.13042300  0.73325200  1
  H  2107  1  0.94186100  0.25859500  0.94397500  1
  H  2116  1  0.00489700  0.27030400  0.90145900  1
  H  2119  1  0.02620500  0.23533100  0.89849900  1
  H  2120  1  0.99004900  0.22307900  0.88792700  1
  H  2121  1  0.05668600  0.23523200  0.95706200  1
  H  2122  1  0.01017300  0.23081000  0.94586400  1
  H  2123  1  0.15233600  0.28632600  0.94073100  1
  H  2124  1  0.13982000  0.29628800  0.92313200  1
  H  2125  1  0.83119700  0.21498000  0.91000900  1
  H  2126  1  0.81371600  0.22499100  0.92697100  1
  H  2128  1  0.11898900  0.28698600  0.89653800  1
  H  2129  1  0.07875700  0.30278800  0.90354900  1
  H  2131  1  0.11594600  0.27641500  0.96280800  1
  H  2132  1  0.08438400  0.25885500  0.96862400  1
  H  2134  1  0.84769300  0.23337200  0.95257500  1
  H  2135  1  0.82318400  0.25076300  0.94108200  1
  H  2137  1  0.86211300  0.22481600  0.88571300  1
  H  2138  1  0.91742900  0.22758400  0.87794300  1
  H  2145  1  0.44139200  0.24346700  0.57041900  1
  H  2154  1  0.50474900  0.23178900  0.61282400  1
  H  2157  1  0.52655500  0.26680800  0.61566000  1
  H  2158  1  0.49056200  0.27907500  0.62628100  1
  H  2159  1  0.55627300  0.26675900  0.55712800  1
  H  2160  1  0.50988500  0.27124200  0.56835300  1
  H  2161  1  0.65119300  0.21531000  0.57326100  1
  H  2162  1  0.63865000  0.20539700  0.59088200  1
  H  2163  1  0.33102400  0.28692300  0.60471900  1
  H  2164  1  0.31333100  0.27691200  0.58777500  1
  H  2166  1  0.61873800  0.21482700  0.61750500  1
  H  2167  1  0.57778300  0.19917700  0.61072800  1
  H  2169  1  0.61520400  0.22554500  0.55128400  1
  H  2170  1  0.58398200  0.24320700  0.54555500  1
  H  2172  1  0.34684000  0.26859800  0.56206400  1
  H  2173  1  0.32275900  0.25116400  0.57361500  1
  H  2175  1  0.36273700  0.27710300  0.62891700  1
  H  2176  1  0.41831800  0.27455300  0.63648600  1
  H  2183  1  0.03549400  0.04731800  0.27034700  1
  H  2192  1  0.90027900  0.01372400  0.27920900  1
  H  2193  1  0.95672300  0.03641100  0.27900300  1
  H  2194  1  0.87705500  0.98386300  0.27063500  1
  H  2196  1  0.15983200  0.02377500  0.23707300  1
  H  2197  1  0.12606700  0.00953400  0.22473700  1
  H  2198  1  0.15247900  0.00238100  0.24401000  1
  H  2200  1  0.01361200  0.95085500  0.23421100  1
  H  2201  1  0.95519800  0.94618900  0.22895900  1
  H  2202  1  0.97925000  0.93879500  0.24858600  1
  H  2204  1  0.89882000  0.94221900  0.25878200  1
  H  2206  1  0.10542200  0.05789900  0.25271000  1
  H  2213  1  0.53571300  0.45453200  0.24396100  1
  H  2222  1  0.40074300  0.48837600  0.23525500  1
  H  2223  1  0.45703800  0.46562500  0.23526400  1
  H  2224  1  0.37781200  0.51824400  0.24412100  1
  H  2226  1  0.65963400  0.47763500  0.27779700  1
  H  2227  1  0.62575500  0.49177100  0.29020600  1
  H  2228  1  0.65245400  0.49910000  0.27105400  1
  H  2230  1  0.51459700  0.55040400  0.28118700  1
  H  2231  1  0.45625100  0.55508200  0.28643800  1
  H  2232  1  0.48056100  0.56276500  0.26696500  1
  H  2234  1  0.40130400  0.55982900  0.25655700  1
  H  2236  1  0.60540500  0.44373600  0.26162600  1
  H  2243  1  0.28496200  0.24053500  0.05460450  1
  H  2252  1  0.15287400  0.23286000  0.01895150  1
  H  2253  1  0.20627900  0.23291900  0.04263450  1
  H  2254  1  0.13538700  0.24037700  0.98827300  1
  H  2256  1  0.41392300  0.27255700  0.03267350  1
  H  2257  1  0.38339400  0.28432100  0.01707450  1
  H  2258  1  0.40997100  0.26456200  0.01150250  1
  H  2260  1  0.28221400  0.27297200  0.95719800  1
  H  2261  1  0.22603300  0.27948700  0.95093100  1
  H  2262  1  0.24769400  0.25904500  0.94473200  1
  H  2264  1  0.16596900  0.25413600  0.94607800  1
  H  2266  1  0.35647900  0.25679500  0.06595050  1
  H  2273  1  0.78508800  0.26219600  0.45986100  1
  H  2282  1  0.65322400  0.26993900  0.49562000  1
  H  2283  1  0.70666300  0.27000900  0.47194600  1
  H  2284  1  0.63543200  0.26200300  0.52617900  1
  H  2286  1  0.91293300  0.22926100  0.48132500  1
  H  2287  1  0.88197600  0.21740700  0.49674100  1
  H  2288  1  0.90923500  0.23695100  0.50261400  1
  H  2290  1  0.78114900  0.22825700  0.55673200  1
  H  2291  1  0.72475300  0.22186400  0.56285600  1
  H  2292  1  0.74701600  0.24210000  0.56943300  1
  H  2294  1  0.66564500  0.24758400  0.56815000  1
  H  2296  1  0.85604300  0.24567000  0.44830500  1
  H  2303  1  0.96652900  0.45783800  0.23537500  1
  H  2312  1  0.10200100  0.49240400  0.23362500  1
  H  2313  1  0.04534400  0.47024900  0.22911500  1
  H  2314  1  0.12437000  0.52026100  0.24741100  1
  H  2316  1  0.83797000  0.47610000  0.26969300  1
  H  2317  1  0.84813800  0.49835700  0.26813500  1
  H  2318  1  0.87135500  0.48655300  0.28558500  1
  H  2320  1  0.98955400  0.54459500  0.29083600  1
  H  2321  1  0.02113800  0.55998200  0.27908700  1
  H  2322  1  0.04864800  0.54834700  0.29583700  1
  H  2324  1  0.11884700  0.55223600  0.27757400  1
  H  2326  1  0.87723300  0.45291300  0.23748300  1
  H  2333  1  0.46631500  0.04407000  0.27911200  1
  H  2342  1  0.60178700  0.00950900  0.28091300  1
  H  2343  1  0.54507700  0.03164500  0.28542500  1
  H  2344  1  0.62430700  0.98169900  0.26707300  1
  H  2346  1  0.33791400  0.02583800  0.24470200  1
  H  2347  1  0.34807400  0.00358000  0.24625400  1
  H  2348  1  0.37135900  0.01539200  0.22882300  1
  H  2350  1  0.48971600  0.95738700  0.22354700  1
  H  2351  1  0.52124100  0.94199200  0.23530500  1
  H  2352  1  0.54883100  0.95364000  0.21858100  1
  H  2354  1  0.61916700  0.94984300  0.23680400  1
  H  2356  1  0.37704200  0.04901300  0.27694900  1
  H  2363  1  0.71706800  0.22868000  0.05186050  1
  H  2372  1  0.85227200  0.22616000  0.01719250  1
  H  2373  1  0.79561500  0.22202200  0.03941950  1
  H  2374  1  0.87496600  0.23972000  0.98925400  1
  H  2376  1  0.58941000  0.26338100  0.03347850  1
  H  2377  1  0.59957900  0.26170400  0.01123050  1
  H  2378  1  0.62317800  0.27912700  0.02296950  1
  H  2380  1  0.74228000  0.28419100  0.96526100  1
  H  2381  1  0.77243300  0.27218200  0.94970500  1
  H  2382  1  0.80158700  0.28860400  0.96126300  1
  H  2384  1  0.87113200  0.26997700  0.95749000  1
  H  2386  1  0.62795600  0.23106900  0.05679250  1
  H  2393  1  0.21711500  0.27321700  0.46256400  1
  H  2402  1  0.35211600  0.27571100  0.49733900  1
  H  2403  1  0.29563000  0.27983900  0.47505100  1
  H  2404  1  0.37454200  0.26220400  0.52532900  1
  H  2406  1  0.08910900  0.23868500  0.48093800  1
  H  2407  1  0.09912300  0.24043300  0.50319100  1
  H  2408  1  0.12269200  0.22294700  0.49153600  1
  H  2410  1  0.24134700  0.21795300  0.54935200  1
  H  2411  1  0.27139400  0.23000900  0.56489900  1
  H  2412  1  0.30058900  0.21351700  0.55345400  1
  H  2414  1  0.37045400  0.23200900  0.55709500  1
  H  2416  1  0.12798900  0.27091300  0.45759900  1
  H  2423  1  0.71580400  0.76459400  0.46061500  1
  H  2432  1  0.85299300  0.77257000  0.49340100  1
  H  2433  1  0.79542700  0.77285800  0.47109000  1
  H  2434  1  0.87697900  0.76383800  0.52315700  1
  H  2436  1  0.59206400  0.73132400  0.48467000  1
  H  2437  1  0.62694300  0.71849200  0.49812100  1
  H  2438  1  0.60105500  0.73750200  0.50617900  1
  H  2440  1  0.73934800  0.72873200  0.55702200  1
  H  2441  1  0.79746700  0.72296400  0.56152700  1
  H  2442  1  0.77505200  0.74289600  0.56879200  1
  H  2444  1  0.85599100  0.75252200  0.56486800  1
  H  2446  1  0.64950400  0.74662000  0.44993500  1
  H  2453  1  0.21665400  0.73967400  0.05464550  1
  H  2462  1  0.35291700  0.73064300  0.02167450  1
  H  2463  1  0.29603300  0.73118700  0.04420550  1
  H  2464  1  0.37642600  0.73853800  0.99165900  1
  H  2466  1  0.09153800  0.77163300  0.02989550  1
  H  2467  1  0.12507200  0.78380600  0.01543350  1
  H  2468  1  0.09969000  0.76419400  0.00871150  1
  H  2470  1  0.23858400  0.77288200  0.95716600  1
  H  2471  1  0.29671900  0.77850100  0.95248400  1
  H  2472  1  0.27411800  0.75844000  0.94566300  1
  H  2474  1  0.35532700  0.74909400  0.94966100  1
  H  2476  1  0.14596600  0.75686900  0.06465650  1
  H  2483  1  0.28441600  0.77268600  0.46439500  1
  H  2492  1  0.15118200  0.77484500  0.50009100  1
  H  2493  1  0.20653100  0.77917500  0.47745600  1
  H  2494  1  0.13003100  0.76097300  0.52805000  1
  H  2496  1  0.41354400  0.73815100  0.48167600  1
  H  2497  1  0.40481400  0.73984400  0.50400600  1
  H  2498  1  0.38064700  0.72237000  0.49250000  1
  H  2500  1  0.26496800  0.71687400  0.55095200  1
  H  2501  1  0.23645700  0.72905300  0.56678600  1
  H  2502  1  0.20604700  0.71256200  0.55574500  1
  H  2504  1  0.13402800  0.72999600  0.55843100  1
  H  2506  1  0.37325700  0.77049100  0.45884600  1
  H  2513  1  0.78558200  0.72932500  0.05026150  1
  H  2522  1  0.65135400  0.72729200  0.01504350  1
  H  2523  1  0.70732500  0.72287500  0.03745450  1
  H  2524  1  0.62951300  0.74120900  0.98718600  1
  H  2526  1  0.91418400  0.76395300  0.03262350  1
  H  2527  1  0.90485400  0.76233800  0.01032050  1
  H  2528  1  0.88092800  0.77975400  0.02198050  1
  H  2530  1  0.76410300  0.78520700  0.96378100  1
  H  2531  1  0.73456700  0.77317300  0.94808800  1
  H  2532  1  0.70506500  0.78971600  0.95937100  1
  H  2534  1  0.63363900  0.77197700  0.95629200  1
  H  2536  1  0.87479200  0.73156800  0.05550750  1
  H  2543  1  0.53418800  0.54705200  0.77203000  1
  H  2552  1  0.40176700  0.51174600  0.78110000  1
  H  2553  1  0.45682900  0.53493200  0.78139700  1
  H  2554  1  0.38034400  0.48181000  0.77156000  1
  H  2556  1  0.65752100  0.52541100  0.73682900  1
  H  2557  1  0.62302900  0.51146900  0.72438800  1
  H  2558  1  0.65182700  0.50373900  0.74296100  1
  H  2560  1  0.52089300  0.45145300  0.73483700  1
  H  2561  1  0.46355000  0.44685100  0.72836000  1
  H  2562  1  0.48553000  0.43840400  0.74792100  1
  H  2564  1  0.40690000  0.44043600  0.75732800  1
  H  2566  1  0.59676200  0.55911600  0.75298500  1
  H  2573  1  0.03294400  0.95482500  0.74332800  1
  H  2582  1  0.90220400  0.99102900  0.73432700  1
  H  2583  1  0.95597100  0.96743300  0.73408700  1
  H  2584  1  0.88276300  0.02122500  0.74357200  1
  H  2586  1  0.15782900  0.97585000  0.77817500  1
  H  2587  1  0.12438200  0.99030000  0.79040400  1
  H  2588  1  0.15356200  0.99746600  0.77168600  1
  H  2590  1  0.02646100  0.05089200  0.77922900  1
  H  2591  1  0.96974000  0.05617000  0.78592900  1
  H  2592  1  0.99164000  0.06410800  0.76612800  1
  H  2594  1  0.91166600  0.06266500  0.75892100  1
  H  2596  1  0.09553100  0.94245100  0.76218400  1
  H  2603  1  0.46844900  0.95648400  0.73507900  1
  H  2612  1  0.60273000  0.99164300  0.73302900  1
  H  2613  1  0.54680400  0.96920300  0.72870200  1
  H  2614  1  0.62423000  0.01968300  0.74661700  1
  H  2616  1  0.33979800  0.97419200  0.76963800  1
  H  2617  1  0.34921200  0.99649000  0.76802400  1
  H  2618  1  0.37303100  0.98482200  0.78545500  1
  H  2620  1  0.48953800  0.04336100  0.79044500  1
  H  2621  1  0.51978900  0.05893000  0.77847600  1
  H  2622  1  0.54859100  0.04757800  0.79512500  1
  H  2624  1  0.61839400  0.05164800  0.77666200  1
  H  2626  1  0.37910000  0.95127100  0.73731700  1
  H  2633  1  0.96874800  0.54541800  0.77912400  1
  H  2642  1  0.10324600  0.51036700  0.78107200  1
  H  2643  1  0.04721900  0.53276700  0.78544000  1
  H  2644  1  0.12477800  0.48232800  0.76749100  1
  H  2646  1  0.83991300  0.52756000  0.74473300  1
  H  2647  1  0.84945800  0.50527000  0.74636700  1
  H  2648  1  0.87307800  0.51693300  0.72889500  1
  H  2650  1  0.98970100  0.45842000  0.72393900  1
  H  2651  1  0.02041600  0.44292900  0.73585900  1
  H  2652  1  0.04872700  0.45430800  0.71911400  1
  H  2654  1  0.11857200  0.45020800  0.73755500  1
  H  2656  1  0.87947900  0.55056800  0.77699100  1
  H  2663  1  0.35085900  0.20758000  0.14576900  1
  H  2672  1  0.26731900  0.16903000  0.18124000  1
  H  2673  1  0.28893700  0.19202200  0.16240800  1
  H  2674  1  0.29037300  0.14302500  0.19839900  1
  H  2676  1  0.51545300  0.20028600  0.14004000  1
  H  2677  1  0.51602100  0.17789800  0.14339200  1
  H  2678  1  0.52580300  0.19209200  0.16078100  1
  H  2680  1  0.47847100  0.13109900  0.19575700  1
  H  2681  1  0.44050400  0.11345600  0.19773600  1
  H  2682  1  0.45106200  0.12724300  0.21556400  1
  H  2684  1  0.35861400  0.10860900  0.20572100  1
  H  2686  1  0.42460700  0.22548200  0.13710300  1
  H  2693  1  0.85079500  0.29455100  0.36883400  1
  H  2702  1  0.76725500  0.33316900  0.33343000  1
  H  2703  1  0.78883800  0.31016800  0.35226000  1
  H  2704  1  0.79041600  0.35911500  0.31619500  1
  H  2706  1  0.01557000  0.30155600  0.37421100  1
  H  2707  1  0.01638600  0.32393800  0.37082600  1
  H  2708  1  0.02571700  0.30970500  0.35343700  1
  H  2710  1  0.97868600  0.37075100  0.31855600  1
  H  2711  1  0.94090300  0.38845100  0.31660900  1
  H  2712  1  0.95113800  0.37462900  0.29878200  1
  H  2714  1  0.85893300  0.39340400  0.30871200  1
  H  2716  1  0.92430700  0.27656300  0.37745400  1
  H  2723  1  0.60058900  0.36357600  0.21423400  1
  H  2732  1  0.51735100  0.32750600  0.17613100  1
  H  2733  1  0.53882300  0.34659800  0.19892900  1
  H  2734  1  0.54050500  0.31019500  0.15022300  1
  H  2736  1  0.76499800  0.36965100  0.20665500  1
  H  2737  1  0.76535700  0.36615100  0.18428900  1
  H  2738  1  0.77565400  0.34888200  0.19858100  1
  H  2740  1  0.72835800  0.31344300  0.13791800  1
  H  2741  1  0.69021600  0.31109700  0.12037100  1
  H  2742  1  0.70152700  0.29347900  0.13434500  1
  H  2744  1  0.60857000  0.30276100  0.11575300  1
  H  2746  1  0.67415600  0.37257600  0.23195800  1
  H  2753  1  0.10008200  0.13815800  0.30036900  1
  H  2762  1  0.01694200  0.17416900  0.33855300  1
  H  2763  1  0.03832000  0.15504500  0.31576900  1
  H  2764  1  0.04026000  0.19162100  0.36434100  1
  H  2766  1  0.26474400  0.13251500  0.30753000  1
  H  2767  1  0.26550100  0.13611200  0.32987900  1
  H  2768  1  0.27516300  0.15334500  0.31548700  1
  H  2770  1  0.22836900  0.18882400  0.37621700  1
  H  2771  1  0.19046400  0.19106200  0.39384600  1
  H  2772  1  0.20125700  0.20872300  0.37987000  1
  H  2774  1  0.10862900  0.19923200  0.39863100  1
  H  2776  1  0.17351900  0.12929000  0.28247700  1
  H  2783  1  0.64366500  0.79170400  0.36681100  1
  H  2792  1  0.72957300  0.82772400  0.32939500  1
  H  2793  1  0.70535700  0.80493100  0.34806000  1
  H  2794  1  0.71150000  0.85571200  0.31456900  1
  H  2796  1  0.48679800  0.80713900  0.38050400  1
  H  2797  1  0.49409300  0.82950500  0.37826100  1
  H  2798  1  0.47344600  0.81709800  0.36079300  1
  H  2800  1  0.53266600  0.87697800  0.32714100  1
  H  2801  1  0.57566900  0.89260600  0.32321000  1
  H  2802  1  0.55314600  0.87986700  0.30608700  1
  H  2804  1  0.65423300  0.89370900  0.31139700  1
  H  2806  1  0.56545200  0.77739800  0.37767100  1
  H  2813  1  0.14576500  0.71028400  0.14745700  1
  H  2822  1  0.23105200  0.67365700  0.18446700  1
  H  2823  1  0.20742300  0.69659000  0.16587600  1
  H  2824  1  0.21191300  0.64593000  0.19955000  1
  H  2826  1  0.98713800  0.69636800  0.13503400  1
  H  2827  1  0.99339200  0.67394000  0.13709200  1
  H  2828  1  0.97403000  0.68636400  0.15474600  1
  H  2830  1  0.03156800  0.62589800  0.18793900  1
  H  2831  1  0.07407600  0.61000100  0.19150800  1
  H  2832  1  0.05280900  0.62272200  0.20885000  1
  H  2834  1  0.15321300  0.60842400  0.20311200  1
  H  2836  1  0.07092800  0.72544400  0.13662600  1
  H  2843  1  0.39803700  0.63857400  0.30093600  1
  H  2852  1  0.48196100  0.67397900  0.33945800  1
  H  2853  1  0.46023800  0.65503200  0.31656500  1
  H  2854  1  0.45878600  0.69156300  0.36520800  1
  H  2856  1  0.23315800  0.63345900  0.30800200  1
  H  2857  1  0.23227100  0.63707800  0.33034700  1
  H  2858  1  0.22338500  0.65434300  0.31592500  1
  H  2860  1  0.27036100  0.68961400  0.37659800  1
  H  2861  1  0.30800600  0.69167300  0.39432200  1
  H  2862  1  0.29798600  0.70939300  0.38034600  1
  H  2864  1  0.39024000  0.69950700  0.39929800  1
  H  2866  1  0.32298500  0.63011600  0.28300400  1
  H  2873  1  0.89921000  0.86386800  0.21325100  1
  H  2882  1  0.98305300  0.82856300  0.17464600  1
  H  2883  1  0.96137600  0.84752400  0.19752400  1
  H  2884  1  0.95984000  0.81087000  0.14902000  1
  H  2886  1  0.73401600  0.86823000  0.20690100  1
  H  2887  1  0.73258200  0.86452900  0.18457300  1
  H  2888  1  0.72454800  0.84728400  0.19908800  1
  H  2890  1  0.77112000  0.81186800  0.13822900  1
  H  2891  1  0.80843000  0.81009700  0.12037500  1
  H  2892  1  0.79955000  0.79227000  0.13431500  1
  H  2894  1  0.89081400  0.80270400  0.11511600  1
  H  2896  1  0.82539900  0.87222900  0.23146800  1
  H  2903  1  0.85071200  0.70716400  0.64363400  1
  H  2912  1  0.76865500  0.66867100  0.67967600  1
  H  2913  1  0.78924200  0.69137100  0.66033000  1
  H  2914  1  0.79310700  0.64342700  0.69772300  1
  H  2916  1  0.01611800  0.70154200  0.63917700  1
  H  2917  1  0.01832000  0.67925700  0.64307600  1
  H  2918  1  0.02602000  0.69396200  0.66018000  1
  H  2920  1  0.98197700  0.63309900  0.69585000  1
  H  2921  1  0.94498100  0.61521500  0.69813300  1
  H  2922  1  0.95460600  0.62941400  0.71569100  1
  H  2924  1  0.86308400  0.60993400  0.70608400  1
  H  2926  1  0.92367300  0.72562800  0.63502100  1
  H  2933  1  0.35168800  0.79460800  0.87068600  1
  H  2942  1  0.26987900  0.83308900  0.83457900  1
  H  2943  1  0.29035500  0.81039500  0.85394300  1
  H  2944  1  0.29439300  0.85832600  0.81656400  1
  H  2946  1  0.51707300  0.80015500  0.87523600  1
  H  2947  1  0.51938800  0.82243500  0.87132200  1
  H  2948  1  0.52709100  0.80771300  0.85423300  1
  H  2950  1  0.48328700  0.86860400  0.81836100  1
  H  2951  1  0.44631900  0.88650300  0.81610800  1
  H  2952  1  0.45577000  0.87230000  0.79854500  1
  H  2954  1  0.36449900  0.89180000  0.80818500  1
  H  2956  1  0.42442300  0.77612300  0.87937300  1
  H  2963  1  0.11586100  0.85622100  0.71724100  1
  H  2972  1  0.03311000  0.81726900  0.68190400  1
  H  2973  1  0.05740900  0.83556900  0.70497000  1
  H  2974  1  0.04755600  0.80510800  0.65251900  1
  H  2976  1  0.26016800  0.87899700  0.69682500  1
  H  2977  1  0.24633500  0.87829400  0.67478000  1
  H  2978  1  0.27663700  0.86102200  0.68448700  1
  H  2980  1  0.20938100  0.82965700  0.62425600  1
  H  2981  1  0.16275500  0.82478200  0.61039100  1
  H  2982  1  0.19594600  0.80808300  0.62000700  1
  H  2984  1  0.10466300  0.80336900  0.61199200  1
  H  2986  1  0.19433900  0.86921200  0.72928700  1
  H  2993  1  0.61260600  0.64419000  0.79765800  1
  H  3002  1  0.52860900  0.68238000  0.83344900  1
  H  3003  1  0.55273800  0.66400200  0.81041300  1
  H  3004  1  0.54491700  0.69558400  0.86232600  1
  H  3006  1  0.76205600  0.62456000  0.81630100  1
  H  3007  1  0.75074500  0.62571200  0.83852000  1
  H  3008  1  0.77762200  0.64316800  0.82783100  1
  H  3010  1  0.71419200  0.67540500  0.88792900  1
  H  3011  1  0.67057200  0.68151400  0.90257600  1
  H  3012  1  0.70060000  0.69724900  0.89020300  1
  H  3014  1  0.60191900  0.69773500  0.90197100  1
  H  3016  1  0.69165400  0.63222000  0.78472800  1
  H  3023  1  0.14031800  0.29118400  0.86643000  1
  H  3032  1  0.22613700  0.32817900  0.83002200  1
  H  3033  1  0.20223800  0.30507200  0.84834800  1
  H  3034  1  0.20719100  0.35602500  0.81514800  1
  H  3036  1  0.98238400  0.30556800  0.87959100  1
  H  3037  1  0.98878100  0.32798700  0.87751000  1
  H  3038  1  0.96912000  0.31557300  0.85989300  1
  H  3040  1  0.02640400  0.37583100  0.82627000  1
  H  3041  1  0.06892800  0.39180400  0.82306200  1
  H  3042  1  0.04840400  0.37924100  0.80550200  1
  H  3044  1  0.14848700  0.39349400  0.81176500  1
  H  3046  1  0.06246300  0.27630200  0.87701200  1
  H  3053  1  0.64075000  0.21062700  0.64750200  1
  H  3062  1  0.72594100  0.17338700  0.68384400  1
  H  3063  1  0.70255400  0.19649500  0.66543300  1
  H  3064  1  0.70618900  0.14578300  0.69900000  1
  H  3066  1  0.48172700  0.19718600  0.63515400  1
  H  3067  1  0.48704800  0.17474700  0.63741500  1
  H  3068  1  0.46863000  0.18745500  0.65500400  1
  H  3070  1  0.52412800  0.12704200  0.68888900  1
  H  3071  1  0.56609300  0.11082600  0.69188000  1
  H  3072  1  0.54684600  0.12351800  0.70953500  1
  H  3074  1  0.64610200  0.10872300  0.70279500  1
  H  3076  1  0.56316400  0.22592100  0.63715000  1
  H  3083  1  0.88966500  0.14153700  0.79769100  1
  H  3092  1  0.97568100  0.17760500  0.83492000  1
  H  3093  1  0.95193200  0.15920000  0.81186100  1
  H  3094  1  0.95612800  0.19298300  0.86241000  1
  H  3096  1  0.72977500  0.13030600  0.81069600  1
  H  3097  1  0.73459400  0.13278500  0.83312900  1
  H  3098  1  0.71734300  0.15034400  0.82015800  1
  H  3100  1  0.77301100  0.18441500  0.88051200  1
  H  3101  1  0.81477800  0.18688600  0.89688400  1
  H  3102  1  0.79708400  0.20481300  0.88426300  1
  H  3104  1  0.89574800  0.19705400  0.89929200  1
  H  3106  1  0.81188100  0.13144900  0.78225900  1
  H  3113  1  0.39160900  0.36115600  0.71631600  1
  H  3122  1  0.47747200  0.32542500  0.67869400  1
  H  3123  1  0.45405700  0.34384000  0.70179500  1
  H  3124  1  0.45710400  0.30964300  0.65150200  1
  H  3126  1  0.23013600  0.37073100  0.70469800  1
  H  3127  1  0.23368500  0.36809700  0.68225100  1
  H  3128  1  0.21843200  0.35050800  0.69551500  1
  H  3130  1  0.27253600  0.31680000  0.63482200  1
  H  3131  1  0.31353300  0.31462900  0.61815200  1
  H  3132  1  0.29740500  0.29657200  0.63087200  1
  H  3134  1  0.39508400  0.30496500  0.61517700  1
  H  3136  1  0.31467400  0.37092900  0.73231000  1
  C  1  1  0.27978800  0.08596000  0.99909700  1
  C  2  1  0.31640200  0.07455800  0.00302100  1
  C  3  1  0.36106200  0.07601900  0.99569800  1
  C  4  1  0.37104600  0.09063900  0.98529500  1
  C  5  1  0.33533400  0.10310500  0.98200400  1
  C  6  1  0.28870100  0.09999000  0.98783100  1
  C  9  1  0.23612900  0.08314600  0.00780600  1
  C  10  1  0.21072300  0.06743100  0.00700300  1
  C  11  1  0.17346100  0.06434800  0.01887900  1
  C  12  1  0.16341500  0.07689000  0.03185800  1
  C  13  1  0.18384200  0.09356000  0.03068600  1
  C  14  1  0.22101400  0.09605000  0.01916000  1
  C  27  1  0.16912100  0.10796500  0.04224700  1
  C  30  1  0.14399700  0.04834300  0.01712700  1
  C  33  1  0.39662300  0.06220000  0.99861400  1
  C  36  1  0.34768800  0.11998800  0.97364100  1
  C  39  1  0.78000400  0.41595600  0.00288400  1
  C  40  1  0.81661300  0.42735700  0.99895600  1
  C  41  1  0.86124600  0.42590800  0.00630000  1
  C  42  1  0.87121500  0.41129300  0.01671300  1
  C  43  1  0.83548700  0.39883900  0.02001300  1
  C  44  1  0.78886600  0.40194500  0.01417400  1
  C  47  1  0.73635600  0.41877000  0.99417500  1
  C  48  1  0.71093600  0.43447400  0.99500500  1
  C  49  1  0.67364700  0.43755500  0.98313900  1
  C  50  1  0.66344400  0.42499800  0.97019100  1
  C  51  1  0.68398300  0.40834300  0.97133400  1
  C  52  1  0.72125700  0.40587000  0.98281900  1
  C  65  1  0.66919300  0.39392200  0.95980900  1
  C  68  1  0.64419400  0.45354700  0.98495400  1
  C  71  1  0.89679600  0.43972800  0.00339300  1
  C  74  1  0.84780400  0.38197000  0.02840300  1
  C  77  1  0.53079600  0.25281500  0.83747800  1
  C  78  1  0.56745100  0.24878500  0.82612700  1
  C  79  1  0.61202100  0.25620600  0.82748300  1
  C  80  1  0.62191100  0.26677600  0.84199200  1
  C  81  1  0.58620000  0.27013500  0.85444100  1
  C  82  1  0.53962100  0.26421600  0.85140300  1
  C  85  1  0.48705900  0.24416800  0.83467300  1
  C  86  1  0.46151600  0.24512300  0.81899800  1
  C  87  1  0.42345800  0.23357200  0.81603500  1
  C  88  1  0.41334200  0.22052400  0.82848200  1
  C  89  1  0.43428800  0.22143500  0.84507800  1
  C  90  1  0.47176800  0.23283000  0.84756900  1
  C  103  1  0.41956800  0.20976700  0.85939300  1
  C  106  1  0.39327000  0.23569700  0.80026800  1
  C  109  1  0.64755100  0.25325400  0.81365600  1
  C  112  1  0.59846400  0.27872600  0.87121600  1
  C  115  1  0.03072000  0.24919200  0.16454800  1
  C  116  1  0.06739700  0.25319000  0.17589700  1
  C  117  1  0.11193800  0.24575100  0.17452600  1
  C  118  1  0.12177200  0.23518500  0.16000900  1
  C  119  1  0.08602500  0.23184400  0.14756900  1
  C  120  1  0.03947900  0.23779300  0.15061800  1
  C  123  1  0.98706800  0.25789600  0.16735100  1
  C  124  1  0.96154600  0.25699000  0.18303100  1
  C  125  1  0.92372200  0.26863600  0.18601400  1
  C  126  1  0.91385300  0.28173100  0.17359100  1
  C  127  1  0.93465300  0.28074700  0.15697600  1
  C  128  1  0.97190600  0.26925700  0.15445800  1
  C  141  1  0.91999900  0.29241800  0.14266100  1
  C  144  1  0.89340500  0.26654400  0.20174600  1
  C  147  1  0.14749400  0.24869600  0.18834600  1
  C  150  1  0.09825300  0.22327000  0.13078000  1
  C  153  1  0.72094700  0.91535800  0.00329700  1
  C  154  1  0.68448400  0.92694600  0.99971100  1
  C  155  1  0.64081600  0.92601300  0.00787800  1
  C  156  1  0.63212800  0.91209300  0.01933100  1
  C  157  1  0.66700600  0.89917300  0.02192800  1
  C  158  1  0.71268000  0.90151600  0.01486200  1
  C  161  1  0.76399500  0.91809300  0.99420100  1
  C  162  1  0.79037000  0.93355000  0.99541100  1
  C  163  1  0.82602200  0.93705400  0.98296300  1
  C  164  1  0.83602300  0.92459700  0.96985500  1
  C  165  1  0.81492100  0.90799800  0.97082300  1
  C  166  1  0.77770900  0.90548000  0.98232200  1
  C  179  1  0.82951100  0.89355000  0.95927500  1
  C  182  1  0.85367200  0.95348900  0.98455100  1
  C  185  1  0.60498700  0.93970000  0.00486200  1
  C  188  1  0.65410800  0.88251200  0.03064000  1
  C  191  1  0.22010100  0.58690100  0.99888600  1
  C  192  1  0.18391400  0.57516600  0.00233600  1
  C  193  1  0.14034600  0.57602100  0.99409100  1
  C  194  1  0.13155800  0.58994800  0.98265300  1
  C  195  1  0.16621200  0.60297700  0.98017800  1
  C  196  1  0.21179000  0.60076300  0.98736100  1
  C  199  1  0.26321800  0.58414900  0.00788400  1
  C  200  1  0.29040800  0.56895900  0.00605600  1
  C  201  1  0.32656100  0.56533500  0.01827100  1
  C  202  1  0.33804600  0.57786000  0.03115500  1
  C  203  1  0.31501900  0.59414400  0.03100400  1
  C  204  1  0.27647400  0.59649700  0.02008900  1
  C  217  1  0.33018100  0.60864400  0.04239000  1
  C  220  1  0.35219600  0.54845500  0.01690300  1
  C  223  1  0.10474100  0.56224000  0.99702700  1
  C  226  1  0.15318900  0.61960500  0.97144500  1
  C  229  1  0.46855000  0.74945200  0.16501100  1
  C  230  1  0.43253300  0.75316700  0.17669800  1
  C  231  1  0.38804300  0.74568000  0.17545000  1
  C  232  1  0.37777000  0.73528600  0.16084200  1
  C  233  1  0.41311200  0.73211400  0.14819000  1
  C  234  1  0.45965000  0.73815100  0.15103400  1
  C  237  1  0.51258400  0.75767500  0.16802100  1
  C  238  1  0.53946000  0.75500600  0.18313900  1
  C  239  1  0.57884200  0.76582600  0.18644100  1
  C  240  1  0.59452200  0.77765900  0.17355300  1
  C  241  1  0.56894500  0.77930000  0.15788900  1
  C  242  1  0.52743600  0.76985600  0.15588700  1
  C  255  1  0.58557300  0.79052400  0.14347700  1
  C  258  1  0.60257400  0.76477800  0.20367300  1
  C  261  1  0.35311900  0.74838800  0.18952800  1
  C  264  1  0.40057900  0.72353700  0.13144400  1
  C  267  1  0.97130000  0.75331900  0.83641800  1
  C  268  1  0.93483000  0.74931100  0.82499000  1
  C  269  1  0.89005100  0.75654500  0.82641400  1
  C  270  1  0.87979600  0.76689700  0.84104900  1
  C  271  1  0.91541600  0.77029600  0.85352400  1
  C  272  1  0.96215600  0.76457200  0.85043300  1
  C  275  1  0.01518100  0.74476000  0.83360700  1
  C  276  1  0.04094700  0.74585900  0.81799800  1
  C  277  1  0.07895800  0.73427500  0.81496200  1
  C  278  1  0.09028000  0.72154700  0.82765100  1
  C  279  1  0.06852200  0.72226600  0.84414000  1
  C  280  1  0.03035700  0.73337800  0.84645900  1
  C  293  1  0.08324300  0.71072000  0.85857400  1
  C  296  1  0.10765700  0.73618900  0.79877900  1
  C  299  1  0.85467800  0.75359100  0.81253400  1
  C  302  1  0.90290800  0.77869400  0.87037500  1
  C  305  1  0.78387600  0.58811100  0.49934600  1
  C  306  1  0.81981000  0.57641900  0.50317000  1
  C  307  1  0.86464800  0.57779700  0.49596500  1
  C  308  1  0.87524400  0.59245900  0.48568700  1
  C  309  1  0.83994800  0.60509800  0.48243200  1
  C  310  1  0.79319100  0.60218600  0.48820200  1
  C  313  1  0.73936900  0.58509600  0.50723400  1
  C  314  1  0.71207100  0.57016600  0.50410800  1
  C  315  1  0.67099700  0.56725200  0.51412300  1
  C  316  1  0.65356500  0.58050800  0.52514000  1
  C  317  1  0.68041700  0.59573900  0.52768800  1
  C  318  1  0.72371200  0.59726200  0.51927200  1
  C  331  1  0.66348200  0.61000300  0.53901200  1
  C  334  1  0.64776000  0.54991800  0.51375800  1
  C  337  1  0.89965500  0.56377100  0.49875000  1
  C  340  1  0.85253300  0.62179100  0.47378000  1
  C  343  1  0.28410000  0.91354700  0.50276700  1
  C  344  1  0.31985900  0.92528200  0.49883100  1
  C  345  1  0.36488200  0.92394300  0.50589500  1
  C  346  1  0.37585800  0.90927500  0.51611500  1
  C  347  1  0.34073300  0.89660000  0.51947200  1
  C  348  1  0.29381100  0.89947500  0.51386800  1
  C  351  1  0.23933600  0.91647200  0.49502800  1
  C  352  1  0.21173700  0.93129800  0.49829600  1
  C  353  1  0.16998700  0.93398600  0.48860200  1
  C  354  1  0.15234700  0.92059200  0.47780100  1
  C  355  1  0.17977300  0.90555500  0.47494600  1
  C  356  1  0.22355300  0.90425500  0.48306000  1
  C  369  1  0.16299700  0.89130800  0.46356000  1
  C  372  1  0.14656600  0.95129700  0.48884100  1
  C  375  1  0.39973300  0.93801100  0.50303800  1
  C  378  1  0.35361400  0.87992300  0.52809200  1
  C  381  1  0.03061400  0.75288600  0.33610400  1
  C  382  1  0.06857600  0.74894200  0.32534900  1
  C  383  1  0.11277800  0.75649400  0.32741300  1
  C  384  1  0.12053300  0.76736200  0.34189500  1
  C  385  1  0.08284800  0.77108900  0.35344300  1
  C  386  1  0.03695800  0.76480800  0.34975100  1
  C  389  1  0.98797700  0.74370000  0.33296600  1
  C  390  1  0.96289000  0.74454300  0.31721400  1
  C  391  1  0.92700500  0.73217300  0.31379800  1
  C  392  1  0.91622100  0.71931700  0.32640500  1
  C  393  1  0.93608700  0.72065600  0.34316700  1
  C  394  1  0.97302700  0.73224800  0.34578200  1
  C  407  1  0.92069900  0.70934900  0.35767700  1
  C  410  1  0.89904900  0.73377000  0.29746400  1
  C  413  1  0.15040800  0.75310000  0.31447000  1
  C  416  1  0.09198800  0.78106100  0.36971700  1
  C  419  1  0.53079600  0.74874800  0.66608900  1
  C  420  1  0.56823800  0.75271200  0.67709800  1
  C  421  1  0.61243900  0.74506900  0.67541900  1
  C  422  1  0.62070900  0.73396500  0.66117200  1
  C  423  1  0.58403400  0.73054900  0.64912300  1
  C  424  1  0.53805700  0.73699300  0.65234300  1
  C  427  1  0.48792200  0.75787200  0.66904000  1
  C  428  1  0.46246000  0.75703200  0.68472200  1
  C  429  1  0.42664400  0.76944400  0.68808700  1
  C  430  1  0.41646600  0.78239700  0.67551000  1
  C  431  1  0.43652000  0.78104100  0.65877900  1
  C  432  1  0.47334900  0.76938800  0.65622200  1
  C  445  1  0.42158500  0.79243300  0.64427100  1
  C  448  1  0.39846600  0.76794800  0.70439600  1
  C  451  1  0.64945600  0.74843600  0.68859200  1
  C  454  1  0.59469700  0.72110800  0.63265100  1
  C  457  1  0.21790100  0.41515200  0.50425100  1
  C  458  1  0.18247400  0.42718000  0.50078900  1
  C  459  1  0.13847400  0.42643700  0.50873500  1
  C  460  1  0.12861800  0.41243000  0.51996200  1
  C  461  1  0.16256700  0.39914700  0.52240500  1
  C  462  1  0.20851800  0.40117000  0.51550700  1
  C  465  1  0.26139600  0.41764700  0.49547500  1
  C  466  1  0.29001500  0.43238600  0.49789500  1
  C  467  1  0.32734800  0.43569400  0.48611100  1
  C  468  1  0.33954900  0.42297800  0.47353800  1
  C  469  1  0.31421200  0.40719500  0.47287900  1
  C  470  1  0.27411100  0.40536800  0.48311400  1
  C  483  1  0.32915000  0.39264100  0.46154300  1
  C  486  1  0.35337300  0.45250000  0.48727700  1
  C  489  1  0.10347700  0.44039300  0.50567300  1
  C  492  1  0.14861800  0.38252400  0.53091900  1
  C  495  1  0.71709900  0.08700900  0.49754800  1
  C  496  1  0.68186900  0.07490000  0.50099900  1
  C  497  1  0.63767500  0.07567900  0.49319400  1
  C  498  1  0.62745500  0.08978000  0.48212200  1
  C  499  1  0.66132000  0.10308800  0.47965400  1
  C  500  1  0.70742900  0.10104900  0.48640000  1
  C  503  1  0.76082700  0.08453400  0.50616000  1
  C  504  1  0.79002900  0.07003400  0.50328800  1
  C  505  1  0.82826100  0.06686000  0.51468900  1
  C  506  1  0.84096100  0.07958900  0.52716700  1
  C  507  1  0.81464900  0.09511300  0.52839200  1
  C  508  1  0.77365500  0.09673000  0.51860100  1
  C  521  1  0.82956400  0.10958000  0.53984300  1
  C  524  1  0.85462200  0.05012100  0.51357100  1
  C  527  1  0.60278600  0.06168200  0.49625100  1
  C  530  1  0.64724400  0.11972200  0.47119900  1
  C  533  1  0.96914800  0.24746000  0.66540500  1
  C  534  1  0.93409900  0.25077800  0.67763200  1
  C  535  1  0.88976200  0.24307700  0.67679700  1
  C  536  1  0.87914800  0.23229500  0.66250900  1
  C  537  1  0.91282200  0.22995300  0.64911300  1
  C  538  1  0.95908400  0.23654400  0.65121200  1
  C  541  1  0.01301500  0.25602300  0.66786200  1
  C  542  1  0.04243300  0.25305700  0.68229000  1
  C  543  1  0.08095300  0.26435000  0.68538900  1
  C  544  1  0.09389100  0.27673600  0.67261600  1
  C  545  1  0.06728500  0.27808700  0.65717600  1
  C  546  1  0.02596900  0.26845200  0.65566200  1
  C  559  1  0.08214100  0.28959700  0.64275500  1
  C  562  1  0.10699900  0.26354500  0.70221300  1
  C  565  1  0.85498100  0.24599400  0.69086700  1
  C  568  1  0.89838800  0.22178600  0.63236500  1
  C  571  1  0.46903400  0.25463800  0.33648100  1
  C  572  1  0.43378300  0.25129600  0.32434500  1
  C  573  1  0.38941500  0.25895400  0.32530000  1
  C  574  1  0.37899600  0.26971600  0.33962300  1
  C  575  1  0.41296600  0.27211300  0.35291000  1
  C  576  1  0.45922100  0.26556400  0.35068500  1
  C  579  1  0.51279300  0.24603000  0.33396700  1
  C  580  1  0.54209300  0.24894700  0.31950000  1
  C  581  1  0.58042300  0.23758300  0.31634400  1
  C  582  1  0.59325800  0.22514500  0.32908500  1
  C  583  1  0.56687600  0.22387900  0.34458300  1
  C  584  1  0.52572300  0.23359400  0.34615900  1
  C  597  1  0.58174200  0.21237700  0.35900600  1
  C  600  1  0.60647700  0.23840800  0.29952400  1
  C  603  1  0.35438300  0.25598700  0.31132600  1
  C  606  1  0.39884200  0.28026000  0.36969800  1
  C  609  1  0.08507400  0.03346600  0.99969500  1
  C  610  1  0.09257300  0.01765500  0.99116300  1
  C  612  1  0.01735000  0.00725100  0.99992600  1
  C  613  1  0.00753500  0.02297100  0.00829800  1
  C  614  1  0.04179000  0.03593600  0.00804100  1
  C  616  1  0.98418500  0.99387500  0.00011700  1
  C  617  1  0.91888100  0.96690800  0.00007200  1
  C  619  1  0.96294600  0.96523300  0.99192300  1
  C  620  1  0.90864700  0.98245600  0.00850100  1
  C  621  1  0.94088200  0.99612600  0.00860600  1
  C  622  1  0.93129900  0.01185300  0.01681400  1
  C  623  1  0.96437000  0.02515200  0.01668600  1
  C  627  1  0.13526200  0.01318900  0.98159000  1
  C  631  1  0.97859200  0.94938800  0.98326100  1
  C  639  1  0.58510300  0.46818900  0.00247000  1
  C  640  1  0.59254800  0.48388500  0.01121300  1
  C  642  1  0.51747000  0.49439100  0.00245900  1
  C  643  1  0.50769800  0.47880200  0.99385000  1
  C  644  1  0.54192900  0.46582800  0.99400700  1
  C  646  1  0.48440500  0.50778200  0.00238900  1
  C  647  1  0.41961700  0.53488900  0.00264300  1
  C  649  1  0.46363700  0.53636300  0.01085300  1
  C  650  1  0.40921900  0.51946400  0.99400100  1
  C  651  1  0.44121400  0.50571600  0.99379000  1
  C  652  1  0.43166200  0.49012000  0.98532600  1
  C  653  1  0.46465000  0.47678400  0.98533700  1
  C  657  1  0.63511600  0.48823900  0.02091000  1
  C  661  1  0.47964800  0.55203500  0.01969800  1
  C  669  1  0.33742400  0.25408800  0.78507500  1
  C  670  1  0.34742500  0.26231400  0.76929100  1
  C  672  1  0.27279300  0.25424100  0.75786700  1
  C  673  1  0.26019800  0.24639800  0.77358400  1
  C  674  1  0.29303100  0.24640800  0.78704700  1
  C  676  1  0.24154800  0.25401500  0.74389900  1
  C  677  1  0.18079500  0.25364000  0.71540500  1
  C  679  1  0.22624100  0.26091900  0.71442800  1
  C  680  1  0.16730200  0.24615200  0.73115200  1
  C  681  1  0.19718400  0.24620500  0.74553400  1
  C  682  1  0.18464600  0.23862200  0.76130000  1
  C  683  1  0.21595500  0.23865400  0.77518100  1
  C  687  1  0.39126400  0.27140100  0.76535600  1
  C  691  1  0.24664100  0.26852300  0.69878000  1
  C  699  1  0.83708500  0.24821700  0.21677200  1
  C  700  1  0.84678700  0.23970800  0.23243100  1
  C  702  1  0.77241600  0.24794700  0.24395900  1
  C  703  1  0.76010600  0.25608500  0.22836300  1
  C  704  1  0.79295100  0.25612300  0.21490600  1
  C  706  1  0.74115900  0.24809200  0.25792100  1
  C  707  1  0.68038900  0.24826700  0.28640200  1
  C  709  1  0.72559300  0.24077500  0.28726900  1
  C  710  1  0.66715300  0.25607100  0.27078100  1
  C  711  1  0.69705500  0.25612300  0.25640300  1
  C  712  1  0.68480100  0.26401000  0.24075700  1
  C  713  1  0.71612800  0.26405500  0.22688200  1
  C  717  1  0.89030200  0.23035600  0.23623100  1
  C  721  1  0.74570600  0.23281400  0.30278900  1
  C  729  1  0.91607800  0.46909200  0.99532600  1
  C  730  1  0.90725000  0.48344400  0.00598600  1
  C  732  1  0.98346400  0.49486800  0.00024100  1
  C  733  1  0.99369100  0.48094200  0.98917000  1
  C  734  1  0.95960000  0.46812400  0.98688600  1
  C  736  1  0.01702500  0.50780600  0.00303500  1
  C  737  1  0.08219800  0.53429500  0.00831700  1
  C  739  1  0.03834200  0.53424800  0.01678400  1
  C  740  1  0.09305200  0.52037400  0.99747900  1
  C  741  1  0.06080000  0.50702700  0.99463100  1
  C  742  1  0.07062600  0.49317000  0.98358600  1
  C  743  1  0.03741000  0.48019500  0.98093000  1
  C  747  1  0.86362800  0.48615900  0.01568800  1
  C  751  1  0.02361600  0.54755300  0.02914000  1
  C  759  1  0.41594000  0.03283400  0.00669200  1
  C  760  1  0.40716400  0.01848900  0.99601500  1
  C  762  1  0.48334700  0.00705400  0.00180400  1
  C  763  1  0.49351500  0.02096900  0.01289500  1
  C  764  1  0.45941300  0.03378900  0.01516600  1
  C  766  1  0.51694000  0.99412400  0.99900900  1
  C  767  1  0.58225800  0.96768000  0.99369000  1
  C  769  1  0.53840900  0.96772000  0.98521500  1
  C  770  1  0.59301100  0.98158500  0.00456300  1
  C  771  1  0.56068800  0.99490400  0.00743400  1
  C  772  1  0.57043500  0.00874300  0.01851200  1
  C  773  1  0.53718600  0.02170600  0.02116900  1
  C  777  1  0.36358000  0.01578000  0.98628900  1
  C  781  1  0.52375200  0.95442500  0.97283600  1
  C  789  1  0.66704500  0.24499000  0.78435000  1
  C  790  1  0.65853100  0.25564200  0.76996500  1
  C  792  1  0.73459400  0.24958400  0.75855100  1
  C  793  1  0.74449100  0.23850700  0.77250400  1
  C  794  1  0.71035800  0.23640600  0.78534300  1
  C  796  1  0.76821600  0.25219000  0.74558800  1
  C  797  1  0.83346000  0.25706000  0.71901600  1
  C  799  1  0.79002900  0.26583100  0.71913800  1
  C  800  1  0.84390700  0.24617300  0.73294100  1
  C  801  1  0.81165400  0.24354800  0.74633700  1
  C  802  1  0.82113700  0.23249600  0.76022300  1
  C  803  1  0.78791900  0.23006200  0.77324200  1
  C  807  1  0.61513800  0.26546900  0.76720300  1
  C  811  1  0.77581800  0.27837200  0.70592600  1
  C  819  1  0.16692000  0.25698200  0.21765300  1
  C  820  1  0.15822300  0.24638800  0.23206500  1
  C  822  1  0.23424500  0.25241600  0.24352800  1
  C  823  1  0.24431800  0.26343800  0.22954800  1
  C  824  1  0.21028500  0.26552900  0.21667200  1
  C  826  1  0.26775900  0.24982100  0.25653000  1
  C  827  1  0.33280800  0.24494900  0.28315800  1
  C  829  1  0.28929000  0.23623900  0.28304000  1
  C  830  1  0.34343000  0.25578700  0.26921100  1
  C  831  1  0.31126700  0.25841300  0.25578700  1
  C  832  1  0.32092400  0.26941200  0.24187700  1
  C  833  1  0.28781100  0.27183900  0.22882000  1
  C  837  1  0.11474600  0.23660900  0.23482000  1
  C  841  1  0.27488300  0.22376200  0.29628400  1
  C  849  1  0.66697900  0.74999000  0.21843000  1
  C  850  1  0.65983300  0.74141200  0.23423300  1
  C  852  1  0.73522500  0.75021000  0.24432500  1
  C  853  1  0.74457500  0.75866400  0.22861000  1
  C  854  1  0.70978700  0.75858800  0.21584800  1
  C  856  1  0.76887100  0.75022300  0.25751100  1
  C  857  1  0.83494400  0.74986000  0.28414500  1
  C  859  1  0.79053800  0.74202500  0.28608400  1
  C  860  1  0.84514700  0.75813500  0.26851400  1
  C  861  1  0.81243800  0.75843800  0.25501200  1
  C  862  1  0.82176000  0.76659400  0.23923600  1
  C  863  1  0.78800600  0.76678400  0.22617300  1
  C  867  1  0.61747800  0.73166900  0.23878700  1
  C  871  1  0.77477000  0.73367000  0.30208200  1
  C  879  1  0.16694600  0.75355900  0.78408800  1
  C  880  1  0.15939700  0.76159700  0.76802600  1
  C  882  1  0.23507700  0.75288500  0.75804200  1
  C  883  1  0.24493000  0.74502000  0.77402000  1
  C  884  1  0.21043100  0.74546600  0.78688800  1
  C  886  1  0.26844800  0.75244800  0.74474600  1
  C  887  1  0.33423900  0.75207500  0.71795100  1
  C  889  1  0.28979300  0.75985900  0.71590400  1
  C  890  1  0.34455200  0.74417900  0.73376900  1
  C  891  1  0.31205100  0.74427700  0.74735200  1
  C  892  1  0.32168600  0.73659100  0.76333600  1
  C  893  1  0.28835400  0.73691600  0.77654200  1
  C  897  1  0.11638300  0.77078600  0.76318800  1
  C  901  1  0.27396400  0.76788700  0.69975000  1
  C  909  1  0.33526700  0.75643000  0.21905000  1
  C  910  1  0.34484300  0.74580100  0.23335900  1
  C  912  1  0.26947700  0.75176500  0.24541400  1
  C  913  1  0.25855400  0.76281400  0.23154400  1
  C  914  1  0.29184500  0.76496500  0.21842300  1
  C  916  1  0.23666800  0.74907600  0.25863200  1
  C  917  1  0.17280100  0.74379700  0.28555100  1
  C  919  1  0.21652700  0.73525000  0.28516100  1
  C  920  1  0.16141800  0.75474000  0.27177200  1
  C  921  1  0.19299500  0.75757600  0.25820300  1
  C  922  1  0.18251500  0.76861900  0.24440900  1
  C  923  1  0.21495900  0.77116400  0.23114900  1
  C  927  1  0.38851000  0.73603900  0.23575200  1
  C  931  1  0.23179600  0.72275700  0.29824800  1
  C  939  1  0.83614200  0.74561600  0.78304600  1
  C  940  1  0.84530000  0.75629400  0.76873500  1
  C  942  1  0.76961200  0.75036500  0.75693700  1
  C  943  1  0.75907800  0.73926700  0.77081000  1
  C  944  1  0.79274200  0.73706900  0.78380000  1
  C  946  1  0.73645000  0.75310300  0.74384800  1
  C  947  1  0.67188900  0.75844200  0.71716200  1
  C  949  1  0.71566100  0.76696500  0.71740300  1
  C  950  1  0.66084300  0.74748400  0.73096800  1
  C  951  1  0.69277600  0.74461200  0.74441400  1
  C  952  1  0.68267300  0.73351900  0.75820800  1
  C  953  1  0.71548400  0.73092100  0.77133500  1
  C  957  1  0.88885700  0.76608900  0.76622200  1
  C  961  1  0.73063900  0.77944000  0.70425000  1
  C  969  1  0.58325400  0.53406800  0.50034900  1
  C  970  1  0.59162900  0.51844700  0.49159700  1
  C  972  1  0.51851800  0.50700800  0.50125500  1
  C  973  1  0.50806700  0.52239500  0.51010500  1
  C  974  1  0.54117400  0.53576300  0.50966600  1
  C  976  1  0.48636900  0.49334900  0.50125400  1
  C  977  1  0.42316900  0.46575300  0.50032100  1
  C  979  1  0.46761700  0.46475100  0.49232300  1
  C  980  1  0.41181300  0.48095600  0.50924000  1
  C  981  1  0.44305600  0.49493900  0.50983800  1
  C  982  1  0.43278700  0.51031800  0.51859400  1
  C  983  1  0.46510300  0.52389500  0.51879700  1
  C  987  1  0.63345500  0.51466600  0.48123400  1
  C  991  1  0.48534500  0.44949300  0.48321000  1
  C  999  1  0.08301200  0.96758200  0.50233400  1
  C  1000  1  0.09237600  0.98322700  0.51091000  1
  C  1002  1  0.01977700  0.99513500  0.50129300  1
  C  1003  1  0.00826800  0.97972900  0.49265500  1
  C  1004  1  0.04065800  0.96611900  0.49313700  1
  C  1006  1  0.98843300  0.00904900  0.50121600  1
  C  1007  1  0.92681000  0.03719200  0.50201800  1
  C  1009  1  0.97169700  0.03795100  0.50974600  1
  C  1010  1  0.91437500  0.02192000  0.49338500  1
  C  1011  1  0.94480000  0.00769100  0.49282600  1
  C  1012  1  0.93346200  0.99229100  0.48428300  1
  C  1013  1  0.96501500  0.97846900  0.48411800  1
  C  1017  1  0.13450400  0.98679900  0.52117700  1
  C  1021  1  0.99090200  0.05314500  0.51857500  1
  C  1029  1  0.41785500  0.96751500  0.49512400  1
  C  1030  1  0.40873500  0.98183000  0.50580100  1
  C  1032  1  0.48449600  0.99358700  0.49990600  1
  C  1033  1  0.49502600  0.97969400  0.48883500  1
  C  1034  1  0.46130000  0.96673500  0.48660800  1
  C  1036  1  0.51763700  0.00669700  0.50259100  1
  C  1037  1  0.58182900  0.03357200  0.50756000  1
  C  1039  1  0.53819600  0.03330300  0.51618300  1
  C  1040  1  0.59303500  0.01965500  0.49676700  1
  C  1041  1  0.56128000  0.00611700  0.49407700  1
  C  1042  1  0.57144200  0.99226800  0.48306400  1
  C  1043  1  0.53865200  0.97912900  0.48051300  1
  C  1047  1  0.36515000  0.98436900  0.51557200  1
  C  1051  1  0.52321500  0.04655000  0.52856200  1
  C  1059  1  0.91809400  0.53431800  0.50672600  1
  C  1060  1  0.90895000  0.51998200  0.49608200  1
  C  1062  1  0.98482200  0.50829800  0.50190800  1
  C  1063  1  0.99537300  0.52221300  0.51295000  1
  C  1064  1  0.96159500  0.53514800  0.51519400  1
  C  1066  1  0.01801200  0.49521500  0.49920100  1
  C  1067  1  0.08229900  0.46839300  0.49418200  1
  C  1069  1  0.03856800  0.46860300  0.48563000  1
  C  1070  1  0.09354100  0.48233100  0.50494200  1
  C  1071  1  0.06172800  0.49584400  0.50765900  1
  C  1072  1  0.07190800  0.50971000  0.51864900  1
  C  1073  1  0.03906000  0.52282600  0.52122200  1
  C  1077  1  0.86530300  0.51739900  0.48636000  1
  C  1081  1  0.02353300  0.45530600  0.47331500  1
  C  1089  1  0.42242400  0.20123400  0.88953900  1
  C  1090  1  0.45566600  0.18994000  0.89681500  1
  C  1092  1  0.39594400  0.17542000  0.91283300  1
  C  1093  1  0.36136900  0.18655500  0.90616700  1
  C  1094  1  0.37531200  0.19949800  0.89462100  1
  C  1096  1  0.38315700  0.16198100  0.92399700  1
  C  1097  1  0.35925100  0.13416000  0.94537300  1
  C  1099  1  0.40620300  0.13744100  0.94052700  1
  C  1100  1  0.32447900  0.14534200  0.93913200  1
  C  1101  1  0.33580900  0.15940800  0.92851200  1
  C  1102  1  0.30169100  0.17068100  0.92198100  1
  C  1103  1  0.31437600  0.18416900  0.91095200  1
  C  1107  1  0.50599200  0.19015900  0.89279500  1
  C  1111  1  0.44623900  0.12667400  0.94552300  1
  C  1119  1  0.92244000  0.30077200  0.11247600  1
  C  1120  1  0.95572400  0.31199300  0.10511700  1
  C  1122  1  0.89595700  0.32658400  0.08919600  1
  C  1123  1  0.86133300  0.31551900  0.09594100  1
  C  1124  1  0.87527900  0.30257200  0.10748000  1
  C  1126  1  0.88318800  0.34003100  0.07804200  1
  C  1127  1  0.85936900  0.36786800  0.05669200  1
  C  1129  1  0.90634100  0.36452000  0.06146400  1
  C  1130  1  0.82452800  0.35674300  0.06298500  1
  C  1131  1  0.83581400  0.34267400  0.07360500  1
  C  1132  1  0.80163900  0.33147200  0.08021500  1
  C  1133  1  0.81430400  0.31798300  0.09124500  1
  C  1137  1  0.00610800  0.31168900  0.10903400  1
  C  1141  1  0.94645100  0.37522000  0.05640200  1
  C  1149  1  0.67208400  0.36370000  0.95157600  1
  C  1150  1  0.70534000  0.35643500  0.94028300  1
  C  1152  1  0.64575800  0.34016800  0.92597500  1
  C  1153  1  0.61117800  0.34681700  0.93711500  1
  C  1154  1  0.62504100  0.35850000  0.94994600  1
  C  1156  1  0.63305800  0.32886500  0.91264300  1
  C  1157  1  0.60934700  0.30719900  0.88503700  1
  C  1159  1  0.65621800  0.31222300  0.88819900  1
  C  1160  1  0.57455500  0.31339800  0.89623600  1
  C  1161  1  0.58579200  0.32417300  0.91019400  1
  C  1162  1  0.55166600  0.33068800  0.92147200  1
  C  1163  1  0.56426100  0.34187300  0.93484400  1
  C  1167  1  0.75558900  0.36059000  0.94039100  1
  C  1171  1  0.69625800  0.30727700  0.87741100  1
  C  1179  1  0.17170000  0.13822000  0.05041600  1
  C  1180  1  0.20504200  0.14561600  0.06158900  1
  C  1182  1  0.14545500  0.16180000  0.07599300  1
  C  1183  1  0.11078300  0.15502600  0.06496700  1
  C  1184  1  0.12460500  0.14332300  0.05214500  1
  C  1186  1  0.13280300  0.17311800  0.08931900  1
  C  1187  1  0.10921000  0.19481500  0.11692000  1
  C  1189  1  0.15610600  0.18987900  0.11366800  1
  C  1190  1  0.07432800  0.18849900  0.10582400  1
  C  1191  1  0.08550200  0.17770600  0.09187300  1
  C  1192  1  0.05128300  0.17106900  0.08070400  1
  C  1193  1  0.06382600  0.15986600  0.06734200  1
  C  1197  1  0.25536700  0.14159400  0.06135700  1
  C  1201  1  0.19623200  0.19491200  0.12437200  1
  C  1209  1  0.57607000  0.80178100  0.11433500  1
  C  1210  1  0.54563800  0.81513200  0.10921200  1
  C  1212  1  0.60495500  0.82737000  0.09123500  1
  C  1213  1  0.63655000  0.81412900  0.09565600  1
  C  1214  1  0.62135400  0.80132600  0.10715000  1
  C  1216  1  0.61922600  0.84068700  0.08018600  1
  C  1217  1  0.64635300  0.86821900  0.05896800  1
  C  1219  1  0.60066500  0.86709100  0.06596700  1
  C  1220  1  0.67821900  0.85502200  0.06301700  1
  C  1221  1  0.66515700  0.84105700  0.07351100  1
  C  1222  1  0.69623700  0.82771200  0.07781600  1
  C  1223  1  0.68201500  0.81433900  0.08874300  1
  C  1227  1  0.49733800  0.81723700  0.11545100  1
  C  1231  1  0.56355100  0.87989600  0.06329000  1
  C  1239  1  0.07712500  0.70098500  0.88822800  1
  C  1240  1  0.04612500  0.68787800  0.89353700  1
  C  1242  1  0.10562800  0.67504100  0.91101600  1
  C  1243  1  0.13785800  0.68799100  0.90634800  1
  C  1244  1  0.12293100  0.70092500  0.89495400  1
  C  1246  1  0.11961300  0.66160100  0.92197200  1
  C  1247  1  0.14606200  0.63392200  0.94312000  1
  C  1249  1  0.10019500  0.63535200  0.93633900  1
  C  1250  1  0.17849500  0.64685700  0.93885200  1
  C  1251  1  0.16581100  0.66087500  0.92836900  1
  C  1252  1  0.19752300  0.67393300  0.92382000  1
  C  1253  1  0.18365700  0.68738100  0.91292700  1
  C  1257  1  0.99749800  0.68614000  0.88753900  1
  C  1261  1  0.06264400  0.62274900  0.93916400  1
  C  1269  1  0.32638800  0.63878000  0.05098900  1
  C  1270  1  0.29319500  0.64628700  0.06214500  1
  C  1272  1  0.35312900  0.66223300  0.07661200  1
  C  1273  1  0.38769800  0.65534600  0.06561700  1
  C  1274  1  0.37359500  0.64376700  0.05272300  1
  C  1276  1  0.36597200  0.67348200  0.08996600  1
  C  1277  1  0.38977700  0.69507400  0.11761000  1
  C  1279  1  0.34277200  0.69036500  0.11423700  1
  C  1280  1  0.42465900  0.68858700  0.10661100  1
  C  1281  1  0.41338400  0.67784200  0.09263200  1
  C  1282  1  0.44754200  0.67104600  0.08153300  1
  C  1283  1  0.43479300  0.65995100  0.06810200  1
  C  1287  1  0.24274100  0.64250000  0.06183600  1
  C  1291  1  0.30260100  0.69556300  0.12484100  1
  C  1299  1  0.82738400  0.86328100  0.95112000  1
  C  1300  1  0.79407600  0.85557400  0.94014400  1
  C  1302  1  0.85404100  0.83980400  0.92548400  1
  C  1303  1  0.88871400  0.84689200  0.93631100  1
  C  1304  1  0.87468000  0.85850100  0.94918800  1
  C  1306  1  0.86687000  0.82855600  0.91211800  1
  C  1307  1  0.89077600  0.80702400  0.88441300  1
  C  1309  1  0.84369800  0.81153000  0.88792900  1
  C  1310  1  0.92566800  0.81367400  0.89530600  1
  C  1311  1  0.91435100  0.82438800  0.90930300  1
  C  1312  1  0.94858900  0.83135400  0.92026100  1
  C  1313  1  0.93586800  0.84246000  0.93368200  1
  C  1317  1  0.74353700  0.85918500  0.94063600  1
  C  1321  1  0.80350900  0.80613000  0.87743400  1
  C  1329  1  0.92274000  0.70158700  0.38802900  1
  C  1330  1  0.95651100  0.69084700  0.39578600  1
  C  1332  1  0.89719300  0.67608600  0.41175700  1
  C  1333  1  0.86206400  0.68667800  0.40462300  1
  C  1334  1  0.87553000  0.69947300  0.39284100  1
  C  1336  1  0.88500900  0.66279900  0.42317900  1
  C  1337  1  0.86253400  0.63534300  0.44516700  1
  C  1339  1  0.90936100  0.63890800  0.44037700  1
  C  1340  1  0.82711600  0.64599900  0.43851000  1
  C  1341  1  0.83771900  0.65986900  0.42754400  1
  C  1342  1  0.80300100  0.67059800  0.42054100  1
  C  1343  1  0.81507700  0.68391100  0.40920900  1
  C  1347  1  0.00700300  0.69153100  0.39210900  1
  C  1351  1  0.94994000  0.62855100  0.44566000  1
  C  1359  1  0.42373300  0.80015400  0.61390700  1
  C  1360  1  0.45757100  0.81087700  0.60616300  1
  C  1362  1  0.39837200  0.82565100  0.59013700  1
  C  1363  1  0.36318300  0.81507600  0.59726200  1
  C  1364  1  0.37655800  0.80228000  0.60905900  1
  C  1366  1  0.38625700  0.83893500  0.57869900  1
  C  1367  1  0.36383400  0.86639300  0.55670600  1
  C  1369  1  0.41066100  0.86281700  0.56148600  1
  C  1370  1  0.32839500  0.85574200  0.56335000  1
  C  1371  1  0.33897400  0.84187300  0.57431800  1
  C  1372  1  0.30420800  0.83116200  0.58131300  1
  C  1373  1  0.31621800  0.81785300  0.59265700  1
  C  1377  1  0.50804000  0.81016500  0.60986600  1
  C  1381  1  0.45121900  0.87316300  0.55615600  1
  C  1389  1  0.17764800  0.86416600  0.44863500  1
  C  1390  1  0.20464300  0.86186900  0.43359900  1
  C  1392  1  0.14828500  0.84216600  0.42214900  1
  C  1393  1  0.12026800  0.84378800  0.43702600  1
  C  1394  1  0.13558700  0.85482800  0.45019900  1
  C  1396  1  0.13382900  0.83144000  0.40858800  1
  C  1397  1  0.10647000  0.81030000  0.38095800  1
  C  1399  1  0.14818200  0.82019000  0.38042300  1
  C  1400  1  0.07833700  0.81170500  0.39577600  1
  C  1401  1  0.09148200  0.82216600  0.40973700  1
  C  1402  1  0.06386700  0.82380200  0.42461600  1
  C  1403  1  0.07812200  0.83452600  0.43813900  1
  C  1407  1  0.24941400  0.87059100  0.43018000  1
  C  1411  1  0.18080700  0.82069600  0.36577300  1
  C  1419  1  0.67681300  0.63771300  0.55301100  1
  C  1420  1  0.70525600  0.64093700  0.56750400  1
  C  1422  1  0.64774900  0.65996000  0.57931700  1
  C  1423  1  0.61816000  0.65737000  0.56500300  1
  C  1424  1  0.63342300  0.64626200  0.55188000  1
  C  1426  1  0.63349600  0.67079800  0.59280900  1
  C  1427  1  0.60677700  0.69213400  0.62032100  1
  C  1429  1  0.65022500  0.68332000  0.62023300  1
  C  1430  1  0.57673500  0.68966200  0.60618000  1
  C  1431  1  0.58964400  0.67913500  0.59223000  1
  C  1432  1  0.56043400  0.67651900  0.57791400  1
  C  1433  1  0.57460400  0.66575900  0.56440400  1
  C  1437  1  0.75146300  0.63309500  0.57043600  1
  C  1441  1  0.68572000  0.68443400  0.63389200  1
  C  1449  1  0.07208600  0.30076900  0.61370600  1
  C  1450  1  0.04125500  0.31399000  0.60855800  1
  C  1452  1  0.10061700  0.32675000  0.59096000  1
  C  1453  1  0.13271000  0.31370700  0.59548300  1
  C  1454  1  0.11764100  0.30067700  0.60673400  1
  C  1456  1  0.11465200  0.34022200  0.58005600  1
  C  1457  1  0.14127500  0.36798500  0.55908900  1
  C  1459  1  0.09527400  0.36648900  0.56572000  1
  C  1460  1  0.17371300  0.35505700  0.56335100  1
  C  1461  1  0.16090900  0.34097400  0.57371900  1
  C  1462  1  0.19256800  0.32787800  0.57820100  1
  C  1463  1  0.17852900  0.31431900  0.58892100  1
  C  1467  1  0.99272000  0.31577900  0.61463800  1
  C  1471  1  0.05773100  0.37908200  0.56281000  1
  C  1479  1  0.57196400  0.20145800  0.38817300  1
  C  1480  1  0.54065800  0.18849100  0.39357100  1
  C  1482  1  0.59994400  0.17549600  0.41102800  1
  C  1483  1  0.63251800  0.18828600  0.40625200  1
  C  1484  1  0.61772500  0.20131900  0.39495600  1
  C  1486  1  0.61368200  0.16202600  0.42198500  1
  C  1487  1  0.63971900  0.13424700  0.44302400  1
  C  1489  1  0.59356800  0.13598300  0.43659800  1
  C  1490  1  0.67260300  0.14694100  0.43853100  1
  C  1491  1  0.66010800  0.16102500  0.42811900  1
  C  1492  1  0.69225000  0.17387200  0.42338400  1
  C  1493  1  0.67851900  0.18742800  0.41260900  1
  C  1497  1  0.49183600  0.18698500  0.38772900  1
  C  1501  1  0.55561100  0.12361700  0.43975000  1
  C  1509  1  0.82053100  0.13891300  0.55044700  1
  C  1510  1  0.78914100  0.14466200  0.56323400  1
  C  1512  1  0.84888300  0.16189500  0.57626000  1
  C  1513  1  0.88154400  0.15678300  0.56362900  1
  C  1514  1  0.86656300  0.14544300  0.55066300  1
  C  1516  1  0.86284100  0.17286500  0.58969500  1
  C  1517  1  0.88942800  0.19377200  0.61752100  1
  C  1519  1  0.84293600  0.18773000  0.61562200  1
  C  1520  1  0.92231500  0.18901300  0.60492500  1
  C  1521  1  0.90957000  0.17865800  0.59082700  1
  C  1522  1  0.94177400  0.17361200  0.57812200  1
  C  1523  1  0.92783100  0.16283800  0.56459500  1
  C  1527  1  0.74001600  0.13914300  0.56462400  1
  C  1531  1  0.80489500  0.19116100  0.62787800  1
  C  1539  1  0.32171600  0.36300800  0.45176100  1
  C  1540  1  0.28985700  0.35682900  0.43933800  1
  C  1542  1  0.34988400  0.34003000  0.42594000  1
  C  1543  1  0.38302200  0.34555000  0.43822500  1
  C  1544  1  0.36815200  0.35690200  0.45120000  1
  C  1546  1  0.36368100  0.32909500  0.41246200  1
  C  1547  1  0.38977000  0.30825400  0.38453700  1
  C  1549  1  0.34307900  0.31396400  0.38676800  1
  C  1550  1  0.42314500  0.31334500  0.39682700  1
  C  1551  1  0.41067400  0.32369300  0.41096300  1
  C  1552  1  0.44335900  0.32911800  0.42334200  1
  C  1553  1  0.42961500  0.33989800  0.43689400  1
  C  1557  1  0.24031000  0.36189900  0.43833000  1
  C  1561  1  0.30455500  0.31027300  0.37479300  1
  C  1569  1  0.27978800  0.08596000  0.25531000  1
  C  1570  1  0.31640200  0.07455800  0.25923400  1
  C  1571  1  0.36106200  0.07601900  0.25191100  1
  C  1572  1  0.37104600  0.09063900  0.24150800  1
  C  1573  1  0.33533400  0.10310500  0.23821700  1
  C  1574  1  0.28870100  0.09999000  0.24404400  1
  C  1577  1  0.23612900  0.08314600  0.26401900  1
  C  1578  1  0.21072300  0.06743100  0.26321600  1
  C  1579  1  0.17346100  0.06434800  0.27509200  1
  C  1580  1  0.16341500  0.07689000  0.28807100  1
  C  1581  1  0.18384200  0.09356000  0.28689900  1
  C  1582  1  0.22101400  0.09605000  0.27537300  1
  C  1595  1  0.16912100  0.10796500  0.29846000  1
  C  1598  1  0.14399700  0.04834300  0.27334000  1
  C  1601  1  0.39662300  0.06220000  0.25482700  1
  C  1604  1  0.34768800  0.11998800  0.22985400  1
  C  1607  1  0.78000400  0.41595600  0.25909700  1
  C  1608  1  0.81661300  0.42735700  0.25516900  1
  C  1609  1  0.86124600  0.42590800  0.26251300  1
  C  1610  1  0.87121500  0.41129300  0.27292600  1
  C  1611  1  0.83548700  0.39883900  0.27622600  1
  C  1612  1  0.78886600  0.40194500  0.27038700  1
  C  1615  1  0.73635600  0.41877000  0.25038800  1
  C  1616  1  0.71093600  0.43447400  0.25121800  1
  C  1617  1  0.67364700  0.43755500  0.23935200  1
  C  1618  1  0.66344400  0.42499800  0.22640400  1
  C  1619  1  0.68398300  0.40834300  0.22754700  1
  C  1620  1  0.72125700  0.40587000  0.23903200  1
  C  1633  1  0.66919300  0.39392200  0.21602200  1
  C  1636  1  0.64419400  0.45354700  0.24116700  1
  C  1639  1  0.89679600  0.43972800  0.25960600  1
  C  1642  1  0.84780400  0.38197000  0.28461600  1
  C  1645  1  0.53079600  0.25281500  0.09369150  1
  C  1646  1  0.56745100  0.24878500  0.08234050  1
  C  1647  1  0.61202100  0.25620600  0.08369650  1
  C  1648  1  0.62191100  0.26677600  0.09820550  1
  C  1649  1  0.58620000  0.27013500  0.11065400  1
  C  1650  1  0.53962100  0.26421600  0.10761600  1
  C  1653  1  0.48705900  0.24416800  0.09088650  1
  C  1654  1  0.46151600  0.24512300  0.07521150  1
  C  1655  1  0.42345800  0.23357200  0.07224850  1
  C  1656  1  0.41334200  0.22052400  0.08469550  1
  C  1657  1  0.43428800  0.22143500  0.10129100  1
  C  1658  1  0.47176800  0.23283000  0.10378200  1
  C  1671  1  0.41956800  0.20976700  0.11560600  1
  C  1674  1  0.39327000  0.23569700  0.05648150  1
  C  1677  1  0.64755100  0.25325400  0.06986950  1
  C  1680  1  0.59846400  0.27872600  0.12742900  1
  C  1683  1  0.03072000  0.24919200  0.42076100  1
  C  1684  1  0.06739700  0.25319000  0.43211000  1
  C  1685  1  0.11193800  0.24575100  0.43073900  1
  C  1686  1  0.12177200  0.23518500  0.41622200  1
  C  1687  1  0.08602500  0.23184400  0.40378200  1
  C  1688  1  0.03947900  0.23779300  0.40683100  1
  C  1691  1  0.98706800  0.25789600  0.42356400  1
  C  1692  1  0.96154600  0.25699000  0.43924400  1
  C  1693  1  0.92372200  0.26863600  0.44222700  1
  C  1694  1  0.91385300  0.28173100  0.42980400  1
  C  1695  1  0.93465300  0.28074700  0.41318900  1
  C  1696  1  0.97190600  0.26925700  0.41067100  1
  C  1709  1  0.91999900  0.29241800  0.39887400  1
  C  1712  1  0.89340500  0.26654400  0.45795900  1
  C  1715  1  0.14749400  0.24869600  0.44455900  1
  C  1718  1  0.09825300  0.22327000  0.38699300  1
  C  1721  1  0.72094700  0.91535800  0.25951000  1
  C  1722  1  0.68448400  0.92694600  0.25592400  1
  C  1723  1  0.64081600  0.92601300  0.26409100  1
  C  1724  1  0.63212800  0.91209300  0.27554400  1
  C  1725  1  0.66700600  0.89917300  0.27814100  1
  C  1726  1  0.71268000  0.90151600  0.27107500  1
  C  1729  1  0.76399500  0.91809300  0.25041400  1
  C  1730  1  0.79037000  0.93355000  0.25162400  1
  C  1731  1  0.82602200  0.93705400  0.23917600  1
  C  1732  1  0.83602300  0.92459700  0.22606800  1
  C  1733  1  0.81492100  0.90799800  0.22703600  1
  C  1734  1  0.77770900  0.90548000  0.23853500  1
  C  1747  1  0.82951100  0.89355000  0.21548800  1
  C  1750  1  0.85367200  0.95348900  0.24076400  1
  C  1753  1  0.60498700  0.93970000  0.26107500  1
  C  1756  1  0.65410800  0.88251200  0.28685300  1
  C  1759  1  0.22010100  0.58690100  0.25509900  1
  C  1760  1  0.18391400  0.57516600  0.25854900  1
  C  1761  1  0.14034600  0.57602100  0.25030400  1
  C  1762  1  0.13155800  0.58994800  0.23886600  1
  C  1763  1  0.16621200  0.60297700  0.23639100  1
  C  1764  1  0.21179000  0.60076300  0.24357400  1
  C  1767  1  0.26321800  0.58414900  0.26409700  1
  C  1768  1  0.29040800  0.56895900  0.26226900  1
  C  1769  1  0.32656100  0.56533500  0.27448400  1
  C  1770  1  0.33804600  0.57786000  0.28736800  1
  C  1771  1  0.31501900  0.59414400  0.28721700  1
  C  1772  1  0.27647400  0.59649700  0.27630200  1
  C  1785  1  0.33018100  0.60864400  0.29860300  1
  C  1788  1  0.35219600  0.54845500  0.27311600  1
  C  1791  1  0.10474100  0.56224000  0.25324000  1
  C  1794  1  0.15318900  0.61960500  0.22765800  1
  C  1797  1  0.46855000  0.74945200  0.42122400  1
  C  1798  1  0.43253300  0.75316700  0.43291100  1
  C  1799  1  0.38804300  0.74568000  0.43166300  1
  C  1800  1  0.37777000  0.73528600  0.41705500  1
  C  1801  1  0.41311200  0.73211400  0.40440300  1
  C  1802  1  0.45965000  0.73815100  0.40724700  1
  C  1805  1  0.51258400  0.75767500  0.42423400  1
  C  1806  1  0.53946000  0.75500600  0.43935200  1
  C  1807  1  0.57884200  0.76582600  0.44265400  1
  C  1808  1  0.59452200  0.77765900  0.42976600  1
  C  1809  1  0.56894500  0.77930000  0.41410200  1
  C  1810  1  0.52743600  0.76985600  0.41210000  1
  C  1823  1  0.58557300  0.79052400  0.39969000  1
  C  1826  1  0.60257400  0.76477800  0.45988600  1
  C  1829  1  0.35311900  0.74838800  0.44574100  1
  C  1832  1  0.40057900  0.72353700  0.38765700  1
  C  1835  1  0.97130000  0.75331900  0.09263150  1
  C  1836  1  0.93483000  0.74931100  0.08120350  1
  C  1837  1  0.89005100  0.75654500  0.08262750  1
  C  1838  1  0.87979600  0.76689700  0.09726250  1
  C  1839  1  0.91541600  0.77029600  0.10973700  1
  C  1840  1  0.96215600  0.76457200  0.10664600  1
  C  1843  1  0.01518100  0.74476000  0.08982050  1
  C  1844  1  0.04094700  0.74585900  0.07421150  1
  C  1845  1  0.07895800  0.73427500  0.07117550  1
  C  1846  1  0.09028000  0.72154700  0.08386450  1
  C  1847  1  0.06852200  0.72226600  0.10035300  1
  C  1848  1  0.03035700  0.73337800  0.10267200  1
  C  1861  1  0.08324300  0.71072000  0.11478700  1
  C  1864  1  0.10765700  0.73618900  0.05499250  1
  C  1867  1  0.85467800  0.75359100  0.06874750  1
  C  1870  1  0.90290800  0.77869400  0.12658800  1
  C  1873  1  0.78387600  0.58811100  0.75555900  1
  C  1874  1  0.81981000  0.57641900  0.75938300  1
  C  1875  1  0.86464800  0.57779700  0.75217800  1
  C  1876  1  0.87524400  0.59245900  0.74190000  1
  C  1877  1  0.83994800  0.60509800  0.73864500  1
  C  1878  1  0.79319100  0.60218600  0.74441500  1
  C  1881  1  0.73936900  0.58509600  0.76344700  1
  C  1882  1  0.71207100  0.57016600  0.76032100  1
  C  1883  1  0.67099700  0.56725200  0.77033600  1
  C  1884  1  0.65356500  0.58050800  0.78135300  1
  C  1885  1  0.68041700  0.59573900  0.78390100  1
  C  1886  1  0.72371200  0.59726200  0.77548500  1
  C  1899  1  0.66348200  0.61000300  0.79522500  1
  C  1902  1  0.64776000  0.54991800  0.76997100  1
  C  1905  1  0.89965500  0.56377100  0.75496300  1
  C  1908  1  0.85253300  0.62179100  0.72999300  1
  C  1911  1  0.28410000  0.91354700  0.75898000  1
  C  1912  1  0.31985900  0.92528200  0.75504400  1
  C  1913  1  0.36488200  0.92394300  0.76210800  1
  C  1914  1  0.37585800  0.90927500  0.77232800  1
  C  1915  1  0.34073300  0.89660000  0.77568500  1
  C  1916  1  0.29381100  0.89947500  0.77008100  1
  C  1919  1  0.23933600  0.91647200  0.75124100  1
  C  1920  1  0.21173700  0.93129800  0.75450900  1
  C  1921  1  0.16998700  0.93398600  0.74481500  1
  C  1922  1  0.15234700  0.92059200  0.73401400  1
  C  1923  1  0.17977300  0.90555500  0.73115900  1
  C  1924  1  0.22355300  0.90425500  0.73927300  1
  C  1937  1  0.16299700  0.89130800  0.71977300  1
  C  1940  1  0.14656600  0.95129700  0.74505400  1
  C  1943  1  0.39973300  0.93801100  0.75925100  1
  C  1946  1  0.35361400  0.87992300  0.78430500  1
  C  1949  1  0.03061400  0.75288600  0.59231700  1
  C  1950  1  0.06857600  0.74894200  0.58156200  1
  C  1951  1  0.11277800  0.75649400  0.58362600  1
  C  1952  1  0.12053300  0.76736200  0.59810800  1
  C  1953  1  0.08284800  0.77108900  0.60965600  1
  C  1954  1  0.03695800  0.76480800  0.60596400  1
  C  1957  1  0.98797700  0.74370000  0.58917900  1
  C  1958  1  0.96289000  0.74454300  0.57342700  1
  C  1959  1  0.92700500  0.73217300  0.57001100  1
  C  1960  1  0.91622100  0.71931700  0.58261800  1
  C  1961  1  0.93608700  0.72065600  0.59938000  1
  C  1962  1  0.97302700  0.73224800  0.60199500  1
  C  1975  1  0.92069900  0.70934900  0.61389000  1
  C  1978  1  0.89904900  0.73377000  0.55367700  1
  C  1981  1  0.15040800  0.75310000  0.57068300  1
  C  1984  1  0.09198800  0.78106100  0.62593000  1
  C  1987  1  0.53079600  0.74874800  0.92230200  1
  C  1988  1  0.56823800  0.75271200  0.93331100  1
  C  1989  1  0.61243900  0.74506900  0.93163200  1
  C  1990  1  0.62070900  0.73396500  0.91738500  1
  C  1991  1  0.58403400  0.73054900  0.90533600  1
  C  1992  1  0.53805700  0.73699300  0.90855600  1
  C  1995  1  0.48792200  0.75787200  0.92525300  1
  C  1996  1  0.46246000  0.75703200  0.94093500  1
  C  1997  1  0.42664400  0.76944400  0.94430000  1
  C  1998  1  0.41646600  0.78239700  0.93172300  1
  C  1999  1  0.43652000  0.78104100  0.91499200  1
  C  2000  1  0.47334900  0.76938800  0.91243500  1
  C  2013  1  0.42158500  0.79243300  0.90048400  1
  C  2016  1  0.39846600  0.76794800  0.96060900  1
  C  2019  1  0.64945600  0.74843600  0.94480500  1
  C  2022  1  0.59469700  0.72110800  0.88886400  1
  C  2025  1  0.21790100  0.41515200  0.76046400  1
  C  2026  1  0.18247400  0.42718000  0.75700200  1
  C  2027  1  0.13847400  0.42643700  0.76494800  1
  C  2028  1  0.12861800  0.41243000  0.77617500  1
  C  2029  1  0.16256700  0.39914700  0.77861800  1
  C  2030  1  0.20851800  0.40117000  0.77172000  1
  C  2033  1  0.26139600  0.41764700  0.75168800  1
  C  2034  1  0.29001500  0.43238600  0.75410800  1
  C  2035  1  0.32734800  0.43569400  0.74232400  1
  C  2036  1  0.33954900  0.42297800  0.72975100  1
  C  2037  1  0.31421200  0.40719500  0.72909200  1
  C  2038  1  0.27411100  0.40536800  0.73932700  1
  C  2051  1  0.32915000  0.39264100  0.71775600  1
  C  2054  1  0.35337300  0.45250000  0.74349000  1
  C  2057  1  0.10347700  0.44039300  0.76188600  1
  C  2060  1  0.14861800  0.38252400  0.78713200  1
  C  2063  1  0.71709900  0.08700900  0.75376100  1
  C  2064  1  0.68186900  0.07490000  0.75721200  1
  C  2065  1  0.63767500  0.07567900  0.74940700  1
  C  2066  1  0.62745500  0.08978000  0.73833500  1
  C  2067  1  0.66132000  0.10308800  0.73586700  1
  C  2068  1  0.70742900  0.10104900  0.74261300  1
  C  2071  1  0.76082700  0.08453400  0.76237300  1
  C  2072  1  0.79002900  0.07003400  0.75950100  1
  C  2073  1  0.82826100  0.06686000  0.77090200  1
  C  2074  1  0.84096100  0.07958900  0.78338000  1
  C  2075  1  0.81464900  0.09511300  0.78460500  1
  C  2076  1  0.77365500  0.09673000  0.77481400  1
  C  2089  1  0.82956400  0.10958000  0.79605600  1
  C  2092  1  0.85462200  0.05012100  0.76978400  1
  C  2095  1  0.60278600  0.06168200  0.75246400  1
  C  2098  1  0.64724400  0.11972200  0.72741200  1
  C  2101  1  0.96914800  0.24746000  0.92161800  1
  C  2102  1  0.93409900  0.25077800  0.93384500  1
  C  2103  1  0.88976200  0.24307700  0.93301000  1
  C  2104  1  0.87914800  0.23229500  0.91872200  1
  C  2105  1  0.91282200  0.22995300  0.90532600  1
  C  2106  1  0.95908400  0.23654400  0.90742500  1
  C  2109  1  0.01301500  0.25602300  0.92407500  1
  C  2110  1  0.04243300  0.25305700  0.93850300  1
  C  2111  1  0.08095300  0.26435000  0.94160200  1
  C  2112  1  0.09389100  0.27673600  0.92882900  1
  C  2113  1  0.06728500  0.27808700  0.91338900  1
  C  2114  1  0.02596900  0.26845200  0.91187500  1
  C  2127  1  0.08214100  0.28959700  0.89896800  1
  C  2130  1  0.10699900  0.26354500  0.95842600  1
  C  2133  1  0.85498100  0.24599400  0.94708000  1
  C  2136  1  0.89838800  0.22178600  0.88857800  1
  C  2139  1  0.46903400  0.25463800  0.59269400  1
  C  2140  1  0.43378300  0.25129600  0.58055800  1
  C  2141  1  0.38941500  0.25895400  0.58151300  1
  C  2142  1  0.37899600  0.26971600  0.59583600  1
  C  2143  1  0.41296600  0.27211300  0.60912300  1
  C  2144  1  0.45922100  0.26556400  0.60689800  1
  C  2147  1  0.51279300  0.24603000  0.59018000  1
  C  2148  1  0.54209300  0.24894700  0.57571300  1
  C  2149  1  0.58042300  0.23758300  0.57255700  1
  C  2150  1  0.59325800  0.22514500  0.58529800  1
  C  2151  1  0.56687600  0.22387900  0.60079600  1
  C  2152  1  0.52572300  0.23359400  0.60237200  1
  C  2165  1  0.58174200  0.21237700  0.61521900  1
  C  2168  1  0.60647700  0.23840800  0.55573700  1
  C  2171  1  0.35438300  0.25598700  0.56753900  1
  C  2174  1  0.39884200  0.28026000  0.62591100  1
  C  2177  1  0.08507400  0.03346600  0.25590800  1
  C  2178  1  0.09257300  0.01765500  0.24737600  1
  C  2180  1  0.01735000  0.00725100  0.25613900  1
  C  2181  1  0.00753500  0.02297100  0.26451100  1
  C  2182  1  0.04179000  0.03593600  0.26425400  1
  C  2184  1  0.98418500  0.99387500  0.25633000  1
  C  2185  1  0.91888100  0.96690800  0.25628500  1
  C  2187  1  0.96294600  0.96523300  0.24813600  1
  C  2188  1  0.90864700  0.98245600  0.26471400  1
  C  2189  1  0.94088200  0.99612600  0.26481900  1
  C  2190  1  0.93129900  0.01185300  0.27302700  1
  C  2191  1  0.96437000  0.02515200  0.27289900  1
  C  2195  1  0.13526200  0.01318900  0.23780300  1
  C  2199  1  0.97859200  0.94938800  0.23947400  1
  C  2207  1  0.58510300  0.46818900  0.25868300  1
  C  2208  1  0.59254800  0.48388500  0.26742600  1
  C  2210  1  0.51747000  0.49439100  0.25867200  1
  C  2211  1  0.50769800  0.47880200  0.25006300  1
  C  2212  1  0.54192900  0.46582800  0.25022000  1
  C  2214  1  0.48440500  0.50778200  0.25860200  1
  C  2215  1  0.41961700  0.53488900  0.25885600  1
  C  2217  1  0.46363700  0.53636300  0.26706600  1
  C  2218  1  0.40921900  0.51946400  0.25021400  1
  C  2219  1  0.44121400  0.50571600  0.25000300  1
  C  2220  1  0.43166200  0.49012000  0.24153900  1
  C  2221  1  0.46465000  0.47678400  0.24155000  1
  C  2225  1  0.63511600  0.48823900  0.27712300  1
  C  2229  1  0.47964800  0.55203500  0.27591100  1
  C  2237  1  0.33742400  0.25408800  0.04128850  1
  C  2238  1  0.34742500  0.26231400  0.02550450  1
  C  2240  1  0.27279300  0.25424100  0.01408050  1
  C  2241  1  0.26019800  0.24639800  0.02979750  1
  C  2242  1  0.29303100  0.24640800  0.04326050  1
  C  2244  1  0.24154800  0.25401500  0.00011250  1
  C  2245  1  0.18079500  0.25364000  0.97161800  1
  C  2247  1  0.22624100  0.26091900  0.97064100  1
  C  2248  1  0.16730200  0.24615200  0.98736500  1
  C  2249  1  0.19718400  0.24620500  0.00174750  1
  C  2250  1  0.18464600  0.23862200  0.01751350  1
  C  2251  1  0.21595500  0.23865400  0.03139450  1
  C  2255  1  0.39126400  0.27140100  0.02156950  1
  C  2259  1  0.24664100  0.26852300  0.95499300  1
  C  2267  1  0.83708500  0.24821700  0.47298500  1
  C  2268  1  0.84678700  0.23970800  0.48864400  1
  C  2270  1  0.77241600  0.24794700  0.50017200  1
  C  2271  1  0.76010600  0.25608500  0.48457600  1
  C  2272  1  0.79295100  0.25612300  0.47111900  1
  C  2274  1  0.74115900  0.24809200  0.51413400  1
  C  2275  1  0.68038900  0.24826700  0.54261500  1
  C  2277  1  0.72559300  0.24077500  0.54348200  1
  C  2278  1  0.66715300  0.25607100  0.52699400  1
  C  2279  1  0.69705500  0.25612300  0.51261600  1
  C  2280  1  0.68480100  0.26401000  0.49697000  1
  C  2281  1  0.71612800  0.26405500  0.48309500  1
  C  2285  1  0.89030200  0.23035600  0.49244400  1
  C  2289  1  0.74570600  0.23281400  0.55900200  1
  C  2297  1  0.91607800  0.46909200  0.25153900  1
  C  2298  1  0.90725000  0.48344400  0.26219900  1
  C  2300  1  0.98346400  0.49486800  0.25645400  1
  C  2301  1  0.99369100  0.48094200  0.24538300  1
  C  2302  1  0.95960000  0.46812400  0.24309900  1
  C  2304  1  0.01702500  0.50780600  0.25924800  1
  C  2305  1  0.08219800  0.53429500  0.26453000  1
  C  2307  1  0.03834200  0.53424800  0.27299700  1
  C  2308  1  0.09305200  0.52037400  0.25369200  1
  C  2309  1  0.06080000  0.50702700  0.25084400  1
  C  2310  1  0.07062600  0.49317000  0.23979900  1
  C  2311  1  0.03741000  0.48019500  0.23714300  1
  C  2315  1  0.86362800  0.48615900  0.27190100  1
  C  2319  1  0.02361600  0.54755300  0.28535300  1
  C  2327  1  0.41594000  0.03283400  0.26290500  1
  C  2328  1  0.40716400  0.01848900  0.25222800  1
  C  2330  1  0.48334700  0.00705400  0.25801700  1
  C  2331  1  0.49351500  0.02096900  0.26910800  1
  C  2332  1  0.45941300  0.03378900  0.27137900  1
  C  2334  1  0.51694000  0.99412400  0.25522200  1
  C  2335  1  0.58225800  0.96768000  0.24990300  1
  C  2337  1  0.53840900  0.96772000  0.24142800  1
  C  2338  1  0.59301100  0.98158500  0.26077600  1
  C  2339  1  0.56068800  0.99490400  0.26364700  1
  C  2340  1  0.57043500  0.00874300  0.27472500  1
  C  2341  1  0.53718600  0.02170600  0.27738200  1
  C  2345  1  0.36358000  0.01578000  0.24250200  1
  C  2349  1  0.52375200  0.95442500  0.22904900  1
  C  2357  1  0.66704500  0.24499000  0.04056350  1
  C  2358  1  0.65853100  0.25564200  0.02617850  1
  C  2360  1  0.73459400  0.24958400  0.01476450  1
  C  2361  1  0.74449100  0.23850700  0.02871750  1
  C  2362  1  0.71035800  0.23640600  0.04155650  1
  C  2364  1  0.76821600  0.25219000  0.00180150  1
  C  2365  1  0.83346000  0.25706000  0.97522900  1
  C  2367  1  0.79002900  0.26583100  0.97535100  1
  C  2368  1  0.84390700  0.24617300  0.98915400  1
  C  2369  1  0.81165400  0.24354800  0.00255050  1
  C  2370  1  0.82113700  0.23249600  0.01643650  1
  C  2371  1  0.78791900  0.23006200  0.02945550  1
  C  2375  1  0.61513800  0.26546900  0.02341650  1
  C  2379  1  0.77581800  0.27837200  0.96213900  1
  C  2387  1  0.16692000  0.25698200  0.47386600  1
  C  2388  1  0.15822300  0.24638800  0.48827800  1
  C  2390  1  0.23424500  0.25241600  0.49974100  1
  C  2391  1  0.24431800  0.26343800  0.48576100  1
  C  2392  1  0.21028500  0.26552900  0.47288500  1
  C  2394  1  0.26775900  0.24982100  0.51274300  1
  C  2395  1  0.33280800  0.24494900  0.53937100  1
  C  2397  1  0.28929000  0.23623900  0.53925300  1
  C  2398  1  0.34343000  0.25578700  0.52542400  1
  C  2399  1  0.31126700  0.25841300  0.51200000  1
  C  2400  1  0.32092400  0.26941200  0.49809000  1
  C  2401  1  0.28781100  0.27183900  0.48503300  1
  C  2405  1  0.11474600  0.23660900  0.49103300  1
  C  2409  1  0.27488300  0.22376200  0.55249700  1
  C  2417  1  0.66697900  0.74999000  0.47464300  1
  C  2418  1  0.65983300  0.74141200  0.49044600  1
  C  2420  1  0.73522500  0.75021000  0.50053800  1
  C  2421  1  0.74457500  0.75866400  0.48482300  1
  C  2422  1  0.70978700  0.75858800  0.47206100  1
  C  2424  1  0.76887100  0.75022300  0.51372400  1
  C  2425  1  0.83494400  0.74986000  0.54035800  1
  C  2427  1  0.79053800  0.74202500  0.54229700  1
  C  2428  1  0.84514700  0.75813500  0.52472700  1
  C  2429  1  0.81243800  0.75843800  0.51122500  1
  C  2430  1  0.82176000  0.76659400  0.49544900  1
  C  2431  1  0.78800600  0.76678400  0.48238600  1
  C  2435  1  0.61747800  0.73166900  0.49500000  1
  C  2439  1  0.77477000  0.73367000  0.55829500  1
  C  2447  1  0.16694600  0.75355900  0.04030150  1
  C  2448  1  0.15939700  0.76159700  0.02423950  1
  C  2450  1  0.23507700  0.75288500  0.01425550  1
  C  2451  1  0.24493000  0.74502000  0.03023350  1
  C  2452  1  0.21043100  0.74546600  0.04310150  1
  C  2454  1  0.26844800  0.75244800  0.00095950  1
  C  2455  1  0.33423900  0.75207500  0.97416400  1
  C  2457  1  0.28979300  0.75985900  0.97211700  1
  C  2458  1  0.34455200  0.74417900  0.98998200  1
  C  2459  1  0.31205100  0.74427700  0.00356550  1
  C  2460  1  0.32168600  0.73659100  0.01954950  1
  C  2461  1  0.28835400  0.73691600  0.03275550  1
  C  2465  1  0.11638300  0.77078600  0.01940150  1
  C  2469  1  0.27396400  0.76788700  0.95596300  1
  C  2477  1  0.33526700  0.75643000  0.47526300  1
  C  2478  1  0.34484300  0.74580100  0.48957200  1
  C  2480  1  0.26947700  0.75176500  0.50162700  1
  C  2481  1  0.25855400  0.76281400  0.48775700  1
  C  2482  1  0.29184500  0.76496500  0.47463600  1
  C  2484  1  0.23666800  0.74907600  0.51484500  1
  C  2485  1  0.17280100  0.74379700  0.54176400  1
  C  2487  1  0.21652700  0.73525000  0.54137400  1
  C  2488  1  0.16141800  0.75474000  0.52798500  1
  C  2489  1  0.19299500  0.75757600  0.51441600  1
  C  2490  1  0.18251500  0.76861900  0.50062200  1
  C  2491  1  0.21495900  0.77116400  0.48736200  1
  C  2495  1  0.38851000  0.73603900  0.49196500  1
  C  2499  1  0.23179600  0.72275700  0.55446100  1
  C  2507  1  0.83614200  0.74561600  0.03925950  1
  C  2508  1  0.84530000  0.75629400  0.02494850  1
  C  2510  1  0.76961200  0.75036500  0.01315050  1
  C  2511  1  0.75907800  0.73926700  0.02702350  1
  C  2512  1  0.79274200  0.73706900  0.04001350  1
  C  2514  1  0.73645000  0.75310300  0.00006150  1
  C  2515  1  0.67188900  0.75844200  0.97337500  1
  C  2517  1  0.71566100  0.76696500  0.97361600  1
  C  2518  1  0.66084300  0.74748400  0.98718100  1
  C  2519  1  0.69277600  0.74461200  0.00062750  1
  C  2520  1  0.68267300  0.73351900  0.01442150  1
  C  2521  1  0.71548400  0.73092100  0.02754850  1
  C  2525  1  0.88885700  0.76608900  0.02243550  1
  C  2529  1  0.73063900  0.77944000  0.96046300  1
  C  2537  1  0.58325400  0.53406800  0.75656200  1
  C  2538  1  0.59162900  0.51844700  0.74781000  1
  C  2540  1  0.51851800  0.50700800  0.75746800  1
  C  2541  1  0.50806700  0.52239500  0.76631800  1
  C  2542  1  0.54117400  0.53576300  0.76587900  1
  C  2544  1  0.48636900  0.49334900  0.75746700  1
  C  2545  1  0.42316900  0.46575300  0.75653400  1
  C  2547  1  0.46761700  0.46475100  0.74853600  1
  C  2548  1  0.41181300  0.48095600  0.76545300  1
  C  2549  1  0.44305600  0.49493900  0.76605100  1
  C  2550  1  0.43278700  0.51031800  0.77480700  1
  C  2551  1  0.46510300  0.52389500  0.77501000  1
  C  2555  1  0.63345500  0.51466600  0.73744700  1
  C  2559  1  0.48534500  0.44949300  0.73942300  1
  C  2567  1  0.08301200  0.96758200  0.75854700  1
  C  2568  1  0.09237600  0.98322700  0.76712300  1
  C  2570  1  0.01977700  0.99513500  0.75750600  1
  C  2571  1  0.00826800  0.97972900  0.74886800  1
  C  2572  1  0.04065800  0.96611900  0.74935000  1
  C  2574  1  0.98843300  0.00904900  0.75742900  1
  C  2575  1  0.92681000  0.03719200  0.75823100  1
  C  2577  1  0.97169700  0.03795100  0.76595900  1
  C  2578  1  0.91437500  0.02192000  0.74959800  1
  C  2579  1  0.94480000  0.00769100  0.74903900  1
  C  2580  1  0.93346200  0.99229100  0.74049600  1
  C  2581  1  0.96501500  0.97846900  0.74033100  1
  C  2585  1  0.13450400  0.98679900  0.77739000  1
  C  2589  1  0.99090200  0.05314500  0.77478800  1
  C  2597  1  0.41785500  0.96751500  0.75133700  1
  C  2598  1  0.40873500  0.98183000  0.76201400  1
  C  2600  1  0.48449600  0.99358700  0.75611900  1
  C  2601  1  0.49502600  0.97969400  0.74504800  1
  C  2602  1  0.46130000  0.96673500  0.74282100  1
  C  2604  1  0.51763700  0.00669700  0.75880400  1
  C  2605  1  0.58182900  0.03357200  0.76377300  1
  C  2607  1  0.53819600  0.03330300  0.77239600  1
  C  2608  1  0.59303500  0.01965500  0.75298000  1
  C  2609  1  0.56128000  0.00611700  0.75029000  1
  C  2610  1  0.57144200  0.99226800  0.73927700  1
  C  2611  1  0.53865200  0.97912900  0.73672600  1
  C  2615  1  0.36515000  0.98436900  0.77178500  1
  C  2619  1  0.52321500  0.04655000  0.78477500  1
  C  2627  1  0.91809400  0.53431800  0.76293900  1
  C  2628  1  0.90895000  0.51998200  0.75229500  1
  C  2630  1  0.98482200  0.50829800  0.75812100  1
  C  2631  1  0.99537300  0.52221300  0.76916300  1
  C  2632  1  0.96159500  0.53514800  0.77140700  1
  C  2634  1  0.01801200  0.49521500  0.75541400  1
  C  2635  1  0.08229900  0.46839300  0.75039500  1
  C  2637  1  0.03856800  0.46860300  0.74184300  1
  C  2638  1  0.09354100  0.48233100  0.76115500  1
  C  2639  1  0.06172800  0.49584400  0.76387200  1
  C  2640  1  0.07190800  0.50971000  0.77486200  1
  C  2641  1  0.03906000  0.52282600  0.77743500  1
  C  2645  1  0.86530300  0.51739900  0.74257300  1
  C  2649  1  0.02353300  0.45530600  0.72952800  1
  C  2657  1  0.42242400  0.20123400  0.14575200  1
  C  2658  1  0.45566600  0.18994000  0.15302800  1
  C  2660  1  0.39594400  0.17542000  0.16904600  1
  C  2661  1  0.36136900  0.18655500  0.16238000  1
  C  2662  1  0.37531200  0.19949800  0.15083400  1
  C  2664  1  0.38315700  0.16198100  0.18021000  1
  C  2665  1  0.35925100  0.13416000  0.20158600  1
  C  2667  1  0.40620300  0.13744100  0.19674000  1
  C  2668  1  0.32447900  0.14534200  0.19534500  1
  C  2669  1  0.33580900  0.15940800  0.18472500  1
  C  2670  1  0.30169100  0.17068100  0.17819400  1
  C  2671  1  0.31437600  0.18416900  0.16716500  1
  C  2675  1  0.50599200  0.19015900  0.14900800  1
  C  2679  1  0.44623900  0.12667400  0.20173600  1
  C  2687  1  0.92244000  0.30077200  0.36868900  1
  C  2688  1  0.95572400  0.31199300  0.36133000  1
  C  2690  1  0.89595700  0.32658400  0.34540900  1
  C  2691  1  0.86133300  0.31551900  0.35215400  1
  C  2692  1  0.87527900  0.30257200  0.36369300  1
  C  2694  1  0.88318800  0.34003100  0.33425500  1
  C  2695  1  0.85936900  0.36786800  0.31290500  1
  C  2697  1  0.90634100  0.36452000  0.31767700  1
  C  2698  1  0.82452800  0.35674300  0.31919800  1
  C  2699  1  0.83581400  0.34267400  0.32981800  1
  C  2700  1  0.80163900  0.33147200  0.33642800  1
  C  2701  1  0.81430400  0.31798300  0.34745800  1
  C  2705  1  0.00610800  0.31168900  0.36524700  1
  C  2709  1  0.94645100  0.37522000  0.31261500  1
  C  2717  1  0.67208400  0.36370000  0.20778900  1
  C  2718  1  0.70534000  0.35643500  0.19649600  1
  C  2720  1  0.64575800  0.34016800  0.18218800  1
  C  2721  1  0.61117800  0.34681700  0.19332800  1
  C  2722  1  0.62504100  0.35850000  0.20615900  1
  C  2724  1  0.63305800  0.32886500  0.16885600  1
  C  2725  1  0.60934700  0.30719900  0.14125000  1
  C  2727  1  0.65621800  0.31222300  0.14441200  1
  C  2728  1  0.57455500  0.31339800  0.15244900  1
  C  2729  1  0.58579200  0.32417300  0.16640700  1
  C  2730  1  0.55166600  0.33068800  0.17768500  1
  C  2731  1  0.56426100  0.34187300  0.19105700  1
  C  2735  1  0.75558900  0.36059000  0.19660400  1
  C  2739  1  0.69625800  0.30727700  0.13362400  1
  C  2747  1  0.17170000  0.13822000  0.30662900  1
  C  2748  1  0.20504200  0.14561600  0.31780200  1
  C  2750  1  0.14545500  0.16180000  0.33220600  1
  C  2751  1  0.11078300  0.15502600  0.32118000  1
  C  2752  1  0.12460500  0.14332300  0.30835800  1
  C  2754  1  0.13280300  0.17311800  0.34553200  1
  C  2755  1  0.10921000  0.19481500  0.37313300  1
  C  2757  1  0.15610600  0.18987900  0.36988100  1
  C  2758  1  0.07432800  0.18849900  0.36203700  1
  C  2759  1  0.08550200  0.17770600  0.34808600  1
  C  2760  1  0.05128300  0.17106900  0.33691700  1
  C  2761  1  0.06382600  0.15986600  0.32355500  1
  C  2765  1  0.25536700  0.14159400  0.31757000  1
  C  2769  1  0.19623200  0.19491200  0.38058500  1
  C  2777  1  0.57607000  0.80178100  0.37054800  1
  C  2778  1  0.54563800  0.81513200  0.36542500  1
  C  2780  1  0.60495500  0.82737000  0.34744800  1
  C  2781  1  0.63655000  0.81412900  0.35186900  1
  C  2782  1  0.62135400  0.80132600  0.36336300  1
  C  2784  1  0.61922600  0.84068700  0.33639900  1
  C  2785  1  0.64635300  0.86821900  0.31518100  1
  C  2787  1  0.60066500  0.86709100  0.32218000  1
  C  2788  1  0.67821900  0.85502200  0.31923000  1
  C  2789  1  0.66515700  0.84105700  0.32972400  1
  C  2790  1  0.69623700  0.82771200  0.33402900  1
  C  2791  1  0.68201500  0.81433900  0.34495600  1
  C  2795  1  0.49733800  0.81723700  0.37166400  1
  C  2799  1  0.56355100  0.87989600  0.31950300  1
  C  2807  1  0.07712500  0.70098500  0.14444100  1
  C  2808  1  0.04612500  0.68787800  0.14975000  1
  C  2810  1  0.10562800  0.67504100  0.16722900  1
  C  2811  1  0.13785800  0.68799100  0.16256100  1
  C  2812  1  0.12293100  0.70092500  0.15116700  1
  C  2814  1  0.11961300  0.66160100  0.17818500  1
  C  2815  1  0.14606200  0.63392200  0.19933300  1
  C  2817  1  0.10019500  0.63535200  0.19255200  1
  C  2818  1  0.17849500  0.64685700  0.19506500  1
  C  2819  1  0.16581100  0.66087500  0.18458200  1
  C  2820  1  0.19752300  0.67393300  0.18003300  1
  C  2821  1  0.18365700  0.68738100  0.16914000  1
  C  2825  1  0.99749800  0.68614000  0.14375200  1
  C  2829  1  0.06264400  0.62274900  0.19537700  1
  C  2837  1  0.32638800  0.63878000  0.30720200  1
  C  2838  1  0.29319500  0.64628700  0.31835800  1
  C  2840  1  0.35312900  0.66223300  0.33282500  1
  C  2841  1  0.38769800  0.65534600  0.32183000  1
  C  2842  1  0.37359500  0.64376700  0.30893600  1
  C  2844  1  0.36597200  0.67348200  0.34617900  1
  C  2845  1  0.38977700  0.69507400  0.37382300  1
  C  2847  1  0.34277200  0.69036500  0.37045000  1
  C  2848  1  0.42465900  0.68858700  0.36282400  1
  C  2849  1  0.41338400  0.67784200  0.34884500  1
  C  2850  1  0.44754200  0.67104600  0.33774600  1
  C  2851  1  0.43479300  0.65995100  0.32431500  1
  C  2855  1  0.24274100  0.64250000  0.31804900  1
  C  2859  1  0.30260100  0.69556300  0.38105400  1
  C  2867  1  0.82738400  0.86328100  0.20733300  1
  C  2868  1  0.79407600  0.85557400  0.19635700  1
  C  2870  1  0.85404100  0.83980400  0.18169700  1
  C  2871  1  0.88871400  0.84689200  0.19252400  1
  C  2872  1  0.87468000  0.85850100  0.20540100  1
  C  2874  1  0.86687000  0.82855600  0.16833100  1
  C  2875  1  0.89077600  0.80702400  0.14062600  1
  C  2877  1  0.84369800  0.81153000  0.14414200  1
  C  2878  1  0.92566800  0.81367400  0.15151900  1
  C  2879  1  0.91435100  0.82438800  0.16551600  1
  C  2880  1  0.94858900  0.83135400  0.17647400  1
  C  2881  1  0.93586800  0.84246000  0.18989500  1
  C  2885  1  0.74353700  0.85918500  0.19684900  1
  C  2889  1  0.80350900  0.80613000  0.13364700  1
  C  2897  1  0.92274000  0.70158700  0.64424200  1
  C  2898  1  0.95651100  0.69084700  0.65199900  1
  C  2900  1  0.89719300  0.67608600  0.66797000  1
  C  2901  1  0.86206400  0.68667800  0.66083600  1
  C  2902  1  0.87553000  0.69947300  0.64905400  1
  C  2904  1  0.88500900  0.66279900  0.67939200  1
  C  2905  1  0.86253400  0.63534300  0.70138000  1
  C  2907  1  0.90936100  0.63890800  0.69659000  1
  C  2908  1  0.82711600  0.64599900  0.69472300  1
  C  2909  1  0.83771900  0.65986900  0.68375700  1
  C  2910  1  0.80300100  0.67059800  0.67675400  1
  C  2911  1  0.81507700  0.68391100  0.66542200  1
  C  2915  1  0.00700300  0.69153100  0.64832200  1
  C  2919  1  0.94994000  0.62855100  0.70187300  1
  C  2927  1  0.42373300  0.80015400  0.87012000  1
  C  2928  1  0.45757100  0.81087700  0.86237600  1
  C  2930  1  0.39837200  0.82565100  0.84635000  1
  C  2931  1  0.36318300  0.81507600  0.85347500  1
  C  2932  1  0.37655800  0.80228000  0.86527200  1
  C  2934  1  0.38625700  0.83893500  0.83491200  1
  C  2935  1  0.36383400  0.86639300  0.81291900  1
  C  2937  1  0.41066100  0.86281700  0.81769900  1
  C  2938  1  0.32839500  0.85574200  0.81956300  1
  C  2939  1  0.33897400  0.84187300  0.83053100  1
  C  2940  1  0.30420800  0.83116200  0.83752600  1
  C  2941  1  0.31621800  0.81785300  0.84887000  1
  C  2945  1  0.50804000  0.81016500  0.86607900  1
  C  2949  1  0.45121900  0.87316300  0.81236900  1
  C  2957  1  0.17764800  0.86416600  0.70484800  1
  C  2958  1  0.20464300  0.86186900  0.68981200  1
  C  2960  1  0.14828500  0.84216600  0.67836200  1
  C  2961  1  0.12026800  0.84378800  0.69323900  1
  C  2962  1  0.13558700  0.85482800  0.70641200  1
  C  2964  1  0.13382900  0.83144000  0.66480100  1
  C  2965  1  0.10647000  0.81030000  0.63717100  1
  C  2967  1  0.14818200  0.82019000  0.63663600  1
  C  2968  1  0.07833700  0.81170500  0.65198900  1
  C  2969  1  0.09148200  0.82216600  0.66595000  1
  C  2970  1  0.06386700  0.82380200  0.68082900  1
  C  2971  1  0.07812200  0.83452600  0.69435200  1
  C  2975  1  0.24941400  0.87059100  0.68639300  1
  C  2979  1  0.18080700  0.82069600  0.62198600  1
  C  2987  1  0.67681300  0.63771300  0.80922400  1
  C  2988  1  0.70525600  0.64093700  0.82371700  1
  C  2990  1  0.64774900  0.65996000  0.83553000  1
  C  2991  1  0.61816000  0.65737000  0.82121600  1
  C  2992  1  0.63342300  0.64626200  0.80809300  1
  C  2994  1  0.63349600  0.67079800  0.84902200  1
  C  2995  1  0.60677700  0.69213400  0.87653400  1
  C  2997  1  0.65022500  0.68332000  0.87644600  1
  C  2998  1  0.57673500  0.68966200  0.86239300  1
  C  2999  1  0.58964400  0.67913500  0.84844300  1
  C  3000  1  0.56043400  0.67651900  0.83412700  1
  C  3001  1  0.57460400  0.66575900  0.82061700  1
  C  3005  1  0.75146300  0.63309500  0.82664900  1
  C  3009  1  0.68572000  0.68443400  0.89010500  1
  C  3017  1  0.07208600  0.30076900  0.86991900  1
  C  3018  1  0.04125500  0.31399000  0.86477100  1
  C  3020  1  0.10061700  0.32675000  0.84717300  1
  C  3021  1  0.13271000  0.31370700  0.85169600  1
  C  3022  1  0.11764100  0.30067700  0.86294700  1
  C  3024  1  0.11465200  0.34022200  0.83626900  1
  C  3025  1  0.14127500  0.36798500  0.81530200  1
  C  3027  1  0.09527400  0.36648900  0.82193300  1
  C  3028  1  0.17371300  0.35505700  0.81956400  1
  C  3029  1  0.16090900  0.34097400  0.82993200  1
  C  3030  1  0.19256800  0.32787800  0.83441400  1
  C  3031  1  0.17852900  0.31431900  0.84513400  1
  C  3035  1  0.99272000  0.31577900  0.87085100  1
  C  3039  1  0.05773100  0.37908200  0.81902300  1
  C  3047  1  0.57196400  0.20145800  0.64438600  1
  C  3048  1  0.54065800  0.18849100  0.64978400  1
  C  3050  1  0.59994400  0.17549600  0.66724100  1
  C  3051  1  0.63251800  0.18828600  0.66246500  1
  C  3052  1  0.61772500  0.20131900  0.65116900  1
  C  3054  1  0.61368200  0.16202600  0.67819800  1
  C  3055  1  0.63971900  0.13424700  0.69923700  1
  C  3057  1  0.59356800  0.13598300  0.69281100  1
  C  3058  1  0.67260300  0.14694100  0.69474400  1
  C  3059  1  0.66010800  0.16102500  0.68433200  1
  C  3060  1  0.69225000  0.17387200  0.67959700  1
  C  3061  1  0.67851900  0.18742800  0.66882200  1
  C  3065  1  0.49183600  0.18698500  0.64394200  1
  C  3069  1  0.55561100  0.12361700  0.69596300  1
  C  3077  1  0.82053100  0.13891300  0.80666000  1
  C  3078  1  0.78914100  0.14466200  0.81944700  1
  C  3080  1  0.84888300  0.16189500  0.83247300  1
  C  3081  1  0.88154400  0.15678300  0.81984200  1
  C  3082  1  0.86656300  0.14544300  0.80687600  1
  C  3084  1  0.86284100  0.17286500  0.84590800  1
  C  3085  1  0.88942800  0.19377200  0.87373400  1
  C  3087  1  0.84293600  0.18773000  0.87183500  1
  C  3088  1  0.92231500  0.18901300  0.86113800  1
  C  3089  1  0.90957000  0.17865800  0.84704000  1
  C  3090  1  0.94177400  0.17361200  0.83433500  1
  C  3091  1  0.92783100  0.16283800  0.82080800  1
  C  3095  1  0.74001600  0.13914300  0.82083700  1
  C  3099  1  0.80489500  0.19116100  0.88409100  1
  C  3107  1  0.32171600  0.36300800  0.70797400  1
  C  3108  1  0.28985700  0.35682900  0.69555100  1
  C  3110  1  0.34988400  0.34003000  0.68215300  1
  C  3111  1  0.38302200  0.34555000  0.69443800  1
  C  3112  1  0.36815200  0.35690200  0.70741300  1
  C  3114  1  0.36368100  0.32909500  0.66867500  1
  C  3115  1  0.38977000  0.30825400  0.64075000  1
  C  3117  1  0.34307900  0.31396400  0.64298100  1
  C  3118  1  0.42314500  0.31334500  0.65304000  1
  C  3119  1  0.41067400  0.32369300  0.66717600  1
  C  3120  1  0.44335900  0.32911800  0.67955500  1
  C  3121  1  0.42961500  0.33989800  0.69310700  1
  C  3125  1  0.24031000  0.36189900  0.69454300  1
  C  3129  1  0.30455500  0.31027300  0.63100600  1
  N  8  1  0.41454000  0.09239600  0.97832200  1
  N  15  1  0.13603900  0.07307600  0.04574000  1
  N  17  1  0.25226200  0.10981400  0.98227700  1
  N  18  1  0.22296100  0.05557600  0.99490900  1
  N  46  1  0.91472000  0.40953800  0.02368000  1
  N  53  1  0.63578800  0.42877200  0.95637600  1
  N  55  1  0.75239600  0.39214500  0.01974700  1
  N  56  1  0.72317900  0.44631100  0.00711900  1
  N  84  1  0.66529300  0.27386700  0.84364000  1
  N  91  1  0.38555700  0.20679000  0.82455900  1
  N  93  1  0.50316800  0.26983000  0.86118500  1
  N  94  1  0.47432000  0.25701400  0.80702800  1
  N  122  1  0.16515200  0.22809500  0.15833600  1
  N  129  1  0.88640500  0.29555000  0.17756500  1
  N  131  1  0.00296400  0.23220600  0.14085500  1
  N  132  1  0.97415200  0.24506100  0.19499000  1
  N  160  1  0.59086300  0.91141800  0.02807700  1
  N  167  1  0.86480100  0.92806100  0.95624800  1
  N  169  1  0.74881300  0.89111300  0.01954900  1
  N  170  1  0.78051900  0.94463900  0.00853300  1
  N  198  1  0.09042300  0.59052000  0.97381500  1
  N  205  1  0.37079200  0.57492400  0.04362100  1
  N  207  1  0.24780300  0.61129100  0.98282200  1
  N  208  1  0.28106600  0.55831000  0.99252000  1
  N  236  1  0.33437300  0.72818700  0.15930800  1
  N  243  1  0.63442300  0.78705500  0.17574100  1
  N  245  1  0.49595900  0.73275500  0.14105100  1
  N  246  1  0.52715700  0.74199400  0.19400900  1
  N  274  1  0.83610700  0.77371000  0.84280400  1
  N  281  1  0.12054100  0.70836900  0.82424200  1
  N  283  1  0.99850000  0.77025000  0.86022900  1
  N  284  1  0.02833200  0.75801200  0.80624000  1
  N  312  1  0.91885700  0.59405000  0.47875600  1
  N  319  1  0.61090700  0.57889400  0.53286100  1
  N  321  1  0.75706600  0.61221700  0.48270400  1
  N  322  1  0.72490300  0.55916600  0.49130400  1
  N  350  1  0.41964500  0.90771600  0.52290900  1
  N  357  1  0.10898500  0.92192700  0.47058000  1
  N  359  1  0.25790100  0.88941000  0.51950100  1
  N  360  1  0.22485600  0.94241500  0.51095400  1
  N  388  1  0.16393100  0.77423300  0.34439300  1
  N  395  1  0.88800700  0.70559300  0.32282400  1
  N  397  1  0.99872700  0.77051200  0.35852200  1
  N  398  1  0.97402700  0.75723400  0.30580400  1
  N  426  1  0.66354500  0.72646200  0.65937500  1
  N  433  1  0.38874300  0.79625400  0.67912600  1
  N  435  1  0.50061900  0.73155600  0.64297600  1
  N  436  1  0.47324400  0.74432200  0.69615300  1
  N  464  1  0.08718600  0.41201300  0.52863100  1
  N  471  1  0.37551700  0.42535900  0.46223900  1
  N  473  1  0.24385800  0.39033000  0.52004300  1
  N  474  1  0.28144300  0.44282000  0.51164800  1
  N  502  1  0.58574700  0.09025400  0.47363300  1
  N  509  1  0.87838200  0.07733500  0.53782800  1
  N  511  1  0.74265900  0.11192000  0.48180800  1
  N  512  1  0.78159200  0.05980800  0.48937800  1
  N  540  1  0.83721100  0.22396100  0.66192800  1
  N  547  1  0.13173100  0.28721300  0.67483600  1
  N  549  1  0.99412700  0.23196600  0.64025600  1
  N  550  1  0.03408300  0.23913400  0.69250400  1
  N  578  1  0.33692600  0.27795100  0.34035300  1
  N  585  1  0.63078400  0.21453400  0.32679100  1
  N  587  1  0.49451100  0.27019100  0.36151000  1
  N  588  1  0.53378800  0.26290300  0.30932900  1
  N  611  1  0.05888400  0.00541100  0.99179400  1
  N  618  1  0.99309200  0.97866500  0.99234600  1
  N  635  1  0.88410300  0.95392800  0.00004300  1
  N  637  1  0.11994800  0.04646900  0.00024900  1
  N  641  1  0.55888800  0.49613200  0.01068300  1
  N  648  1  0.49349700  0.52286700  0.01034800  1
  N  665  1  0.38575900  0.54816300  0.00232700  1
  N  667  1  0.61998200  0.45520800  0.00181900  1
  N  671  1  0.31521400  0.26181700  0.75653100  1
  N  678  1  0.25380500  0.26082900  0.72858000  1
  N  695  1  0.14920900  0.25241400  0.70131000  1
  N  697  1  0.37129700  0.25295200  0.79839000  1
  N  701  1  0.81457600  0.24015800  0.24519000  1
  N  708  1  0.75317200  0.24097300  0.27312600  1
  N  725  1  0.64886700  0.24943300  0.30051400  1
  N  727  1  0.87098200  0.24935500  0.20347100  1
  N  731  1  0.94110500  0.49547000  0.00797900  1
  N  738  1  0.00822400  0.52114600  0.01372200  1
  N  755  1  0.11514600  0.54789300  0.00903500  1
  N  757  1  0.88311800  0.45556400  0.99397500  1
  N  761  1  0.44103000  0.00646200  0.99403600  1
  N  768  1  0.50822800  0.98079800  0.98829500  1
  N  785  1  0.61532600  0.95411800  0.99293400  1
  N  787  1  0.38296600  0.04636100  0.00803200  1
  N  791  1  0.69245200  0.25748200  0.75793600  1
  N  798  1  0.75984800  0.26293800  0.73226200  1
  N  815  1  0.86646600  0.25762400  0.70541200  1
  N  817  1  0.63395900  0.24375300  0.79785900  1
  N  821  1  0.19204800  0.24455800  0.24413300  1
  N  828  1  0.25921300  0.23912500  0.26988400  1
  N  845  1  0.36578400  0.24436900  0.29676400  1
  N  847  1  0.13391100  0.25822700  0.20412500  1
  N  851  1  0.69379600  0.74206400  0.24634800  1
  N  858  1  0.76002900  0.74257200  0.27278200  1
  N  875  1  0.87015300  0.74964800  0.29693200  1
  N  877  1  0.63335000  0.74946800  0.20512700  1
  N  881  1  0.19330200  0.76076700  0.75587600  1
  N  888  1  0.25944100  0.75967200  0.72927700  1
  N  905  1  0.36947900  0.75209200  0.70514100  1
  N  907  1  0.13176800  0.75306300  0.79697500  1
  N  911  1  0.31172100  0.74392200  0.24567700  1
  N  918  1  0.24600400  0.73832300  0.27186600  1
  N  935  1  0.13965100  0.74257700  0.29903300  1
  N  937  1  0.36750100  0.75778000  0.20529900  1
  N  941  1  0.81184200  0.75820900  0.75654600  1
  N  948  1  0.74546600  0.76387100  0.73059400  1
  N  965  1  0.63872700  0.75947200  0.70366200  1
  N  967  1  0.86876000  0.74427300  0.79668600  1
  N  971  1  0.55932000  0.50577200  0.49255900  1
  N  978  1  0.49650300  0.47849400  0.49308800  1
  N  995  1  0.39042100  0.45207900  0.50064300  1
  N  997  1  0.61486300  0.54800500  0.49914100  1
  N  1001  1  0.06079400  0.99614200  0.50987700  1
  N  1008  1  0.99968100  0.02395000  0.50908900  1
  N  1025  1  0.89481800  0.05115900  0.50151600  1
  N  1027  1  0.11404300  0.95345100  0.50353800  1
  N  1031  1  0.44222400  0.99400700  0.50772200  1
  N  1038  1  0.50854100  0.02002700  0.51325700  1
  N  1055  1  0.61428100  0.04733900  0.50812800  1
  N  1057  1  0.38526100  0.95385900  0.49380600  1
  N  1061  1  0.94249100  0.50782900  0.49414100  1
  N  1068  1  0.00887100  0.48186100  0.48857200  1
  N  1085  1  0.11473000  0.45462700  0.49363600  1
  N  1087  1  0.88544100  0.54794500  0.50807100  1
  N  1091  1  0.44094600  0.17766100  0.90793000  1
  N  1098  1  0.41562300  0.15099300  0.93016400  1
  N  1115  1  0.34411200  0.11947000  0.95462100  1
  N  1117  1  0.43597700  0.21359200  0.87710200  1
  N  1121  1  0.94100100  0.32427500  0.09401000  1
  N  1128  1  0.91571600  0.35096000  0.07181700  1
  N  1145  1  0.84430400  0.38254900  0.04742100  1
  N  1147  1  0.93599000  0.28844100  0.12493400  1
  N  1151  1  0.69069000  0.34520000  0.92810500  1
  N  1158  1  0.66554000  0.32272300  0.90165000  1
  N  1175  1  0.59431400  0.29772100  0.87048000  1
  N  1177  1  0.68555000  0.37625000  0.96382200  1
  N  1181  1  0.19043100  0.15686500  0.07376200  1
  N  1188  1  0.16537200  0.17936400  0.10022100  1
  N  1205  1  0.09423200  0.20426900  0.13150000  1
  N  1207  1  0.18515600  0.12566400  0.03816900  1
  N  1211  1  0.56146100  0.82720100  0.09808600  1
  N  1218  1  0.58962600  0.85356900  0.07612900  1
  N  1235  1  0.66350700  0.88241900  0.04940100  1
  N  1237  1  0.56147200  0.78943100  0.12659100  1
  N  1241  1  0.06178500  0.67562100  0.90449300  1
  N  1248  1  0.08948000  0.64894200  0.92621500  1
  N  1265  1  0.16279900  0.61967000  0.95269900  1
  N  1267  1  0.06301400  0.71341000  0.87595100  1
  N  1271  1  0.30803300  0.65748200  0.07432600  1
  N  1278  1  0.33341500  0.67988200  0.10077900  1
  N  1295  1  0.40472700  0.70454000  0.13218100  1
  N  1297  1  0.31255800  0.62624200  0.03877000  1
  N  1301  1  0.80887500  0.84438800  0.92794000  1
  N  1308  1  0.83428600  0.82198900  0.90140800  1
  N  1325  1  0.90580900  0.79772900  0.86973700  1
  N  1327  1  0.81365700  0.87582400  0.96335500  1
  N  1331  1  0.94223000  0.67868500  0.40709400  1
  N  1338  1  0.91809100  0.65228400  0.42971900  1
  N  1355  1  0.84822500  0.62081700  0.45480300  1
  N  1357  1  0.93598300  0.71375300  0.37538400  1
  N  1361  1  0.44337700  0.82303500  0.59483200  1
  N  1368  1  0.41936300  0.84943900  0.57215100  1
  N  1385  1  0.34953900  0.88092000  0.54707400  1
  N  1387  1  0.43685100  0.78798400  0.62657200  1
  N  1391  1  0.18873300  0.85114500  0.42118200  1
  N  1398  1  0.15966600  0.83005100  0.39413100  1
  N  1415  1  0.08955100  0.79999500  0.36716600  1
  N  1417  1  0.19241500  0.87569400  0.46163900  1
  N  1421  1  0.68945300  0.65175700  0.57985200  1
  N  1428  1  0.66124000  0.67326900  0.60662000  1
  N  1445  1  0.58977300  0.70216900  0.63424600  1
  N  1447  1  0.69150800  0.62603500  0.54013400  1
  N  1451  1  0.05688500  0.32623800  0.59758700  1
  N  1458  1  0.08449500  0.35287100  0.57579600  1
  N  1475  1  0.15812900  0.38230000  0.54966100  1
  N  1477  1  0.05784600  0.28830300  0.62592800  1
  N  1481  1  0.55603600  0.17624000  0.40458700  1
  N  1488  1  0.58308000  0.14959900  0.42647500  1
  N  1505  1  0.65628100  0.11987800  0.45242600  1
  N  1507  1  0.55794100  0.21391100  0.37590900  1
  N  1511  1  0.80470400  0.15571600  0.57542200  1
  N  1518  1  0.83220300  0.17764200  0.60200200  1
  N  1535  1  0.90629600  0.20294400  0.63199700  1
  N  1537  1  0.80630200  0.12656700  0.53809500  1
  N  1541  1  0.30536200  0.34580500  0.42711700  1
  N  1548  1  0.33259300  0.32402600  0.40043000  1
  N  1565  1  0.40630400  0.29912800  0.36998600  1
  N  1567  1  0.30755700  0.37545000  0.46401700  1
  N  1576  1  0.41454000  0.09239600  0.23453500  1
  N  1583  1  0.13603900  0.07307600  0.30195300  1
  N  1585  1  0.25226200  0.10981400  0.23849000  1
  N  1586  1  0.22296100  0.05557600  0.25112200  1
  N  1614  1  0.91472000  0.40953800  0.27989300  1
  N  1621  1  0.63578800  0.42877200  0.21258900  1
  N  1623  1  0.75239600  0.39214500  0.27596000  1
  N  1624  1  0.72317900  0.44631100  0.26333200  1
  N  1652  1  0.66529300  0.27386700  0.09985350  1
  N  1659  1  0.38555700  0.20679000  0.08077250  1
  N  1661  1  0.50316800  0.26983000  0.11739800  1
  N  1662  1  0.47432000  0.25701400  0.06324150  1
  N  1690  1  0.16515200  0.22809500  0.41454900  1
  N  1697  1  0.88640500  0.29555000  0.43377800  1
  N  1699  1  0.00296400  0.23220600  0.39706800  1
  N  1700  1  0.97415200  0.24506100  0.45120300  1
  N  1728  1  0.59086300  0.91141800  0.28429000  1
  N  1735  1  0.86480100  0.92806100  0.21246100  1
  N  1737  1  0.74881300  0.89111300  0.27576200  1
  N  1738  1  0.78051900  0.94463900  0.26474600  1
  N  1766  1  0.09042300  0.59052000  0.23002800  1
  N  1773  1  0.37079200  0.57492400  0.29983400  1
  N  1775  1  0.24780300  0.61129100  0.23903500  1
  N  1776  1  0.28106600  0.55831000  0.24873300  1
  N  1804  1  0.33437300  0.72818700  0.41552100  1
  N  1811  1  0.63442300  0.78705500  0.43195400  1
  N  1813  1  0.49595900  0.73275500  0.39726400  1
  N  1814  1  0.52715700  0.74199400  0.45022200  1
  N  1842  1  0.83610700  0.77371000  0.09901750  1
  N  1849  1  0.12054100  0.70836900  0.08045550  1
  N  1851  1  0.99850000  0.77025000  0.11644200  1
  N  1852  1  0.02833200  0.75801200  0.06245350  1
  N  1880  1  0.91885700  0.59405000  0.73496900  1
  N  1887  1  0.61090700  0.57889400  0.78907400  1
  N  1889  1  0.75706600  0.61221700  0.73891700  1
  N  1890  1  0.72490300  0.55916600  0.74751700  1
  N  1918  1  0.41964500  0.90771600  0.77912200  1
  N  1925  1  0.10898500  0.92192700  0.72679300  1
  N  1927  1  0.25790100  0.88941000  0.77571400  1
  N  1928  1  0.22485600  0.94241500  0.76716700  1
  N  1956  1  0.16393100  0.77423300  0.60060600  1
  N  1963  1  0.88800700  0.70559300  0.57903700  1
  N  1965  1  0.99872700  0.77051200  0.61473500  1
  N  1966  1  0.97402700  0.75723400  0.56201700  1
  N  1994  1  0.66354500  0.72646200  0.91558800  1
  N  2001  1  0.38874300  0.79625400  0.93533900  1
  N  2003  1  0.50061900  0.73155600  0.89918900  1
  N  2004  1  0.47324400  0.74432200  0.95236600  1
  N  2032  1  0.08718600  0.41201300  0.78484400  1
  N  2039  1  0.37551700  0.42535900  0.71845200  1
  N  2041  1  0.24385800  0.39033000  0.77625600  1
  N  2042  1  0.28144300  0.44282000  0.76786100  1
  N  2070  1  0.58574700  0.09025400  0.72984600  1
  N  2077  1  0.87838200  0.07733500  0.79404100  1
  N  2079  1  0.74265900  0.11192000  0.73802100  1
  N  2080  1  0.78159200  0.05980800  0.74559100  1
  N  2108  1  0.83721100  0.22396100  0.91814100  1
  N  2115  1  0.13173100  0.28721300  0.93104900  1
  N  2117  1  0.99412700  0.23196600  0.89646900  1
  N  2118  1  0.03408300  0.23913400  0.94871700  1
  N  2146  1  0.33692600  0.27795100  0.59656600  1
  N  2153  1  0.63078400  0.21453400  0.58300400  1
  N  2155  1  0.49451100  0.27019100  0.61772300  1
  N  2156  1  0.53378800  0.26290300  0.56554200  1
  N  2179  1  0.05888400  0.00541100  0.24800700  1
  N  2186  1  0.99309200  0.97866500  0.24855900  1
  N  2203  1  0.88410300  0.95392800  0.25625600  1
  N  2205  1  0.11994800  0.04646900  0.25646200  1
  N  2209  1  0.55888800  0.49613200  0.26689600  1
  N  2216  1  0.49349700  0.52286700  0.26656100  1
  N  2233  1  0.38575900  0.54816300  0.25854000  1
  N  2235  1  0.61998200  0.45520800  0.25803200  1
  N  2239  1  0.31521400  0.26181700  0.01274450  1
  N  2246  1  0.25380500  0.26082900  0.98479300  1
  N  2263  1  0.14920900  0.25241400  0.95752300  1
  N  2265  1  0.37129700  0.25295200  0.05460350  1
  N  2269  1  0.81457600  0.24015800  0.50140300  1
  N  2276  1  0.75317200  0.24097300  0.52933900  1
  N  2293  1  0.64886700  0.24943300  0.55672700  1
  N  2295  1  0.87098200  0.24935500  0.45968400  1
  N  2299  1  0.94110500  0.49547000  0.26419200  1
  N  2306  1  0.00822400  0.52114600  0.26993500  1
  N  2323  1  0.11514600  0.54789300  0.26524800  1
  N  2325  1  0.88311800  0.45556400  0.25018800  1
  N  2329  1  0.44103000  0.00646200  0.25024900  1
  N  2336  1  0.50822800  0.98079800  0.24450800  1
  N  2353  1  0.61532600  0.95411800  0.24914700  1
  N  2355  1  0.38296600  0.04636100  0.26424500  1
  N  2359  1  0.69245200  0.25748200  0.01414950  1
  N  2366  1  0.75984800  0.26293800  0.98847500  1
  N  2383  1  0.86646600  0.25762400  0.96162500  1
  N  2385  1  0.63395900  0.24375300  0.05407250  1
  N  2389  1  0.19204800  0.24455800  0.50034600  1
  N  2396  1  0.25921300  0.23912500  0.52609700  1
  N  2413  1  0.36578400  0.24436900  0.55297700  1
  N  2415  1  0.13391100  0.25822700  0.46033800  1
  N  2419  1  0.69379600  0.74206400  0.50256100  1
  N  2426  1  0.76002900  0.74257200  0.52899500  1
  N  2443  1  0.87015300  0.74964800  0.55314500  1
  N  2445  1  0.63335000  0.74946800  0.46134000  1
  N  2449  1  0.19330200  0.76076700  0.01208950  1
  N  2456  1  0.25944100  0.75967200  0.98549000  1
  N  2473  1  0.36947900  0.75209200  0.96135400  1
  N  2475  1  0.13176800  0.75306300  0.05318850  1
  N  2479  1  0.31172100  0.74392200  0.50189000  1
  N  2486  1  0.24600400  0.73832300  0.52807900  1
  N  2503  1  0.13965100  0.74257700  0.55524600  1
  N  2505  1  0.36750100  0.75778000  0.46151200  1
  N  2509  1  0.81184200  0.75820900  0.01275950  1
  N  2516  1  0.74546600  0.76387100  0.98680700  1
  N  2533  1  0.63872700  0.75947200  0.95987500  1
  N  2535  1  0.86876000  0.74427300  0.05289950  1
  N  2539  1  0.55932000  0.50577200  0.74877200  1
  N  2546  1  0.49650300  0.47849400  0.74930100  1
  N  2563  1  0.39042100  0.45207900  0.75685600  1
  N  2565  1  0.61486300  0.54800500  0.75535400  1
  N  2569  1  0.06079400  0.99614200  0.76609000  1
  N  2576  1  0.99968100  0.02395000  0.76530200  1
  N  2593  1  0.89481800  0.05115900  0.75772900  1
  N  2595  1  0.11404300  0.95345100  0.75975100  1
  N  2599  1  0.44222400  0.99400700  0.76393500  1
  N  2606  1  0.50854100  0.02002700  0.76947000  1
  N  2623  1  0.61428100  0.04733900  0.76434100  1
  N  2625  1  0.38526100  0.95385900  0.75001900  1
  N  2629  1  0.94249100  0.50782900  0.75035400  1
  N  2636  1  0.00887100  0.48186100  0.74478500  1
  N  2653  1  0.11473000  0.45462700  0.74984900  1
  N  2655  1  0.88544100  0.54794500  0.76428400  1
  N  2659  1  0.44094600  0.17766100  0.16414300  1
  N  2666  1  0.41562300  0.15099300  0.18637700  1
  N  2683  1  0.34411200  0.11947000  0.21083400  1
  N  2685  1  0.43597700  0.21359200  0.13331500  1
  N  2689  1  0.94100100  0.32427500  0.35022300  1
  N  2696  1  0.91571600  0.35096000  0.32803000  1
  N  2713  1  0.84430400  0.38254900  0.30363400  1
  N  2715  1  0.93599000  0.28844100  0.38114700  1
  N  2719  1  0.69069000  0.34520000  0.18431800  1
  N  2726  1  0.66554000  0.32272300  0.15786300  1
  N  2743  1  0.59431400  0.29772100  0.12669300  1
  N  2745  1  0.68555000  0.37625000  0.22003500  1
  N  2749  1  0.19043100  0.15686500  0.32997500  1
  N  2756  1  0.16537200  0.17936400  0.35643400  1
  N  2773  1  0.09423200  0.20426900  0.38771300  1
  N  2775  1  0.18515600  0.12566400  0.29438200  1
  N  2779  1  0.56146100  0.82720100  0.35429900  1
  N  2786  1  0.58962600  0.85356900  0.33234200  1
  N  2803  1  0.66350700  0.88241900  0.30561400  1
  N  2805  1  0.56147200  0.78943100  0.38280400  1
  N  2809  1  0.06178500  0.67562100  0.16070600  1
  N  2816  1  0.08948000  0.64894200  0.18242800  1
  N  2833  1  0.16279900  0.61967000  0.20891200  1
  N  2835  1  0.06301400  0.71341000  0.13216400  1
  N  2839  1  0.30803300  0.65748200  0.33053900  1
  N  2846  1  0.33341500  0.67988200  0.35699200  1
  N  2863  1  0.40472700  0.70454000  0.38839400  1
  N  2865  1  0.31255800  0.62624200  0.29498300  1
  N  2869  1  0.80887500  0.84438800  0.18415300  1
  N  2876  1  0.83428600  0.82198900  0.15762100  1
  N  2893  1  0.90580900  0.79772900  0.12595000  1
  N  2895  1  0.81365700  0.87582400  0.21956800  1
  N  2899  1  0.94223000  0.67868500  0.66330700  1
  N  2906  1  0.91809100  0.65228400  0.68593200  1
  N  2923  1  0.84822500  0.62081700  0.71101600  1
  N  2925  1  0.93598300  0.71375300  0.63159700  1
  N  2929  1  0.44337700  0.82303500  0.85104500  1
  N  2936  1  0.41936300  0.84943900  0.82836400  1
  N  2953  1  0.34953900  0.88092000  0.80328700  1
  N  2955  1  0.43685100  0.78798400  0.88278500  1
  N  2959  1  0.18873300  0.85114500  0.67739500  1
  N  2966  1  0.15966600  0.83005100  0.65034400  1
  N  2983  1  0.08955100  0.79999500  0.62337900  1
  N  2985  1  0.19241500  0.87569400  0.71785200  1
  N  2989  1  0.68945300  0.65175700  0.83606500  1
  N  2996  1  0.66124000  0.67326900  0.86283300  1
  N  3013  1  0.58977300  0.70216900  0.89045900  1
  N  3015  1  0.69150800  0.62603500  0.79634700  1
  N  3019  1  0.05688500  0.32623800  0.85380000  1
  N  3026  1  0.08449500  0.35287100  0.83200900  1
  N  3043  1  0.15812900  0.38230000  0.80587400  1
  N  3045  1  0.05784600  0.28830300  0.88214100  1
  N  3049  1  0.55603600  0.17624000  0.66080000  1
  N  3056  1  0.58308000  0.14959900  0.68268800  1
  N  3073  1  0.65628100  0.11987800  0.70863900  1
  N  3075  1  0.55794100  0.21391100  0.63212200  1
  N  3079  1  0.80470400  0.15571600  0.83163500  1
  N  3086  1  0.83220300  0.17764200  0.85821500  1
  N  3103  1  0.90629600  0.20294400  0.88821000  1
  N  3105  1  0.80630200  0.12656700  0.79430800  1
  N  3109  1  0.30536200  0.34580500  0.68333000  1
  N  3116  1  0.33259300  0.32402600  0.65664300  1
  N  3133  1  0.40630400  0.29912800  0.62619900  1
  N  3135  1  0.30755700  0.37545000  0.72023000  1
