# generated using pymatgen
data_H22C39(N5O)2
_symmetry_space_group_name_H-M   'P 1'
_cell_length_a   61.38680000
_cell_length_b   61.94380000
_cell_length_c   61.94380000
_cell_angle_alpha   90.00000000
_cell_angle_beta   90.00000000
_cell_angle_gamma   90.00000000
_symmetry_Int_Tables_number   1
_chemical_formula_structural   H22C39(N5O)2
_chemical_formula_sum   'H704 C1248 N320 O64'
_cell_volume   235543.26075468
_cell_formula_units_Z   32
loop_
 _symmetry_equiv_pos_site_id
 _symmetry_equiv_pos_as_xyz
  1  'x, y, z'
loop_
 _atom_site_type_symbol
 _atom_site_label
 _atom_site_symmetry_multiplicity
 _atom_site_fract_x
 _atom_site_fract_y
 _atom_site_fract_z
 _atom_site_occupancy
  H  25  1  0.10550000  0.19699600  0.24963500  1
  H  26  1  0.11099200  0.16290100  0.26767000  1
  H  27  1  0.11834000  0.12198300  0.27753200  1
  H  28  1  0.12541300  0.08375800  0.27698200  1
  H  29  1  0.16370500  0.09169700  0.22071000  1
  H  30  1  0.14847900  0.17741300  0.20006400  1
  H  31  1  0.11257500  0.12438300  0.20463600  1
  H  32  1  0.12770500  0.11576000  0.13863300  1
  H  33  1  0.16529300  0.12534600  0.14586000  1
  H  34  1  0.19278300  0.14979300  0.23953500  1
  H  35  1  0.20340900  0.13819700  0.16251800  1
  H  36  1  0.23336900  0.15073900  0.18426900  1
  H  42  1  0.10691400  0.21547000  0.21275900  1
  H  43  1  0.15645400  0.05609700  0.23388000  1
  H  44  1  0.23098500  0.15933600  0.24321400  1
  H  45  1  0.09189200  0.09731700  0.16916500  1
  H  70  1  0.10569900  0.81083100  0.59224900  1
  H  71  1  0.11116500  0.84495700  0.57425600  1
  H  72  1  0.11832600  0.88598000  0.56454600  1
  H  73  1  0.12539800  0.92419300  0.56510500  1
  H  74  1  0.16360500  0.91625400  0.62143300  1
  H  75  1  0.14838800  0.83052400  0.64203400  1
  H  76  1  0.11248500  0.88364800  0.63743000  1
  H  77  1  0.12751200  0.89211300  0.70347900  1
  H  78  1  0.16509900  0.88248600  0.69629600  1
  H  79  1  0.19269000  0.85811700  0.60263400  1
  H  80  1  0.20319400  0.86951800  0.67969100  1
  H  81  1  0.23316600  0.85694400  0.65797600  1
  H  87  1  0.10702500  0.79224500  0.62902500  1
  H  88  1  0.15634500  0.95185900  0.60826500  1
  H  89  1  0.23082300  0.84837100  0.59900800  1
  H  90  1  0.09172400  0.91064400  0.67269600  1
  H  115  1  0.10575500  0.67528400  0.11421200  1
  H  116  1  0.11117600  0.65732700  0.08006100  1
  H  117  1  0.11845500  0.64751200  0.03904400  1
  H  118  1  0.12554500  0.64805700  0.00082100  1
  H  119  1  0.16346700  0.70459100  0.00869200  1
  H  120  1  0.14832000  0.72515800  0.09445500  1
  H  121  1  0.11235100  0.72100400  0.04167600  1
  H  122  1  0.12810500  0.78678800  0.03244800  1
  H  123  1  0.16565800  0.77927000  0.04187800  1
  H  124  1  0.19246300  0.68558200  0.06689300  1
  H  125  1  0.20355700  0.76246900  0.05488300  1
  H  126  1  0.23339400  0.74060600  0.06750300  1
  H  132  1  0.10709700  0.71204000  0.13284200  1
  H  133  1  0.15648900  0.69120900  0.97311200  1
  H  134  1  0.23072400  0.68172700  0.07631200  1
  H  135  1  0.09210400  0.75933700  0.01453500  1
  H  160  1  0.10573100  0.33269500  0.72790700  1
  H  161  1  0.11120900  0.35071500  0.76201600  1
  H  162  1  0.11828800  0.36040000  0.80303000  1
  H  163  1  0.12533600  0.35985700  0.84125500  1
  H  164  1  0.16366100  0.30360800  0.83334000  1
  H  165  1  0.14844600  0.28293900  0.74762200  1
  H  166  1  0.11256100  0.28753200  0.80074700  1
  H  167  1  0.12771600  0.22154600  0.80946500  1
  H  168  1  0.16529300  0.22876600  0.79983000  1
  H  169  1  0.19273900  0.32240100  0.77519000  1
  H  170  1  0.20338300  0.24540300  0.78689500  1
  H  171  1  0.23333400  0.26713800  0.77430100  1
  H  177  1  0.10705100  0.29584300  0.70938200  1
  H  178  1  0.15639700  0.31678900  0.86893300  1
  H  179  1  0.23093200  0.32607000  0.76561900  1
  H  180  1  0.09191100  0.25202500  0.82787800  1
  H  205  1  0.96671800  0.81085000  0.24985400  1
  H  206  1  0.96126900  0.84498100  0.26784900  1
  H  207  1  0.95409600  0.88601000  0.27758700  1
  H  208  1  0.94702500  0.92422900  0.27704200  1
  H  209  1  0.90885900  0.91632200  0.22068600  1
  H  210  1  0.92405900  0.83058700  0.20005100  1
  H  211  1  0.95997200  0.88373200  0.20467400  1
  H  212  1  0.94496600  0.89212900  0.13861300  1
  H  213  1  0.90737800  0.88249300  0.14579300  1
  H  214  1  0.87977100  0.85817900  0.23946600  1
  H  215  1  0.86927200  0.86956000  0.16240500  1
  H  216  1  0.83930000  0.85698700  0.18412200  1
  H  222  1  0.96538700  0.79224800  0.21307900  1
  H  223  1  0.91606200  0.95190900  0.23390100  1
  H  224  1  0.84162900  0.84846200  0.24309500  1
  H  225  1  0.98074700  0.91069600  0.16944600  1
  H  250  1  0.96675200  0.19710100  0.59232100  1
  H  251  1  0.96125900  0.16297900  0.57432400  1
  H  252  1  0.95388500  0.12201900  0.56445200  1
  H  253  1  0.94680200  0.08379400  0.56502500  1
  H  254  1  0.90877700  0.09171600  0.62148600  1
  H  255  1  0.92401000  0.17745000  0.64206800  1
  H  256  1  0.95992000  0.12445400  0.63758800  1
  H  257  1  0.94471800  0.11577200  0.70356900  1
  H  258  1  0.90712900  0.12532600  0.69630400  1
  H  259  1  0.87971900  0.14977900  0.60261000  1
  H  260  1  0.86903400  0.13817900  0.67961700  1
  H  261  1  0.83908500  0.15070500  0.65784400  1
  H  267  1  0.96542500  0.21559900  0.62921100  1
  H  268  1  0.91584200  0.05612600  0.60819200  1
  H  269  1  0.84151700  0.15932000  0.59890300  1
  H  270  1  0.98056100  0.09737600  0.67323200  1
  H  295  1  0.96666700  0.33277600  0.11417500  1
  H  296  1  0.96121000  0.35075200  0.08003900  1
  H  297  1  0.95402100  0.36048300  0.03903700  1
  H  298  1  0.94693700  0.35994600  0.00081800  1
  H  299  1  0.90879300  0.30356900  0.00872900  1
  H  300  1  0.92401300  0.28296200  0.09447700  1
  H  301  1  0.95991700  0.28751700  0.04135800  1
  H  302  1  0.94481700  0.22149600  0.03280400  1
  H  303  1  0.90723100  0.22871100  0.04241100  1
  H  304  1  0.87972900  0.32237100  0.06687500  1
  H  305  1  0.86914000  0.24534400  0.05534100  1
  H  306  1  0.83918700  0.26707300  0.06793200  1
  H  312  1  0.96537200  0.29592200  0.13271100  1
  H  313  1  0.91596800  0.31680800  0.97313300  1
  H  314  1  0.84156100  0.32602600  0.07653400  1
  H  315  1  0.98061300  0.25207900  0.01432300  1
  H  340  1  0.96671500  0.67527400  0.72792000  1
  H  341  1  0.96129700  0.65731600  0.76207500  1
  H  342  1  0.95405200  0.64752500  0.80310400  1
  H  343  1  0.94690100  0.64802700  0.84131500  1
  H  344  1  0.90891100  0.70450700  0.83343000  1
  H  345  1  0.92415700  0.72515800  0.74768300  1
  H  346  1  0.96008600  0.72083300  0.80061300  1
  H  347  1  0.94459900  0.78672700  0.80947600  1
  H  348  1  0.90703400  0.77932300  0.79996400  1
  H  349  1  0.87994400  0.68561200  0.77529700  1
  H  350  1  0.86904900  0.76256800  0.78704000  1
  H  351  1  0.83916400  0.74074300  0.77445700  1
  H  357  1  0.96542000  0.71205900  0.70931100  1
  H  358  1  0.91584400  0.69111200  0.86900300  1
  H  359  1  0.84171900  0.68182300  0.76579800  1
  H  360  1  0.98053400  0.75770500  0.82774400  1
  H  385  1  0.95641600  0.80573100  0.59230700  1
  H  386  1  0.95691800  0.84133700  0.57610300  1
  H  387  1  0.95359000  0.88320400  0.56650600  1
  H  388  1  0.94620500  0.92146800  0.56470300  1
  H  389  1  0.90905600  0.91706900  0.62212200  1
  H  390  1  0.91800600  0.82969000  0.64368400  1
  H  391  1  0.95936900  0.87899600  0.64323000  1
  H  392  1  0.94079100  0.88477400  0.70873700  1
  H  393  1  0.90311100  0.88087500  0.69857200  1
  H  394  1  0.87962600  0.86048500  0.60330100  1
  H  395  1  0.86558700  0.87245800  0.67972100  1
  H  396  1  0.83630100  0.86114700  0.65649900  1
  H  402  1  0.92629900  0.78334900  0.62243600  1
  H  403  1  0.90724300  0.94961500  0.59735300  1
  H  404  1  0.84089400  0.85286700  0.59782500  1
  H  405  1  0.97944900  0.87856800  0.69830300  1
  H  430  1  0.95635700  0.20233400  0.24985400  1
  H  431  1  0.95688200  0.16673200  0.26606600  1
  H  432  1  0.95362200  0.12484200  0.27564200  1
  H  433  1  0.94627400  0.08657000  0.27743900  1
  H  434  1  0.90920700  0.09093000  0.21996200  1
  H  435  1  0.91807700  0.17830900  0.19841200  1
  H  436  1  0.95948200  0.12900400  0.19889500  1
  H  437  1  0.94092700  0.12314000  0.13338500  1
  H  438  1  0.90324000  0.12705200  0.14352900  1
  H  439  1  0.87972200  0.14753900  0.23878000  1
  H  440  1  0.86576000  0.13576300  0.16232500  1
  H  441  1  0.83646500  0.14708000  0.18552800  1
  H  447  1  0.92664600  0.22482800  0.21987500  1
  H  448  1  0.90737900  0.05838800  0.24472700  1
  H  449  1  0.84104100  0.15531100  0.24423100  1
  H  450  1  0.97958900  0.12936300  0.14381900  1
  H  475  1  0.95630000  0.33286500  0.72272800  1
  H  476  1  0.95675500  0.34910200  0.75831700  1
  H  477  1  0.95343800  0.35870400  0.80020200  1
  H  478  1  0.94606500  0.36049800  0.83847000  1
  H  479  1  0.90916300  0.30291700  0.83412300  1
  H  480  1  0.91818500  0.28131300  0.74677400  1
  H  481  1  0.95948200  0.28182700  0.79607400  1
  H  482  1  0.94091800  0.21632500  0.80195500  1
  H  483  1  0.90323400  0.22647800  0.79803500  1
  H  484  1  0.87973500  0.32172400  0.77753000  1
  H  485  1  0.86570300  0.24531400  0.78957000  1
  H  486  1  0.83641000  0.26852900  0.77825000  1
  H  492  1  0.92692900  0.30292000  0.70013700  1
  H  493  1  0.90723400  0.32774900  0.86664100  1
  H  494  1  0.84099900  0.32720000  0.76994900  1
  H  495  1  0.97958400  0.22676200  0.79576400  1
  H  520  1  0.95634800  0.67523000  0.11943200  1
  H  521  1  0.95684900  0.65897800  0.08384800  1
  H  522  1  0.95360800  0.64938800  0.04195100  1
  H  523  1  0.94626100  0.64757500  0.00367800  1
  H  524  1  0.90909000  0.70498200  0.00803600  1
  H  525  1  0.91800200  0.72661400  0.09538800  1
  H  526  1  0.95940700  0.72598600  0.04601900  1
  H  527  1  0.94099600  0.79151500  0.03999200  1
  H  528  1  0.90328900  0.78146200  0.04396200  1
  H  529  1  0.87959000  0.68626900  0.06460400  1
  H  530  1  0.86570100  0.76270200  0.05254400  1
  H  531  1  0.83635900  0.73953900  0.06384600  1
  H  537  1  0.92622700  0.70544200  0.14176200  1
  H  538  1  0.90728300  0.68018600  0.97550100  1
  H  539  1  0.84085400  0.68086000  0.07217200  1
  H  540  1  0.97966000  0.78095700  0.04633100  1
  H  565  1  0.11606800  0.20225600  0.59222800  1
  H  566  1  0.11558200  0.16665600  0.57601600  1
  H  567  1  0.11887800  0.12478000  0.56643600  1
  H  568  1  0.12624500  0.08651200  0.56464100  1
  H  569  1  0.16329100  0.09088500  0.62213100  1
  H  570  1  0.15434300  0.17826200  0.64368900  1
  H  571  1  0.11298600  0.12897700  0.64320600  1
  H  572  1  0.13152500  0.12334100  0.70873800  1
  H  573  1  0.16921200  0.12723600  0.69858700  1
  H  574  1  0.19275200  0.14748600  0.60330900  1
  H  575  1  0.20669100  0.13582900  0.67978800  1
  H  576  1  0.23598700  0.14712800  0.65657600  1
  H  582  1  0.14563200  0.22482500  0.62215800  1
  H  583  1  0.16513000  0.05834000  0.59737900  1
  H  584  1  0.23143700  0.15524800  0.59786000  1
  H  585  1  0.09287300  0.12953800  0.69826900  1
  H  610  1  0.11614700  0.80568600  0.24985200  1
  H  611  1  0.11560800  0.84129500  0.26604900  1
  H  612  1  0.11892700  0.88316400  0.27566100  1
  H  613  1  0.12629200  0.92143100  0.27746800  1
  H  614  1  0.16337200  0.91707100  0.22000000  1
  H  615  1  0.15447800  0.82969000  0.19843600  1
  H  616  1  0.11307600  0.87896200  0.19885800  1
  H  617  1  0.13169300  0.88485300  0.13337300  1
  H  618  1  0.16937400  0.88098000  0.14355800  1
  H  619  1  0.19281000  0.86049400  0.23882500  1
  H  620  1  0.20688800  0.87253200  0.16242200  1
  H  621  1  0.23616600  0.86121700  0.18565200  1
  H  627  1  0.14636000  0.78338700  0.21965200  1
  H  628  1  0.16520300  0.94960700  0.24478700  1
  H  629  1  0.23154300  0.85289100  0.24431700  1
  H  630  1  0.09302600  0.87861200  0.14378600  1
  H  655  1  0.11609700  0.67528500  0.72269900  1
  H  656  1  0.11553700  0.65906600  0.75830100  1
  H  657  1  0.11882000  0.64944900  0.80018600  1
  H  658  1  0.12617700  0.64762900  0.83845600  1
  H  659  1  0.16337200  0.70502300  0.83409400  1
  H  660  1  0.15453700  0.72661100  0.74671900  1
  H  661  1  0.11306500  0.72608300  0.79603000  1
  H  662  1  0.13155500  0.79159700  0.80202100  1
  H  663  1  0.16925600  0.78149100  0.79811800  1
  H  664  1  0.19284600  0.68627300  0.77750900  1
  H  665  1  0.20679700  0.76270500  0.78946900  1
  H  666  1  0.23610600  0.73951900  0.77814300  1
  H  672  1  0.14659200  0.70561300  0.70050600  1
  H  673  1  0.16515900  0.68023200  0.86663100  1
  H  674  1  0.23156500  0.68083100  0.76986500  1
  H  675  1  0.09289300  0.78110900  0.79571200  1
  H  700  1  0.11607600  0.33274200  0.11931400  1
  H  701  1  0.11561100  0.34898400  0.08372700  1
  H  702  1  0.11894500  0.35861100  0.04186100  1
  H  703  1  0.12632800  0.36043300  0.00359600  1
  H  704  1  0.16333000  0.30291700  0.00793400  1
  H  705  1  0.15430400  0.28126500  0.09527900  1
  H  706  1  0.11300100  0.28177000  0.04604800  1
  H  707  1  0.13157300  0.21625100  0.04038700  1
  H  708  1  0.16925600  0.22642500  0.04424400  1
  H  709  1  0.19274300  0.32170600  0.06451600  1
  H  710  1  0.20675500  0.24526100  0.05269400  1
  H  711  1  0.23603500  0.26848200  0.06401800  1
  H  717  1  0.14564500  0.30273900  0.14185300  1
  H  718  1  0.16520800  0.32773100  0.97541400  1
  H  719  1  0.23145900  0.32717900  0.07218400  1
  H  720  1  0.09291000  0.22670600  0.04656800  1
  H  745  1  0.60955600  0.69721500  0.75142400  1
  H  746  1  0.61496100  0.66287900  0.76904600  1
  H  747  1  0.62205700  0.62171900  0.77848900  1
  H  748  1  0.62858700  0.58340000  0.77752000  1
  H  749  1  0.66484200  0.59108800  0.71989500  1
  H  750  1  0.65052900  0.67719700  0.70040200  1
  H  751  1  0.61386500  0.62408600  0.70594700  1
  H  752  1  0.62582200  0.61817200  0.63901800  1
  H  753  1  0.66374700  0.62743700  0.64489000  1
  H  754  1  0.69583700  0.64710300  0.73836800  1
  H  755  1  0.70287900  0.63912300  0.66045200  1
  H  756  1  0.73410900  0.64984800  0.68159900  1
  H  762  1  0.61014400  0.71587400  0.71448500  1
  H  763  1  0.65773900  0.55554300  0.73325700  1
  H  764  1  0.73694900  0.64922600  0.73966100  1
  H  765  1  0.59106700  0.59904000  0.67458100  1
  H  790  1  0.60978600  0.31058800  0.09046000  1
  H  791  1  0.61516000  0.34495300  0.07287500  1
  H  792  1  0.62206200  0.38621200  0.06356800  1
  H  793  1  0.62859000  0.42452100  0.06453200  1
  H  794  1  0.66473300  0.41685200  0.12223100  1
  H  795  1  0.65043600  0.33073600  0.14169800  1
  H  796  1  0.61376700  0.38392900  0.13610900  1
  H  797  1  0.62560400  0.38968700  0.20307500  1
  H  798  1  0.66353100  0.38038900  0.19725300  1
  H  799  1  0.69574400  0.36081000  0.10380100  1
  H  800  1  0.70265300  0.36860200  0.18174400  1
  H  801  1  0.73390100  0.35785900  0.16063500  1
  H  807  1  0.61029100  0.29181800  0.12730400  1
  H  808  1  0.65761600  0.45239600  0.10886100  1
  H  809  1  0.73683100  0.35858300  0.10255600  1
  H  810  1  0.59089300  0.40886300  0.16729700  1
  H  835  1  0.60993100  0.17331400  0.61445100  1
  H  836  1  0.61532500  0.15573700  0.58008400  1
  H  837  1  0.62237000  0.14634000  0.53881800  1
  H  838  1  0.62890600  0.14731300  0.50050100  1
  H  839  1  0.66471000  0.20523000  0.50812400  1
  H  840  1  0.65038300  0.22468300  0.59423300  1
  H  841  1  0.61372000  0.21919600  0.54113100  1
  H  842  1  0.62572300  0.28611100  0.53513900  1
  H  843  1  0.66364900  0.28022200  0.54439100  1
  H  844  1  0.69566800  0.18674500  0.56416800  1
  H  845  1  0.70275600  0.26465300  0.55615100  1
  H  846  1  0.73396600  0.24349700  0.56691300  1
  H  852  1  0.61039200  0.21016200  0.63324700  1
  H  853  1  0.65787300  0.19168500  0.47260100  1
  H  854  1  0.73677100  0.18542500  0.56632300  1
  H  855  1  0.59099500  0.25081500  0.51597600  1
  H  880  1  0.60980200  0.83451500  0.22765300  1
  H  881  1  0.61519600  0.85212100  0.26200200  1
  H  882  1  0.62202000  0.86139900  0.30325300  1
  H  883  1  0.62852800  0.86044800  0.34157100  1
  H  884  1  0.66478000  0.80281900  0.33391900  1
  H  885  1  0.65046900  0.78329300  0.24781200  1
  H  886  1  0.61383300  0.78888800  0.30103400  1
  H  887  1  0.62575900  0.72195800  0.30699600  1
  H  888  1  0.66367600  0.72779900  0.29767800  1
  H  889  1  0.69578000  0.82123700  0.27784900  1
  H  890  1  0.70279800  0.74332800  0.28591100  1
  H  891  1  0.73402600  0.76444800  0.27513200  1
  H  897  1  0.61028600  0.79759900  0.20894100  1
  H  898  1  0.65767300  0.81620000  0.36945500  1
  H  899  1  0.73688500  0.82251700  0.27568600  1
  H  900  1  0.59104400  0.75765700  0.32608800  1
  H  925  1  0.46263500  0.31062700  0.75167900  1
  H  926  1  0.45726900  0.34499500  0.76926400  1
  H  927  1  0.45035100  0.38625700  0.77859200  1
  H  928  1  0.44381900  0.42457100  0.77763900  1
  H  929  1  0.40773400  0.41693000  0.71990500  1
  H  930  1  0.42203400  0.33081000  0.70040800  1
  H  931  1  0.45870000  0.38402700  0.70602000  1
  H  932  1  0.44690200  0.38968300  0.63903900  1
  H  933  1  0.40897700  0.38037400  0.64485300  1
  H  934  1  0.37672300  0.36088100  0.73831000  1
  H  935  1  0.36984000  0.36862500  0.66036000  1
  H  936  1  0.33858800  0.35788400  0.68146500  1
  H  942  1  0.46214500  0.29184500  0.71483100  1
  H  943  1  0.41478600  0.45245900  0.73332000  1
  H  944  1  0.33565000  0.35863200  0.73955200  1
  H  945  1  0.48160700  0.40889000  0.67488300  1
  H  970  1  0.46267500  0.69733100  0.09052000  1
  H  971  1  0.45726600  0.66297100  0.07293300  1
  H  972  1  0.45013900  0.62177100  0.06347900  1
  H  973  1  0.44360000  0.58345200  0.06446300  1
  H  974  1  0.40764000  0.59111900  0.12228000  1
  H  975  1  0.42196200  0.67724000  0.14172000  1
  H  976  1  0.45863600  0.62415800  0.13623500  1
  H  977  1  0.44664700  0.61820300  0.20315500  1
  H  978  1  0.40871700  0.62743500  0.19726800  1
  H  979  1  0.37665300  0.64708400  0.10377700  1
  H  980  1  0.36958600  0.63910700  0.18169100  1
  H  981  1  0.33835500  0.64979800  0.16053000  1
  H  987  1  0.46217100  0.71602900  0.12745200  1
  H  988  1  0.41454900  0.55558500  0.10879800  1
  H  989  1  0.33554100  0.64917600  0.10246400  1
  H  990  1  0.48139800  0.59911300  0.16758400  1
  H  1015  1  0.46259000  0.83457800  0.61443300  1
  H  1016  1  0.45722400  0.85214100  0.58005700  1
  H  1017  1  0.45029400  0.86145700  0.53881800  1
  H  1018  1  0.44375400  0.86051100  0.50050600  1
  H  1019  1  0.40767200  0.80276900  0.50815500  1
  H  1020  1  0.42197800  0.78330600  0.59429400  1
  H  1021  1  0.45864300  0.78884500  0.54108900  1
  H  1022  1  0.44673300  0.72190000  0.53523700  1
  H  1023  1  0.40881000  0.72775100  0.54452600  1
  H  1024  1  0.37668400  0.82120800  0.56421500  1
  H  1025  1  0.36969500  0.74328200  0.55628900  1
  H  1026  1  0.33846500  0.76440600  0.56705600  1
  H  1032  1  0.46212600  0.79765900  0.63315700  1
  H  1033  1  0.41469400  0.81620500  0.47261600  1
  H  1034  1  0.33558200  0.82248000  0.56641500  1
  H  1035  1  0.48144700  0.75757000  0.51609400  1
  H  1060  1  0.46258800  0.17340700  0.22767900  1
  H  1061  1  0.45722400  0.15583900  0.26205900  1
  H  1062  1  0.45021900  0.14645900  0.30332800  1
  H  1063  1  0.44360500  0.14737800  0.34163400  1
  H  1064  1  0.40770300  0.20522800  0.33400000  1
  H  1065  1  0.42210700  0.22476000  0.24789300  1
  H  1066  1  0.45875200  0.21927300  0.30103900  1
  H  1067  1  0.44673100  0.28619800  0.30690700  1
  H  1068  1  0.40881600  0.28028800  0.29763000  1
  H  1069  1  0.37681400  0.18678600  0.27797300  1
  H  1070  1  0.36971800  0.26469800  0.28590800  1
  H  1071  1  0.33851600  0.24353200  0.27515100  1
  H  1077  1  0.46215300  0.21027500  0.20890100  1
  H  1078  1  0.41447900  0.19165800  0.36951600  1
  H  1079  1  0.33571700  0.18545400  0.27577900  1
  H  1080  1  0.48149100  0.25079000  0.32611500  1
  H  1105  1  0.45308500  0.30501500  0.09218400  1
  H  1106  1  0.45383100  0.34072200  0.07622400  1
  H  1107  1  0.45074500  0.38264100  0.06682200  1
  H  1108  1  0.44359600  0.42095600  0.06519400  1
  H  1109  1  0.40827800  0.41690700  0.12377100  1
  H  1110  1  0.41653800  0.32929600  0.14472800  1
  H  1111  1  0.45854000  0.37821400  0.14408900  1
  H  1112  1  0.44086200  0.38331400  0.20990700  1
  H  1113  1  0.40304100  0.37976900  0.20020400  1
  H  1114  1  0.37767600  0.36183800  0.10485600  1
  H  1115  1  0.36522700  0.37197000  0.18185200  1
  H  1116  1  0.33525600  0.36198000  0.15874000  1
  H  1122  1  0.42379500  0.28278600  0.12259300  1
  H  1123  1  0.40579600  0.44933200  0.09897100  1
  H  1124  1  0.33631700  0.36069200  0.10080200  1
  H  1125  1  0.47926800  0.37729400  0.19904700  1
  H  1150  1  0.45299300  0.70304600  0.75002600  1
  H  1151  1  0.45377000  0.66734100  0.76598800  1
  H  1152  1  0.45075000  0.62540300  0.77537300  1
  H  1153  1  0.44364400  0.58708100  0.77698900  1
  H  1154  1  0.40844300  0.59108500  0.71833900  1
  H  1155  1  0.41659800  0.67869800  0.69740900  1
  H  1156  1  0.45866400  0.62979900  0.69807500  1
  H  1157  1  0.44102700  0.62463000  0.63224600  1
  H  1158  1  0.40319400  0.62817300  0.64192300  1
  H  1159  1  0.37776200  0.64614900  0.73724900  1
  H  1160  1  0.36540900  0.63622200  0.66021800  1
  H  1161  1  0.33541900  0.64619600  0.68331000  1
  H  1167  1  0.42404400  0.72536000  0.71972600  1
  H  1168  1  0.40593400  0.55866800  0.74314400  1
  H  1169  1  0.33641900  0.64736600  0.74127600  1
  H  1170  1  0.47942700  0.63069600  0.64312200  1
  H  1195  1  0.45298200  0.83296500  0.22204000  1
  H  1196  1  0.45370700  0.84895100  0.25773700  1
  H  1197  1  0.45064300  0.85835500  0.29967200  1
  H  1198  1  0.44351200  0.85997400  0.33799000  1
  H  1199  1  0.40838800  0.80128000  0.33398700  1
  H  1200  1  0.41666800  0.78029700  0.24639900  1
  H  1201  1  0.45863900  0.78096700  0.29529900  1
  H  1202  1  0.44095800  0.71515500  0.30049000  1
  H  1203  1  0.40313400  0.72485900  0.29694000  1
  H  1204  1  0.37777500  0.82019100  0.27891100  1
  H  1205  1  0.36532500  0.74320200  0.28908600  1
  H  1206  1  0.33535400  0.76631000  0.27908500  1
  H  1212  1  0.42425600  0.80269800  0.19965500  1
  H  1213  1  0.40581700  0.82613500  0.36638600  1
  H  1214  1  0.33641900  0.82424900  0.27778700  1
  H  1215  1  0.47937000  0.72601000  0.29446600  1
  H  1240  1  0.45301600  0.17516400  0.62010500  1
  H  1241  1  0.45378300  0.15918200  0.58440400  1
  H  1242  1  0.45076600  0.14978500  0.54247300  1
  H  1243  1  0.44364300  0.14814200  0.50415400  1
  H  1244  1  0.40830500  0.20671000  0.50816400  1
  H  1245  1  0.41650700  0.22770700  0.59576500  1
  H  1246  1  0.45854800  0.22703500  0.54680700  1
  H  1247  1  0.44086400  0.29283300  0.54146400  1
  H  1248  1  0.40304300  0.28314200  0.54506100  1
  H  1249  1  0.37766300  0.18783300  0.56322900  1
  H  1250  1  0.36523700  0.26482100  0.55300300  1
  H  1251  1  0.33525300  0.24172300  0.56299000  1
  H  1257  1  0.42363500  0.20566600  0.64226700  1
  H  1258  1  0.40583000  0.18188600  0.47575400  1
  H  1259  1  0.33629900  0.18378800  0.56433800  1
  H  1260  1  0.47927300  0.28198800  0.54756300  1
  H  1285  1  0.61939200  0.70295700  0.09208900  1
  H  1286  1  0.61865800  0.66725200  0.07612400  1
  H  1287  1  0.62171200  0.62532700  0.06674100  1
  H  1288  1  0.62884400  0.58701000  0.06512400  1
  H  1289  1  0.66406800  0.59103900  0.12375800  1
  H  1290  1  0.65582200  0.67865000  0.14470100  1
  H  1291  1  0.61381600  0.62976000  0.14405100  1
  H  1292  1  0.63146800  0.62482200  0.20989000  1
  H  1293  1  0.66929400  0.62835700  0.20019300  1
  H  1294  1  0.69470300  0.64611400  0.10483600  1
  H  1295  1  0.70706600  0.63630800  0.18188100  1
  H  1296  1  0.73704500  0.64627700  0.15877600  1
  H  1302  1  0.64823700  0.72533700  0.12233600  1
  H  1303  1  0.66656700  0.55861200  0.09897500  1
  H  1304  1  0.73602500  0.64740200  0.10079600  1
  H  1305  1  0.59307100  0.63084000  0.19900200  1
  H  1330  1  0.61945800  0.30494600  0.74990100  1
  H  1331  1  0.61866600  0.34065300  0.76586600  1
  H  1332  1  0.62172700  0.38257800  0.77528600  1
  H  1333  1  0.62885400  0.42089500  0.77692300  1
  H  1334  1  0.66415800  0.41688600  0.71833400  1
  H  1335  1  0.65597000  0.32927800  0.69735800  1
  H  1336  1  0.61392400  0.37817000  0.69797500  1
  H  1337  1  0.63164400  0.38340800  0.63218000  1
  H  1338  1  0.66946700  0.37987700  0.64190500  1
  H  1339  1  0.69477000  0.36182200  0.73724900  1
  H  1340  1  0.70727100  0.37204100  0.66027300  1
  H  1341  1  0.73723000  0.36204500  0.68339700  1
  H  1347  1  0.64891300  0.28282100  0.71941900  1
  H  1348  1  0.66666667  0.44930000  0.74315300  1
  H  1349  1  0.73613100  0.36069500  0.74133200  1
  H  1350  1  0.59322500  0.37736200  0.64301200  1
  H  1375  1  0.61949000  0.17512200  0.22201400  1
  H  1376  1  0.61868900  0.15916400  0.25772400  1
  H  1377  1  0.62172800  0.14975600  0.29965200  1
  H  1378  1  0.62885400  0.14811800  0.33797100  1
  H  1379  1  0.66414500  0.20671500  0.33396400  1
  H  1380  1  0.65600300  0.22766600  0.24634600  1
  H  1381  1  0.61390300  0.22701700  0.29525200  1
  H  1382  1  0.63156100  0.29283200  0.30052700  1
  H  1383  1  0.66939200  0.28314600  0.29699400  1
  H  1384  1  0.69479100  0.18782800  0.27890100  1
  H  1385  1  0.70719500  0.26483200  0.28899900  1
  H  1386  1  0.73717700  0.24173900  0.27900800  1
  H  1392  1  0.64910400  0.20573500  0.19995700  1
  H  1393  1  0.66666667  0.18189200  0.36637600  1
  H  1394  1  0.73615700  0.18378900  0.27775400  1
  H  1395  1  0.59315900  0.28197200  0.29441400  1
  H  1420  1  0.61938100  0.83285400  0.62000600  1
  H  1421  1  0.61865900  0.84885100  0.58431600  1
  H  1422  1  0.62174500  0.85828200  0.54239900  1
  H  1423  1  0.62888800  0.85992900  0.50408300  1
  H  1424  1  0.66409900  0.80128300  0.50807500  1
  H  1425  1  0.65579400  0.78025000  0.59565700  1
  H  1426  1  0.61383100  0.78092500  0.54681900  1
  H  1427  1  0.63150900  0.71509700  0.54184600  1
  H  1428  1  0.66933300  0.72481600  0.54534300  1
  H  1429  1  0.69469400  0.82017300  0.56313800  1
  H  1430  1  0.70712300  0.74315800  0.55315800  1
  H  1431  1  0.73708700  0.76627100  0.56315800  1
  H  1437  1  0.64824400  0.80254600  0.64236000  1
  H  1438  1  0.66666667  0.82612500  0.47567500  1
  H  1439  1  0.73604000  0.82422700  0.56434300  1
  H  1440  1  0.59310200  0.72597500  0.54785300  1
  H  1447  1  0.10536500  0.98674500  0.26437500  1
  H  1451  1  0.18212400  0.04432100  0.27519500  1
  H  1452  1  0.20561300  0.04129600  0.26209900  1
  H  1461  1  0.10533300  0.02119800  0.57768100  1
  H  1465  1  0.18214200  0.96373100  0.56690100  1
  H  1466  1  0.20565300  0.96684200  0.57993700  1
  H  1475  1  0.10529300  0.66077800  0.90379300  1
  H  1479  1  0.18205500  0.64984600  0.96133200  1
  H  1480  1  0.20558500  0.66286100  0.95826800  1
  H  1489  1  0.10537200  0.34734700  0.93827700  1
  H  1493  1  0.18212900  0.35809300  0.88067500  1
  H  1494  1  0.20561900  0.34500800  0.88372900  1
  H  1503  1  0.96716400  0.02123300  0.26442900  1
  H  1507  1  0.89035600  0.96371100  0.27518700  1
  H  1508  1  0.86688400  0.96674600  0.26206700  1
  H  1517  1  0.96707000  0.98679400  0.57781600  1
  H  1521  1  0.89026000  0.04419800  0.56678000  1
  H  1522  1  0.86670900  0.04108000  0.57974500  1
  H  1531  1  0.96704700  0.34736500  0.90381200  1
  H  1535  1  0.89024500  0.35810900  0.96133800  1
  H  1536  1  0.86675300  0.34502600  0.95827700  1
  H  1545  1  0.96715100  0.66076400  0.93833000  1
  H  1549  1  0.89039200  0.64976000  0.88080200  1
  H  1550  1  0.86685400  0.66275800  0.88387100  1
  H  1559  1  0.60747300  0.48635900  0.76470700  1
  H  1563  1  0.68458900  0.54376900  0.77414100  1
  H  1564  1  0.70778300  0.54073200  0.76054500  1
  H  1573  1  0.60746100  0.52155500  0.07728300  1
  H  1577  1  0.68463000  0.46425200  0.06793300  1
  H  1578  1  0.70784000  0.46737200  0.08148400  1
  H  1587  1  0.60750500  0.16030100  0.40346000  1
  H  1591  1  0.68468200  0.15079600  0.46076800  1
  H  1592  1  0.70789300  0.16435400  0.45769700  1
  H  1601  1  0.60747900  0.84772900  0.43861900  1
  H  1605  1  0.68460300  0.85707100  0.38119300  1
  H  1606  1  0.70779400  0.84347700  0.38426000  1
  H  1615  1  0.46502500  0.52160100  0.76485400  1
  H  1619  1  0.38785600  0.46423900  0.77417000  1
  H  1620  1  0.36468900  0.46728700  0.76053000  1
  H  1629  1  0.46494100  0.48642400  0.07744900  1
  H  1633  1  0.38777200  0.54366400  0.06781000  1
  H  1634  1  0.36451700  0.54053700  0.08128200  1
  H  1643  1  0.46494500  0.84772100  0.40347600  1
  H  1647  1  0.38778100  0.85708100  0.46082800  1
  H  1648  1  0.36458700  0.84349400  0.45775400  1
  H  1657  1  0.46498100  0.16039000  0.43866400  1
  H  1661  1  0.38783100  0.15073800  0.38134600  1
  H  1662  1  0.36459300  0.16425100  0.38442600  1
  H  1671  1  0.29826800  0.21914600  0.22344500  1
  H  1675  1  0.26820100  0.12803800  0.23072700  1
  H  1676  1  0.26730000  0.11426300  0.25378500  1
  H  1685  1  0.29821700  0.78877200  0.61879700  1
  H  1689  1  0.26812800  0.87983700  0.61143700  1
  H  1690  1  0.26732300  0.89362200  0.58838400  1
  H  1699  1  0.29805400  0.70149900  0.13613200  1
  H  1703  1  0.26804500  0.69415200  0.04503900  1
  H  1704  1  0.26719400  0.67110400  0.03124700  1
  H  1713  1  0.29827100  0.30623300  0.70589200  1
  H  1717  1  0.26814200  0.31363500  0.79696200  1
  H  1718  1  0.26726600  0.33670400  0.81071800  1
  H  1727  1  0.77426900  0.78879000  0.22333200  1
  H  1731  1  0.80444200  0.87986800  0.23063200  1
  H  1732  1  0.80536400  0.89363200  0.25369300  1
  H  1741  1  0.77421700  0.21911800  0.61866100  1
  H  1745  1  0.80415900  0.12800900  0.61135900  1
  H  1746  1  0.80494000  0.11420300  0.58831600  1
  H  1755  1  0.77421600  0.30619700  0.13623100  1
  H  1759  1  0.80432100  0.31359700  0.04515900  1
  H  1760  1  0.80519600  0.33666000  0.03139100  1
  H  1769  1  0.77436700  0.70159900  0.70599900  1
  H  1773  1  0.80446300  0.69423800  0.79707500  1
  H  1774  1  0.80534000  0.67117700  0.81084400  1
  H  1783  1  0.77465100  0.79087700  0.61600600  1
  H  1787  1  0.80279500  0.88266400  0.60992900  1
  H  1788  1  0.80368400  0.89668400  0.58702000  1
  H  1797  1  0.77471200  0.21716000  0.22606600  1
  H  1801  1  0.80283100  0.12539900  0.23217800  1
  H  1802  1  0.80361900  0.11135900  0.25508000  1
  H  1811  1  0.77478100  0.30909000  0.70792900  1
  H  1815  1  0.80285000  0.31503900  0.79973200  1
  H  1816  1  0.80367800  0.33791500  0.81381200  1
  H  1825  1  0.77462800  0.69906500  0.13415000  1
  H  1829  1  0.80277100  0.69299800  0.04236400  1
  H  1830  1  0.80361400  0.67009500  0.02833000  1
  H  1839  1  0.29771100  0.21719200  0.61598300  1
  H  1843  1  0.26953500  0.12540800  0.60997600  1
  H  1844  1  0.26863800  0.11137200  0.58707600  1
  H  1853  1  0.29778600  0.79089700  0.22614100  1
  H  1857  1  0.26978600  0.88268800  0.23222700  1
  H  1858  1  0.26902700  0.89674300  0.25512000  1
  H  1867  1  0.29782100  0.69903300  0.70792300  1
  H  1871  1  0.26969500  0.69292200  0.79970000  1
  H  1872  1  0.26884600  0.67001900  0.81373300  1
  H  1881  1  0.29771200  0.30903800  0.13418000  1
  H  1885  1  0.26956500  0.31505800  0.04239800  1
  H  1886  1  0.26871700  0.33795200  0.02834900  1
  H  1895  1  0.09555600  0.25547000  0.15255700  1
  H  1899  1  0.17402400  0.20827400  0.18551200  1
  H  1900  1  0.19784200  0.22013000  0.19010800  1
  H  1909  1  0.09537500  0.75205200  0.68905900  1
  H  1913  1  0.17382400  0.79984800  0.65711700  1
  H  1914  1  0.19778200  0.78818600  0.65273900  1
  H  1923  1  0.09550900  0.77215400  0.17292300  1
  H  1927  1  0.17394300  0.73985300  0.12528000  1
  H  1928  1  0.19786700  0.73539100  0.13698200  1
  H  1937  1  0.09558800  0.23562200  0.66940600  1
  H  1941  1  0.17400800  0.26828000  0.71683900  1
  H  1942  1  0.19789100  0.27276700  0.70507000  1
  H  1951  1  0.97699500  0.75219000  0.15291600  1
  H  1955  1  0.89855000  0.79986300  0.18529400  1
  H  1956  1  0.87465300  0.78812500  0.18977400  1
  H  1965  1  0.97681800  0.25559000  0.68944200  1
  H  1969  1  0.89838700  0.20829700  0.65679700  1
  H  1970  1  0.87450800  0.22007500  0.65229700  1
  H  1979  1  0.97682800  0.23569400  0.17269900  1
  H  1983  1  0.89840400  0.26833400  0.12532400  1
  H  1984  1  0.87452100  0.27286200  0.13708300  1
  H  1993  1  0.97702600  0.77217500  0.66923100  1
  H  1997  1  0.89859700  0.73988100  0.71694200  1
  H  1998  1  0.87467200  0.73546100  0.70523300  1
  H  2007  1  0.59815500  0.75568400  0.65401600  1
  H  2011  1  0.67660800  0.70784500  0.68604200  1
  H  2012  1  0.70061800  0.71947400  0.69021600  1
  H  2021  1  0.59804400  0.25188500  0.18767000  1
  H  2025  1  0.67645300  0.30023400  0.15651200  1
  H  2026  1  0.70058200  0.28877800  0.15252500  1
  H  2035  1  0.59814300  0.27063100  0.67306700  1
  H  2039  1  0.67654500  0.23922500  0.62481400  1
  H  2040  1  0.70065700  0.23519600  0.63628500  1
  H  2049  1  0.59818400  0.73711200  0.16915200  1
  H  2053  1  0.67656900  0.76881700  0.21726300  1
  H  2054  1  0.70065100  0.77286900  0.20573800  1
  H  2063  1  0.47437400  0.25202200  0.65436300  1
  H  2067  1  0.39596000  0.30029200  0.68588800  1
  H  2068  1  0.37187800  0.28877300  0.68995200  1
  H  2077  1  0.47422300  0.75583200  0.18795600  1
  H  2081  1  0.39581800  0.70785500  0.15629100  1
  H  2082  1  0.37174300  0.71939300  0.15221900  1
  H  2091  1  0.47420100  0.73715900  0.67295100  1
  H  2095  1  0.39581300  0.76888300  0.62492000  1
  H  2096  1  0.37173800  0.77299200  0.63644500  1
  H  2105  1  0.47438700  0.27071200  0.16905500  1
  H  2109  1  0.39599700  0.23928600  0.21737500  1
  H  2110  1  0.37188600  0.23528600  0.20589300  1
  H  2119  1  0.05066400  0.14657200  0.14200100  1
  H  2123  1  0.99182400  0.08141900  0.18663500  1
  H  2124  1  0.99784000  0.07174400  0.21092700  1
  H  2133  1  0.05053100  0.86145900  0.70022100  1
  H  2137  1  0.99187600  0.92665000  0.65557400  1
  H  2138  1  0.99789400  0.93634800  0.63128700  1
  H  2147  1  0.05076400  0.78192900  0.06396300  1
  H  2151  1  0.99180200  0.73864800  0.99803000  1
  H  2152  1  0.99763800  0.71443200  0.98805000  1
  H  2161  1  0.05065400  0.22491200  0.77863100  1
  H  2165  1  0.99179200  0.26964100  0.84370400  1
  H  2166  1  0.99783200  0.29392800  0.85337600  1
  H  2175  1  0.02193700  0.86151500  0.14185000  1
  H  2179  1  0.08075200  0.92657100  0.18665300  1
  H  2180  1  0.07472500  0.93619400  0.21096200  1
  H  2189  1  0.02180100  0.14669400  0.70007500  1
  H  2193  1  0.08047700  0.08133900  0.65569000  1
  H  2194  1  0.07446800  0.07155500  0.63143600  1
  H  2203  1  0.02182300  0.22492700  0.06366900  1
  H  2207  1  0.08064000  0.26934000  0.99839800  1
  H  2208  1  0.07464800  0.29360000  0.98862300  1
  H  2217  1  0.02183000  0.78256600  0.77827900  1
  H  2221  1  0.08072600  0.73848600  0.84377800  1
  H  2222  1  0.07473800  0.71425000  0.85360800  1
  H  2231  1  0.55048000  0.64664500  0.64048400  1
  H  2235  1  0.49142300  0.58303900  0.68683900  1
  H  2236  1  0.49739700  0.57388400  0.71134200  1
  H  2245  1  0.55033800  0.36148000  0.20180900  1
  H  2249  1  0.49144900  0.42499500  0.15528300  1
  H  2250  1  0.49741500  0.43409900  0.13075500  1
  H  2259  1  0.55030900  0.28453700  0.56366900  1
  H  2263  1  0.49136500  0.23836500  0.49987100  1
  H  2264  1  0.49732900  0.21388400  0.49064400  1
  H  2273  1  0.55042500  0.72326100  0.27864600  1
  H  2277  1  0.49136300  0.76989400  0.34204600  1
  H  2278  1  0.49736300  0.79441600  0.35113000  1
  H  2287  1  0.52213900  0.36157200  0.64023100  1
  H  2291  1  0.58120500  0.42489000  0.68696700  1
  H  2292  1  0.57524300  0.43388700  0.71153100  1
  H  2301  1  0.52202000  0.64670300  0.20170100  1
  H  2305  1  0.58089500  0.58298200  0.15543800  1
  H  2306  1  0.57491700  0.57376400  0.13095700  1
  H  2315  1  0.52203300  0.72330300  0.56365500  1
  H  2319  1  0.58105300  0.76963700  0.50005500  1
  H  2320  1  0.57510400  0.79414000  0.49087600  1
  H  2329  1  0.52212900  0.28459700  0.27839400  1
  H  2333  1  0.58114600  0.23828700  0.34207200  1
  H  2334  1  0.57513000  0.21381700  0.35128800  1
  C  1  1  0.17819500  0.13959300  0.21055200  1
  C  2  1  0.18090200  0.13634900  0.18832900  1
  C  3  1  0.16081000  0.13012800  0.17942100  1
  C  4  1  0.14541400  0.12975600  0.19604700  1
  C  5  1  0.12341000  0.12455700  0.19205800  1
  C  6  1  0.11657600  0.11950000  0.17089100  1
  C  7  1  0.13222300  0.11967400  0.15404000  1
  C  8  1  0.15423600  0.12515700  0.15817900  1
  C  9  1  0.20130900  0.14030000  0.17874300  1
  C  10  1  0.21876000  0.14778600  0.19163800  1
  C  11  1  0.21625800  0.15146100  0.21418300  1
  C  12  1  0.19557000  0.14705500  0.22347400  1
  C  13  1  0.14450900  0.15550800  0.22564000  1
  C  14  1  0.13373900  0.15087100  0.24497700  1
  C  15  1  0.13758000  0.12912000  0.25009300  1
  C  16  1  0.15091700  0.12017500  0.23407700  1
  C  17  1  0.12864300  0.11573400  0.26619000  1
  C  18  1  0.13275700  0.09327600  0.26562000  1
  C  19  1  0.14571200  0.08381700  0.24908900  1
  C  20  1  0.15502800  0.09778800  0.23344600  1
  C  21  1  0.14155100  0.17536600  0.21495100  1
  C  22  1  0.12722400  0.19108900  0.22354800  1
  C  23  1  0.11647900  0.18630100  0.24330500  1
  C  24  1  0.11972100  0.16640900  0.25407700  1
  C  37  1  0.15524400  0.13611400  0.21686000  1
  C  38  1  0.14843400  0.06149700  0.24677500  1
  C  39  1  0.12186000  0.20939200  0.21155300  1
  C  40  1  0.23312800  0.15931100  0.22728000  1
  C  41  1  0.09526700  0.11296000  0.16773600  1
  C  46  1  0.17809500  0.86837500  0.63159100  1
  C  47  1  0.18077000  0.87156700  0.65382700  1
  C  48  1  0.16066200  0.87775800  0.66272200  1
  C  49  1  0.14529900  0.87820200  0.64606700  1
  C  50  1  0.12329800  0.88343200  0.65002700  1
  C  51  1  0.11644000  0.88846400  0.67119100  1
  C  52  1  0.13205000  0.88821900  0.68807400  1
  C  53  1  0.15406300  0.88271700  0.68395900  1
  C  54  1  0.20113300  0.86749500  0.66345200  1
  C  55  1  0.21858900  0.85998200  0.65057600  1
  C  56  1  0.21612100  0.85635800  0.62802000  1
  C  57  1  0.19546100  0.86083300  0.61870200  1
  C  58  1  0.14441500  0.85245400  0.61648200  1
  C  59  1  0.13364100  0.85710500  0.59715100  1
  C  60  1  0.13756000  0.87882800  0.59198700  1
  C  61  1  0.15085800  0.88778000  0.60803100  1
  C  62  1  0.12866200  0.89221400  0.57586800  1
  C  63  1  0.13276700  0.91467300  0.57644900  1
  C  64  1  0.14567900  0.92413500  0.59301100  1
  C  65  1  0.15499400  0.91016300  0.60865400  1
  C  66  1  0.14147800  0.83257800  0.62714000  1
  C  67  1  0.12723400  0.81681700  0.61847400  1
  C  68  1  0.11656900  0.82158100  0.59867100  1
  C  69  1  0.11976300  0.84150700  0.58794600  1
  C  82  1  0.15514900  0.87184700  0.62526600  1
  C  83  1  0.14837000  0.94645500  0.59534200  1
  C  84  1  0.12189100  0.79847400  0.63042200  1
  C  85  1  0.23298700  0.84847500  0.61493900  1
  C  86  1  0.09513600  0.89503000  0.67431500  1
  C  91  1  0.17803500  0.71460200  0.05656000  1
  C  92  1  0.18090100  0.73677800  0.05316100  1
  C  93  1  0.16085800  0.74579800  0.04696700  1
  C  94  1  0.14531200  0.72930500  0.04677600  1
  C  95  1  0.12330800  0.73347800  0.04170800  1
  C  96  1  0.11664900  0.75468300  0.03654300  1
  C  97  1  0.13248700  0.77135900  0.03642900  1
  C  98  1  0.15448000  0.76705700  0.04184100  1
  C  99  1  0.20135800  0.74626900  0.05707400  1
  C  100  1  0.21873800  0.73330700  0.06460300  1
  C  101  1  0.21609900  0.71079800  0.06839500  1
  C  102  1  0.19534300  0.70161100  0.06406500  1
  C  103  1  0.14426000  0.69966100  0.07248700  1
  C  104  1  0.13364200  0.68022500  0.06790500  1
  C  105  1  0.13744800  0.67513000  0.04614800  1
  C  106  1  0.15061300  0.69125500  0.03716200  1
  C  107  1  0.12863200  0.65895700  0.03277600  1
  C  108  1  0.13277500  0.65950500  0.01032200  1
  C  109  1  0.14564500  0.67609200  0.00084300  1
  C  110  1  0.15482600  0.69183400  0.01479300  1
  C  111  1  0.14140700  0.71026400  0.09240300  1
  C  112  1  0.12724800  0.70153600  0.10820600  1
  C  113  1  0.11659100  0.68172800  0.10344400  1
  C  114  1  0.11975800  0.67102800  0.08350200  1
  C  127  1  0.15503300  0.70843600  0.05311500  1
  C  128  1  0.14841000  0.67835600  0.97852200  1
  C  129  1  0.12194600  0.71345400  0.12657500  1
  C  130  1  0.23291300  0.69765400  0.07628000  1
  C  131  1  0.09530600  0.75814700  0.03023400  1
  C  136  1  0.17816200  0.29342900  0.78544300  1
  C  137  1  0.18087800  0.27121500  0.78872800  1
  C  138  1  0.16078900  0.26231200  0.79496600  1
  C  139  1  0.14539400  0.27893900  0.79534100  1
  C  140  1  0.12339800  0.27495600  0.80058000  1
  C  141  1  0.11657400  0.25379500  0.80567400  1
  C  142  1  0.13222500  0.23694700  0.80551500  1
  C  143  1  0.15423100  0.24108200  0.80000300  1
  C  144  1  0.20128100  0.26162400  0.78477000  1
  C  145  1  0.21872600  0.27451000  0.77725400  1
  C  146  1  0.21621800  0.29704900  0.77354500  1
  C  147  1  0.19553100  0.30634200  0.77794800  1
  C  148  1  0.14444400  0.30848100  0.76955800  1
  C  149  1  0.13369000  0.32783100  0.77417500  1
  C  150  1  0.13766800  0.33306300  0.79587400  1
  C  151  1  0.15092500  0.31699700  0.80485300  1
  C  152  1  0.12863500  0.34909400  0.80927800  1
  C  153  1  0.13273000  0.34852700  0.83173800  1
  C  154  1  0.14570000  0.33201200  0.84120300  1
  C  155  1  0.15504400  0.31638100  0.82723900  1
  C  156  1  0.14147500  0.29780400  0.74969600  1
  C  157  1  0.12726400  0.30647500  0.73391400  1
  C  158  1  0.11661600  0.32629300  0.73865200  1
  C  159  1  0.11983100  0.33704300  0.75856200  1
  C  172  1  0.15521500  0.29974100  0.78894300  1
  C  173  1  0.14839700  0.32969400  0.86352700  1
  C  174  1  0.12194500  0.29453300  0.71556400  1
  C  175  1  0.23308300  0.31013800  0.76567400  1
  C  176  1  0.09527000  0.25063700  0.81222900  1
  C  181  1  0.89436900  0.86842800  0.21050500  1
  C  182  1  0.89169700  0.87160700  0.18826800  1
  C  183  1  0.91180400  0.87780900  0.17937600  1
  C  184  1  0.92715900  0.87828700  0.19603600  1
  C  185  1  0.94916200  0.88350800  0.19207600  1
  C  186  1  0.95602700  0.88851900  0.17090800  1
  C  187  1  0.94042200  0.88824900  0.15402100  1
  C  188  1  0.91841000  0.88274300  0.15813400  1
  C  189  1  0.87133700  0.86751900  0.17864100  1
  C  190  1  0.85387800  0.86002500  0.19152100  1
  C  191  1  0.85634400  0.85640800  0.21407600  1
  C  192  1  0.87700200  0.86089100  0.22339600  1
  C  193  1  0.92805500  0.85251900  0.22560100  1
  C  194  1  0.93881900  0.85715500  0.24494200  1
  C  195  1  0.93489700  0.87887500  0.25011900  1
  C  196  1  0.92159900  0.88783400  0.23407800  1
  C  197  1  0.94381100  0.89225900  0.26622900  1
  C  198  1  0.93966800  0.91471200  0.26568800  1
  C  199  1  0.92676500  0.92418000  0.24912100  1
  C  200  1  0.91745000  0.91021600  0.23347100  1
  C  201  1  0.93102600  0.83266200  0.21491800  1
  C  202  1  0.94523000  0.81687700  0.22360000  1
  C  203  1  0.95587200  0.82161600  0.24342100  1
  C  204  1  0.95268600  0.84154600  0.25414700  1
  C  217  1  0.91731300  0.87191400  0.21683400  1
  C  218  1  0.92406200  0.94650400  0.24680800  1
  C  219  1  0.95053900  0.79851600  0.21166500  1
  C  220  1  0.83947400  0.84853800  0.22716300  1
  C  221  1  0.97733100  0.89508500  0.16778800  1
  C  226  1  0.89428700  0.13958700  0.63160500  1
  C  227  1  0.89156200  0.13634300  0.65382500  1
  C  228  1  0.91165200  0.13014200  0.66275300  1
  C  229  1  0.92706800  0.12980000  0.64614400  1
  C  230  1  0.94907200  0.12462000  0.65015600  1
  C  231  1  0.95588500  0.11955800  0.67133000  1
  C  232  1  0.94021600  0.11969500  0.68816000  1
  C  233  1  0.91820300  0.12515900  0.68399800  1
  C  234  1  0.87114500  0.14028000  0.66339400  1
  C  235  1  0.85370000  0.14775700  0.65048500  1
  C  236  1  0.85622000  0.15143500  0.62794200  1
  C  237  1  0.87691800  0.14703800  0.61866800  1
  C  238  1  0.92796900  0.15551500  0.61652100  1
  C  239  1  0.93865300  0.15090300  0.59712400  1
  C  240  1  0.93483300  0.12914400  0.59202900  1
  C  241  1  0.92162500  0.12017600  0.60812800  1
  C  242  1  0.94368000  0.11576100  0.57588100  1
  C  243  1  0.93954300  0.09330600  0.57644600  1
  C  244  1  0.92665400  0.08384300  0.59302700  1
  C  245  1  0.91742400  0.09780600  0.60872800  1
  C  246  1  0.93090100  0.17540100  0.62716300  1
  C  247  1  0.94515500  0.19115200  0.61849800  1
  C  248  1  0.95583500  0.18637900  0.59870800  1
  C  249  1  0.95261400  0.16646200  0.58797500  1
  C  262  1  0.91724800  0.13612500  0.62532100  1
  C  263  1  0.92390100  0.06152400  0.59531900  1
  C  264  1  0.95049600  0.20948400  0.63046100  1
  C  265  1  0.83936000  0.15928800  0.61483500  1
  C  266  1  0.97719600  0.11303400  0.67450700  1
  C  271  1  0.89430800  0.29340000  0.05663500  1
  C  272  1  0.89160400  0.27117800  0.05337800  1
  C  273  1  0.91170600  0.26227300  0.04718200  1
  C  274  1  0.92708700  0.27891300  0.04677100  1
  C  275  1  0.94908900  0.27493500  0.04155100  1
  C  276  1  0.95592600  0.25376700  0.03650100  1
  C  277  1  0.94029400  0.23690400  0.03671000  1
  C  278  1  0.91828200  0.24103500  0.04220200  1
  C  279  1  0.87122700  0.26157100  0.05742000  1
  C  280  1  0.85377700  0.27445900  0.06492500  1
  C  281  1  0.85626700  0.29700700  0.06858000  1
  C  282  1  0.87693800  0.30631300  0.06412200  1
  C  283  1  0.92800400  0.30848800  0.07252200  1
  C  284  1  0.93875100  0.32784100  0.06789000  1
  C  285  1  0.93483700  0.33300500  0.04616700  1
  C  286  1  0.92154500  0.31695700  0.03720800  1
  C  287  1  0.94372600  0.34913300  0.03278600  1
  C  288  1  0.93959500  0.34857900  0.01033100  1
  C  289  1  0.92669100  0.33201400  0.00086300  1
  C  290  1  0.91740100  0.31634800  0.01482600  1
  C  291  1  0.93092000  0.29785600  0.09241600  1
  C  292  1  0.94515800  0.30653300  0.10817400  1
  C  293  1  0.95580500  0.32634800  0.10342100  1
  C  294  1  0.95258300  0.33708500  0.08350600  1
  C  307  1  0.91725500  0.29971900  0.05313600  1
  C  308  1  0.92398100  0.32970600  0.97853900  1
  C  309  1  0.95047300  0.29461200  0.12654100  1
  C  310  1  0.83940600  0.31009400  0.07646200  1
  C  311  1  0.97723300  0.25061400  0.02996200  1
  C  316  1  0.89443700  0.71462600  0.78555100  1
  C  317  1  0.89163200  0.73682300  0.78887500  1
  C  318  1  0.91169600  0.74580200  0.79507100  1
  C  319  1  0.92717500  0.72925000  0.79538300  1
  C  320  1  0.94918000  0.73335100  0.80049900  1
  C  321  1  0.95590800  0.75454400  0.80560300  1
  C  322  1  0.94015800  0.77130300  0.80554500  1
  C  323  1  0.91815900  0.76706400  0.80009700  1
  C  324  1  0.87120200  0.74635300  0.78491400  1
  C  325  1  0.85379800  0.73341400  0.77740000  1
  C  326  1  0.85637800  0.71088500  0.77368700  1
  C  327  1  0.87710100  0.70165800  0.77807200  1
  C  328  1  0.92816900  0.69963000  0.76963700  1
  C  329  1  0.93891400  0.68027700  0.77427000  1
  C  330  1  0.93500800  0.67510600  0.79599100  1
  C  331  1  0.92181100  0.69121300  0.80496600  1
  C  332  1  0.94382700  0.65893200  0.80936200  1
  C  333  1  0.93965000  0.65945800  0.83180900  1
  C  334  1  0.92674000  0.67601800  0.84127900  1
  C  335  1  0.91751800  0.69173200  0.82732300  1
  C  336  1  0.93111700  0.71029000  0.74976600  1
  C  337  1  0.94528000  0.70156900  0.73396400  1
  C  338  1  0.95590300  0.68173600  0.73870200  1
  C  339  1  0.95273400  0.67103100  0.75864500  1
  C  352  1  0.91741700  0.70840600  0.78902400  1
  C  353  1  0.92396100  0.67828000  0.86359800  1
  C  354  1  0.95057100  0.71347000  0.71558000  1
  C  355  1  0.83954400  0.69775400  0.76582100  1
  C  356  1  0.97722800  0.75788400  0.81202500  1
  C  361  1  0.89312200  0.87029400  0.63296000  1
  C  362  1  0.88937100  0.87359900  0.65500600  1
  C  363  1  0.90926600  0.87841100  0.66504200  1
  C  364  1  0.92565000  0.87804800  0.64937500  1
  C  365  1  0.94779700  0.88038700  0.65504400  1
  C  366  1  0.95389400  0.88289600  0.67697500  1
  C  367  1  0.93702300  0.88341400  0.69270300  1
  C  368  1  0.91485200  0.88126600  0.68689400  1
  C  369  1  0.86838400  0.87044300  0.66358900  1
  C  370  1  0.85134300  0.86363700  0.64984300  1
  C  371  1  0.85487000  0.85982500  0.62746300  1
  C  372  1  0.87612500  0.86351400  0.61917100  1
  C  373  1  0.92636200  0.85231800  0.61961900  1
  C  374  1  0.93754400  0.85600900  0.60029500  1
  C  375  1  0.93535800  0.87792900  0.59503800  1
  C  376  1  0.92256200  0.88789900  0.61089000  1
  C  377  1  0.94409100  0.89029600  0.57804100  1
  C  378  1  0.93984100  0.91271700  0.57721100  1
  C  379  1  0.92687400  0.92301500  0.59318200  1
  C  380  1  0.91820400  0.91023200  0.61011000  1
  C  381  1  0.92623700  0.83180900  0.62945300  1
  C  382  1  0.93741000  0.81446500  0.61961700  1
  C  383  1  0.94840500  0.81811600  0.59981200  1
  C  384  1  0.94869900  0.83885800  0.59022400  1
  C  397  1  0.91661100  0.87239800  0.62801000  1
  C  398  1  0.92194400  0.94494100  0.59242800  1
  C  399  1  0.93620200  0.79424500  0.62897400  1
  C  400  1  0.83844100  0.85227500  0.61370000  1
  C  401  1  0.97575600  0.88291600  0.68327800  1
  C  406  1  0.89321200  0.13765400  0.20914800  1
  C  407  1  0.88947500  0.13438100  0.18709100  1
  C  408  1  0.90939900  0.12969500  0.17704600  1
  C  409  1  0.92576800  0.12999000  0.19273100  1
  C  410  1  0.94791600  0.12763600  0.18707300  1
  C  411  1  0.95402100  0.12512000  0.16514500  1
  C  412  1  0.93715600  0.12457000  0.14941200  1
  C  413  1  0.91498700  0.12676200  0.15520500  1
  C  414  1  0.86852300  0.13767300  0.17847500  1
  C  415  1  0.85148000  0.14449700  0.19221000  1
  C  416  1  0.85498700  0.14826400  0.21460100  1
  C  417  1  0.87622600  0.14451900  0.22290500  1
  C  418  1  0.92642900  0.15569800  0.22249400  1
  C  419  1  0.93759800  0.15202000  0.24182700  1
  C  420  1  0.93542100  0.13010000  0.24708700  1
  C  421  1  0.92266800  0.12011300  0.23121500  1
  C  422  1  0.94414300  0.11774100  0.26409800  1
  C  423  1  0.93992100  0.09531400  0.26491900  1
  C  424  1  0.92698500  0.08500200  0.24893400  1
  C  425  1  0.91832500  0.09777600  0.23199300  1
  C  426  1  0.92629100  0.17620300  0.21265400  1
  C  427  1  0.93742700  0.19356800  0.22250300  1
  C  428  1  0.94838000  0.18993500  0.24233400  1
  C  429  1  0.94868800  0.16919500  0.25192700  1
  C  442  1  0.91670900  0.13560600  0.21409300  1
  C  443  1  0.92206700  0.06307300  0.24968100  1
  C  444  1  0.93622900  0.21378100  0.21312400  1
  C  445  1  0.83856500  0.15584700  0.22835700  1
  C  446  1  0.97588600  0.12505100  0.15885100  1
  C  451  1  0.89323600  0.29207300  0.78735100  1
  C  452  1  0.88948800  0.27002900  0.79067500  1
  C  453  1  0.90938600  0.26000200  0.79550100  1
  C  454  1  0.92576900  0.27567400  0.79511500  1
  C  455  1  0.94791400  0.27001400  0.79750600  1
  C  456  1  0.95401500  0.24808500  0.80002100  1
  C  457  1  0.93714800  0.23235400  0.80055900  1
  C  458  1  0.91497900  0.23815300  0.79837900  1
  C  459  1  0.86850300  0.26144200  0.78752300  1
  C  460  1  0.85145500  0.27518500  0.78072100  1
  C  461  1  0.85498100  0.29756400  0.77689400  1
  C  462  1  0.87623800  0.30585500  0.78056600  1
  C  463  1  0.92647800  0.30541900  0.76937900  1
  C  464  1  0.93754700  0.32481200  0.77303800  1
  C  465  1  0.93535300  0.33007500  0.79495700  1
  C  466  1  0.92266000  0.31415900  0.80495100  1
  C  467  1  0.94400800  0.34712300  0.80731000  1
  C  468  1  0.93976100  0.34795100  0.82973200  1
  C  469  1  0.92686900  0.33193200  0.84004600  1
  C  470  1  0.91826800  0.31495700  0.82727800  1
  C  471  1  0.92635700  0.29557900  0.74887300  1
  C  472  1  0.93746600  0.30545300  0.73150600  1
  C  473  1  0.94834400  0.32532700  0.73512800  1
  C  474  1  0.94861600  0.33493300  0.75586200  1
  C  487  1  0.91672300  0.29703100  0.78945800  1
  C  488  1  0.92193300  0.33268400  0.86196700  1
  C  489  1  0.93630100  0.29606100  0.71129400  1
  C  490  1  0.83854700  0.31132400  0.76934800  1
  C  491  1  0.97588000  0.24179400  0.80007600  1
  C  496  1  0.89314500  0.71589300  0.05477600  1
  C  497  1  0.88943700  0.73794000  0.05142800  1
  C  498  1  0.90936800  0.74793700  0.04666700  1
  C  499  1  0.92571100  0.73222400  0.04702600  1
  C  500  1  0.94786500  0.73782900  0.04461500  1
  C  501  1  0.95401800  0.75973100  0.04201000  1
  C  502  1  0.93718700  0.77549700  0.04143100  1
  C  503  1  0.91500300  0.76975500  0.04363900  1
  C  504  1  0.86846600  0.74656600  0.05456800  1
  C  505  1  0.85139000  0.73285500  0.06137300  1
  C  506  1  0.85487500  0.71047200  0.06521300  1
  C  507  1  0.87611900  0.70214200  0.06155300  1
  C  508  1  0.92635900  0.70251800  0.07279200  1
  C  509  1  0.93753100  0.68318400  0.06912600  1
  C  510  1  0.93531400  0.67788100  0.04721800  1
  C  511  1  0.92255000  0.69374200  0.03722300  1
  C  512  1  0.94409400  0.66090600  0.03485200  1
  C  513  1  0.93986900  0.66007100  0.01242600  1
  C  514  1  0.92690000  0.67603100  0.00211200  1
  C  515  1  0.91821100  0.69295600  0.01488600  1
  C  516  1  0.92622600  0.71237700  0.09328900  1
  C  517  1  0.93737800  0.70255000  0.11065400  1
  C  518  1  0.94835400  0.68273100  0.10703200  1
  C  519  1  0.94865400  0.67311700  0.08630200  1
  C  532  1  0.91662400  0.71089200  0.05269800  1
  C  533  1  0.92199000  0.67528200  0.98018100  1
  C  534  1  0.93615900  0.71193100  0.13086400  1
  C  535  1  0.83842000  0.69673700  0.07275800  1
  C  536  1  0.97590100  0.76595900  0.04195000  1
  C  541  1  0.17925400  0.13763700  0.63295200  1
  C  542  1  0.18298200  0.13441400  0.65501500  1
  C  543  1  0.16306100  0.12971600  0.66505800  1
  C  544  1  0.14670300  0.12991400  0.64935800  1
  C  545  1  0.12455100  0.12762600  0.65503100  1
  C  546  1  0.11844200  0.12518600  0.67696700  1
  C  547  1  0.13530200  0.12467600  0.69270400  1
  C  548  1  0.15747200  0.12685500  0.68690900  1
  C  549  1  0.20392500  0.13774400  0.66363900  1
  C  550  1  0.22097600  0.14453100  0.64989400  1
  C  551  1  0.21747500  0.14826200  0.62749700  1
  C  552  1  0.19624100  0.14448700  0.61918800  1
  C  553  1  0.14602500  0.15564500  0.61960100  1
  C  554  1  0.13486900  0.15196000  0.60026200  1
  C  555  1  0.13706300  0.13004300  0.59500100  1
  C  556  1  0.14981900  0.12006300  0.61087700  1
  C  557  1  0.12834900  0.11768000  0.57798900  1
  C  558  1  0.13258800  0.09525800  0.57716600  1
  C  559  1  0.14552600  0.08495200  0.59315400  1
  C  560  1  0.15417800  0.09772900  0.61009400  1
  C  561  1  0.14613900  0.17615000  0.62944200  1
  C  562  1  0.13499800  0.19350600  0.61958500  1
  C  563  1  0.12405600  0.18986600  0.59974900  1
  C  564  1  0.12376800  0.16912600  0.59015600  1
  C  577  1  0.15576100  0.13555900  0.62800200  1
  C  578  1  0.15045000  0.06302500  0.59240200  1
  C  579  1  0.13615600  0.21372100  0.62896700  1
  C  580  1  0.23390200  0.15581900  0.61373400  1
  C  581  1  0.09657700  0.12515800  0.68325700  1
  C  586  1  0.17932500  0.87031500  0.20916600  1
  C  587  1  0.18308800  0.87363600  0.18712300  1
  C  588  1  0.16319500  0.87844000  0.17707700  1
  C  589  1  0.14679900  0.87803200  0.19273300  1
  C  590  1  0.12465700  0.88042100  0.18706000  1
  C  591  1  0.11857400  0.88291600  0.16512400  1
  C  592  1  0.13545200  0.88347100  0.14940700  1
  C  593  1  0.15761900  0.88131200  0.15522400  1
  C  594  1  0.20408000  0.87048800  0.17854700  1
  C  595  1  0.22111900  0.86369200  0.19230000  1
  C  596  1  0.21758100  0.85986100  0.21467700  1
  C  597  1  0.19631800  0.86353500  0.22295700  1
  C  598  1  0.14609400  0.85231500  0.22249500  1
  C  599  1  0.13493300  0.85599100  0.24183400  1
  C  600  1  0.13710100  0.87791300  0.24708900  1
  C  601  1  0.14984900  0.88790100  0.23121100  1
  C  602  1  0.12839200  0.89026700  0.26410700  1
  C  603  1  0.13263700  0.91268900  0.26494200  1
  C  604  1  0.14558100  0.92299900  0.24896100  1
  C  605  1  0.15423200  0.91022900  0.23201500  1
  C  606  1  0.14625100  0.83180300  0.21267000  1
  C  607  1  0.13511000  0.81444700  0.22252100  1
  C  608  1  0.12412900  0.81808200  0.24233600  1
  C  609  1  0.12381300  0.83882600  0.25191900  1
  C  622  1  0.15583100  0.87240100  0.21410200  1
  C  623  1  0.15051000  0.94492300  0.24972500  1
  C  624  1  0.13635900  0.79422900  0.21316900  1
  C  625  1  0.23400500  0.85230400  0.22844300  1
  C  626  1  0.09671400  0.88294900  0.15881400  1
  C  631  1  0.17933300  0.71590400  0.78736400  1
  C  632  1  0.18306500  0.73794700  0.79072400  1
  C  633  1  0.16313400  0.74797400  0.79541800  1
  C  634  1  0.14677500  0.73228000  0.79507300  1
  C  635  1  0.12462000  0.73791300  0.79743000  1
  C  636  1  0.11849400  0.75982800  0.79998700  1
  C  637  1  0.13534300  0.77557500  0.80057800  1
  C  638  1  0.15752000  0.76980500  0.79838200  1
  C  639  1  0.20402400  0.74656600  0.78748100  1
  C  640  1  0.22108300  0.73283900  0.78067800  1
  C  641  1  0.21758300  0.71045300  0.77687100  1
  C  642  1  0.19634200  0.70213500  0.78058400  1
  C  643  1  0.14612100  0.70254900  0.76933200  1
  C  644  1  0.13490600  0.68324100  0.77300900  1
  C  645  1  0.13708700  0.67796200  0.79492600  1
  C  646  1  0.14988500  0.69380000  0.80491200  1
  C  647  1  0.12832800  0.66097100  0.80728600  1
  C  648  1  0.13256000  0.66013400  0.82971100  1
  C  649  1  0.14553600  0.67608900  0.84002200  1
  C  650  1  0.15423200  0.69300900  0.82724700  1
  C  651  1  0.14628700  0.71239000  0.74882600  1
  C  652  1  0.13512400  0.70256800  0.73146800  1
  C  653  1  0.12409400  0.68278100  0.73509900  1
  C  654  1  0.12377000  0.67318200  0.75583700  1
  C  667  1  0.15584500  0.71093000  0.78942900  1
  C  668  1  0.15045000  0.67533500  0.86195100  1
  C  669  1  0.13638300  0.71193000  0.71125300  1
  C  670  1  0.23401800  0.69670600  0.76930000  1
  C  671  1  0.09662000  0.76609200  0.80005000  1
  C  676  1  0.17924700  0.29204700  0.05471300  1
  C  677  1  0.18300700  0.27000500  0.05139400  1
  C  678  1  0.16310000  0.25996000  0.04663000  1
  C  679  1  0.14672100  0.27563900  0.04691800  1
  C  680  1  0.12457100  0.26995600  0.04463500  1
  C  681  1  0.11847400  0.24801500  0.04221300  1
  C  682  1  0.13534100  0.23228700  0.04171600  1
  C  683  1  0.15751000  0.23809800  0.04385300  1
  C  684  1  0.20396700  0.26140200  0.05466100  1
  C  685  1  0.22100700  0.27514800  0.06147500  1
  C  686  1  0.21749000  0.29753900  0.06523200  1
  C  687  1  0.19624300  0.30583200  0.06150100  1
  C  688  1  0.14600900  0.30537900  0.07268100  1
  C  689  1  0.13487300  0.32473200  0.06901100  1
  C  690  1  0.13708400  0.33001400  0.04710200  1
  C  691  1  0.14980900  0.31412400  0.03710700  1
  C  692  1  0.12840400  0.34705400  0.03475300  1
  C  693  1  0.13265800  0.34789800  0.01233400  1
  C  694  1  0.14558300  0.33190600  0.00201700  1
  C  695  1  0.15422100  0.31494900  0.01478500  1
  C  696  1  0.14611000  0.29552000  0.09317800  1
  C  697  1  0.13497700  0.30537200  0.11054100  1
  C  698  1  0.12405400  0.32522100  0.10691600  1
  C  699  1  0.12378000  0.33483300  0.08618500  1
  C  712  1  0.15575900  0.29699500  0.05259500  1
  C  713  1  0.15051400  0.33267300  0.98009400  1
  C  714  1  0.13613600  0.29597800  0.13075000  1
  C  715  1  0.23391400  0.31130500  0.07278700  1
  C  716  1  0.09661200  0.24171800  0.04218600  1
  C  721  1  0.67969800  0.63885700  0.70951300  1
  C  722  1  0.68141100  0.63653900  0.68706700  1
  C  723  1  0.66087700  0.63082400  0.67879200  1
  C  724  1  0.64625800  0.62980700  0.69606900  1
  C  725  1  0.62409700  0.62472800  0.69289500  1
  C  726  1  0.61625600  0.62049400  0.67189200  1
  C  727  1  0.63106400  0.62150100  0.65433600  1
  C  728  1  0.65327700  0.62676400  0.65768500  1
  C  729  1  0.70147800  0.64059900  0.67681900  1
  C  730  1  0.71964700  0.64704300  0.68931400  1
  C  731  1  0.71814200  0.64946000  0.71208500  1
  C  732  1  0.69778400  0.64520300  0.72206300  1
  C  733  1  0.64693600  0.65516400  0.72592000  1
  C  734  1  0.63671500  0.65057700  0.74555500  1
  C  735  1  0.64033700  0.62871900  0.75037600  1
  C  736  1  0.65293100  0.61965600  0.73383800  1
  C  737  1  0.63181000  0.61537800  0.76672600  1
  C  738  1  0.63560100  0.59287000  0.76591700  1
  C  739  1  0.64780900  0.58332000  0.74888900  1
  C  740  1  0.65670000  0.59722700  0.73295200  1
  C  741  1  0.64404600  0.67516700  0.71548800  1
  C  742  1  0.63032300  0.69110300  0.72463500  1
  C  743  1  0.62011600  0.68636000  0.74467900  1
  C  744  1  0.62331500  0.66632200  0.75520600  1
  C  757  1  0.65695600  0.63564300  0.71660500  1
  C  758  1  0.65023300  0.56098500  0.74643800  1
  C  759  1  0.62496000  0.70957400  0.71289500  1
  C  760  1  0.73594700  0.65533600  0.72483200  1
  C  761  1  0.59485100  0.61386700  0.66966100  1
  C  766  1  0.67958900  0.36910100  0.13263200  1
  C  767  1  0.68126200  0.37136600  0.15508700  1
  C  768  1  0.66071600  0.37706000  0.16334000  1
  C  769  1  0.64613300  0.37814500  0.14603800  1
  C  770  1  0.62397500  0.38325100  0.14917800  1
  C  771  1  0.61610500  0.38746300  0.17017500  1
  C  772  1  0.63087200  0.38638800  0.18775900  1
  C  773  1  0.65308500  0.38110700  0.18443800  1
  C  774  1  0.70128900  0.36719400  0.16536900  1
  C  775  1  0.71946400  0.36072700  0.15289700  1
  C  776  1  0.71800000  0.35837000  0.13011700  1
  C  777  1  0.69767000  0.36268500  0.12011100  1
  C  778  1  0.64684000  0.35278600  0.11619800  1
  C  779  1  0.63662200  0.35737700  0.09656500  1
  C  780  1  0.64032200  0.37920900  0.09169300  1
  C  781  1  0.65286700  0.38828300  0.10826000  1
  C  782  1  0.63184100  0.39254300  0.07531300  1
  C  783  1  0.63562200  0.41505200  0.07612600  1
  C  784  1  0.64778000  0.42461100  0.09318700  1
  C  785  1  0.65666300  0.41071000  0.10913300  1
  C  786  1  0.64397400  0.33276600  0.12660400  1
  C  787  1  0.63034700  0.31678900  0.11738900  1
  C  788  1  0.62022600  0.32150100  0.09729300  1
  C  789  1  0.62337400  0.34157000  0.08681100  1
  C  802  1  0.65685300  0.37230900  0.12551400  1
  C  803  1  0.65017700  0.44694600  0.09564500  1
  C  804  1  0.62501100  0.29828200  0.12908800  1
  C  805  1  0.73580800  0.35247300  0.11738600  1
  C  806  1  0.59469600  0.39409300  0.17237400  1
  C  811  1  0.67955500  0.21560400  0.55588300  1
  C  812  1  0.68128500  0.23804300  0.55353100  1
  C  813  1  0.66075100  0.24632800  0.54782800  1
  C  814  1  0.64612000  0.22905900  0.54683300  1
  C  815  1  0.62395800  0.23224100  0.54175900  1
  C  816  1  0.61613400  0.25324700  0.53751300  1
  C  817  1  0.63095500  0.27079400  0.53847900  1
  C  818  1  0.65316800  0.26743500  0.54373800  1
  C  819  1  0.70134600  0.24828800  0.55763200  1
  C  820  1  0.71950300  0.23578800  0.56409600  1
  C  821  1  0.71798700  0.21301700  0.56651900  1
  C  822  1  0.69762700  0.20304700  0.56225400  1
  C  823  1  0.64677000  0.19920200  0.57217100  1
  C  824  1  0.63675400  0.17944700  0.56765000  1
  C  825  1  0.64037400  0.17463300  0.54579200  1
  C  826  1  0.65277400  0.19128500  0.53668700  1
  C  827  1  0.63198800  0.15820300  0.53246200  1
  C  828  1  0.63580000  0.15899900  0.50995600  1
  C  829  1  0.64789700  0.17609800  0.50038600  1
  C  830  1  0.65663800  0.19213400  0.51427300  1
  C  831  1  0.64395000  0.20957600  0.59221500  1
  C  832  1  0.63040600  0.20029800  0.60822400  1
  C  833  1  0.62033600  0.18017600  0.60352500  1
  C  834  1  0.62349400  0.16970200  0.58345400  1
  C  847  1  0.65680900  0.20852300  0.55266600  1
  C  848  1  0.65034400  0.17852000  0.47805100  1
  C  849  1  0.62509400  0.21197600  0.62675100  1
  C  850  1  0.73577900  0.20026200  0.57241800  1
  C  851  1  0.59472700  0.25547200  0.53090300  1
  C  856  1  0.67964000  0.79239800  0.28614700  1
  C  857  1  0.68134500  0.76995500  0.28849700  1
  C  858  1  0.66081200  0.76169600  0.29423500  1
  C  859  1  0.64620800  0.77898400  0.29526300  1
  C  860  1  0.62405500  0.77583000  0.30038900  1
  C  861  1  0.61620900  0.75483500  0.30465400  1
  C  862  1  0.63100200  0.73726900  0.30363800  1
  C  863  1  0.65321100  0.74060100  0.29834800  1
  C  864  1  0.70140300  0.75969200  0.28441900  1
  C  865  1  0.71957000  0.77217100  0.27794200  1
  C  866  1  0.71807300  0.79494200  0.27550500  1
  C  867  1  0.69772200  0.80493300  0.27976500  1
  C  868  1  0.64685100  0.80878200  0.26987100  1
  C  869  1  0.63665800  0.82843700  0.27443400  1
  C  870  1  0.64042300  0.83337100  0.29624300  1
  C  871  1  0.65292900  0.81678100  0.30534000  1
  C  872  1  0.63181200  0.84966800  0.30959500  1
  C  873  1  0.63558500  0.84886700  0.33210500  1
  C  874  1  0.64779900  0.83184800  0.34166600  1
  C  875  1  0.65670700  0.81591100  0.32777000  1
  C  876  1  0.64394800  0.79836000  0.24986500  1
  C  877  1  0.63035600  0.80758600  0.23386900  1
  C  878  1  0.62025700  0.82769600  0.23856000  1
  C  879  1  0.62343100  0.83819900  0.25861400  1
  C  892  1  0.65690700  0.79950600  0.28938500  1
  C  893  1  0.65020000  0.82939800  0.36400300  1
  C  894  1  0.62504000  0.79589900  0.21534900  1
  C  895  1  0.73587500  0.80767800  0.26959800  1
  C  896  1  0.59480400  0.75262100  0.31129400  1
  C  901  1  0.39288800  0.36916100  0.70947900  1
  C  902  1  0.39122300  0.37140600  0.68702200  1
  C  903  1  0.41176900  0.37711100  0.67877200  1
  C  904  1  0.42633800  0.37824300  0.69608500  1
  C  905  1  0.44850000  0.38333500  0.69294600  1
  C  906  1  0.45638200  0.38751400  0.67194800  1
  C  907  1  0.44162800  0.38639900  0.65435700  1
  C  908  1  0.41941300  0.38112000  0.65767200  1
  C  909  1  0.37120200  0.36721500  0.67673500  1
  C  910  1  0.35302200  0.36075600  0.68920600  1
  C  911  1  0.35447900  0.35841500  0.71198800  1
  C  912  1  0.37480400  0.36274800  0.72199900  1
  C  913  1  0.42564200  0.35286200  0.72590900  1
  C  914  1  0.43584300  0.35744000  0.74555400  1
  C  915  1  0.43213500  0.37927000  0.75043600  1
  C  916  1  0.41959400  0.38835100  0.73386700  1
  C  917  1  0.44062300  0.39260300  0.76681000  1
  C  918  1  0.43680100  0.41510600  0.76603400  1
  C  919  1  0.42465800  0.42467100  0.74896500  1
  C  920  1  0.41578300  0.41077400  0.73300900  1
  C  921  1  0.42855000  0.33286300  0.71547800  1
  C  922  1  0.44213300  0.31686300  0.72471600  1
  C  923  1  0.45222300  0.32155500  0.74483100  1
  C  924  1  0.44907700  0.34162400  0.75531300  1
  C  937  1  0.41561700  0.37238500  0.71660300  1
  C  938  1  0.42224900  0.44700600  0.74652200  1
  C  939  1  0.44743800  0.29833700  0.71303200  1
  C  940  1  0.33666200  0.35253300  0.72471700  1
  C  941  1  0.47779200  0.39414100  0.66975600  1
  C  946  1  0.39278800  0.63885900  0.13264100  1
  C  947  1  0.39107000  0.63654200  0.15508600  1
  C  948  1  0.41160500  0.63085000  0.16337100  1
  C  949  1  0.42623700  0.62986000  0.14610200  1
  C  950  1  0.44839900  0.62479400  0.14928300  1
  C  951  1  0.45623000  0.62056000  0.17029000  1
  C  952  1  0.44141300  0.62153800  0.18783700  1
  C  953  1  0.41919600  0.62678200  0.18447700  1
  C  954  1  0.37099200  0.64058100  0.16532400  1
  C  955  1  0.35282400  0.64700600  0.15282200  1
  C  956  1  0.35433500  0.64942300  0.13005100  1
  C  957  1  0.37470100  0.64518200  0.12008100  1
  C  958  1  0.42553600  0.65518300  0.11622400  1
  C  959  1  0.43566200  0.65062300  0.09652900  1
  C  960  1  0.43206400  0.62875800  0.09172500  1
  C  961  1  0.41960500  0.61967200  0.10834400  1
  C  962  1  0.44049100  0.61542100  0.07532200  1
  C  963  1  0.43667700  0.59291700  0.07612400  1
  C  964  1  0.42454300  0.58336000  0.09320500  1
  C  965  1  0.41574600  0.59725800  0.10920200  1
  C  966  1  0.42840300  0.67521100  0.12661500  1
  C  967  1  0.44204600  0.69117500  0.11740200  1
  C  968  1  0.45218200  0.68645000  0.09732000  1
  C  969  1  0.44900200  0.66639000  0.08683000  1
  C  982  1  0.41553700  0.63566500  0.12555900  1
  C  983  1  0.42208300  0.56102700  0.09563300  1
  C  984  1  0.44739100  0.70967000  0.12911600  1
  C  985  1  0.33653200  0.65528500  0.11729600  1
  C  986  1  0.47763900  0.61394100  0.17252300  1
  C  991  1  0.39282400  0.79236400  0.55593300  1
  C  992  1  0.39112200  0.76991900  0.55360500  1
  C  993  1  0.41166400  0.76165500  0.54790500  1
  C  994  1  0.42626600  0.77894400  0.54685700  1
  C  995  1  0.44842100  0.77578800  0.54174800  1
  C  996  1  0.45626800  0.75478600  0.53751200  1
  C  997  1  0.44148300  0.73721700  0.53855800  1
  C  998  1  0.41926900  0.74055400  0.54383200  1
  C  999  1  0.37108000  0.75965200  0.55774300  1
  C  1000  1  0.35291300  0.77213400  0.56421200  1
  C  1001  1  0.35440000  0.79490800  0.56660300  1
  C  1002  1  0.37474000  0.80490300  0.56230400  1
  C  1003  1  0.42559300  0.80877700  0.57221400  1
  C  1004  1  0.43578100  0.82843200  0.56763800  1
  C  1005  1  0.43208300  0.83330100  0.54580500  1
  C  1006  1  0.41954600  0.81672800  0.53672700  1
  C  1007  1  0.44055400  0.84968700  0.53247300  1
  C  1008  1  0.43674700  0.84889600  0.50996900  1
  C  1009  1  0.42459800  0.83183200  0.50040600  1
  C  1010  1  0.41574300  0.81586600  0.51430200  1
  C  1011  1  0.42843800  0.79840000  0.59225200  1
  C  1012  1  0.44205800  0.80763100  0.60822400  1
  C  1013  1  0.45215900  0.82773500  0.60351800  1
  C  1014  1  0.44898300  0.83822700  0.58346000  1
  C  1027  1  0.41556000  0.79947400  0.55270100  1
  C  1028  1  0.42218000  0.82939300  0.47807100  1
  C  1029  1  0.44736500  0.79596600  0.62676200  1
  C  1030  1  0.33659900  0.80764600  0.57251300  1
  C  1031  1  0.47767800  0.75256300  0.53089600  1
  C  1036  1  0.39292500  0.21565000  0.28623400  1
  C  1037  1  0.39118800  0.23809300  0.28856700  1
  C  1038  1  0.41171600  0.24638500  0.29427700  1
  C  1039  1  0.42634600  0.22911900  0.29532400  1
  C  1040  1  0.44850900  0.23231600  0.30038700  1
  C  1041  1  0.45632100  0.25332800  0.30462200  1
  C  1042  1  0.44150400  0.27087200  0.30359500  1
  C  1043  1  0.41929600  0.26750100  0.29832400  1
  C  1044  1  0.37112700  0.24833200  0.28444800  1
  C  1045  1  0.35297500  0.23582500  0.27798600  1
  C  1046  1  0.35449500  0.21305300  0.27558500  1
  C  1047  1  0.37485400  0.20308900  0.27987200  1
  C  1048  1  0.42570400  0.19926600  0.26995300  1
  C  1049  1  0.43586900  0.17960000  0.27452500  1
  C  1050  1  0.43215700  0.17471500  0.29635300  1
  C  1051  1  0.41971400  0.19134500  0.30544300  1
  C  1052  1  0.44054800  0.15828300  0.30967800  1
  C  1053  1  0.43669200  0.15905000  0.33217600  1
  C  1054  1  0.42454100  0.17611500  0.34173700  1
  C  1055  1  0.41575900  0.19212800  0.32784600  1
  C  1056  1  0.42860700  0.20968500  0.24994600  1
  C  1057  1  0.44215100  0.20041400  0.23393500  1
  C  1058  1  0.45220800  0.18028100  0.23862000  1
  C  1059  1  0.44906400  0.16981100  0.25869600  1
  C  1072  1  0.41567300  0.20858000  0.28946700  1
  C  1073  1  0.42206500  0.17852500  0.36406900  1
  C  1074  1  0.44744700  0.21207100  0.21538900  1
  C  1075  1  0.33670800  0.20029300  0.26968700  1
  C  1076  1  0.47772300  0.25559000  0.31124500  1
  C  1081  1  0.39199500  0.37031800  0.13460700  1
  C  1082  1  0.38863600  0.37321300  0.15677700  1
  C  1083  1  0.40873600  0.37764300  0.16657200  1
  C  1084  1  0.42488800  0.37740700  0.15065700  1
  C  1085  1  0.44713200  0.37950400  0.15606900  1
  C  1086  1  0.45353700  0.38170400  0.17795700  1
  C  1087  1  0.43688100  0.38214000  0.19390800  1
  C  1088  1  0.41462800  0.38019000  0.18837700  1
  C  1089  1  0.36773600  0.37022300  0.16564400  1
  C  1090  1  0.35031600  0.36418000  0.15200900  1
  C  1091  1  0.35343400  0.36107600  0.12948900  1
  C  1092  1  0.37460700  0.36439800  0.12089700  1
  C  1093  1  0.42472200  0.35196000  0.12063900  1
  C  1094  1  0.43545700  0.35558500  0.10105800  1
  C  1095  1  0.43347100  0.37755900  0.09596900  1
  C  1096  1  0.42130100  0.38764700  0.11222400  1
  C  1097  1  0.44175300  0.38983600  0.07868700  1
  C  1098  1  0.43763300  0.41228200  0.07794900  1
  C  1099  1  0.42525300  0.42269200  0.09430000  1
  C  1100  1  0.41707400  0.41000600  0.11153900  1
  C  1101  1  0.42446300  0.33138000  0.13032400  1
  C  1102  1  0.43503300  0.31389800  0.12007700  1
  C  1103  1  0.44554100  0.31749400  0.10000300  1
  C  1104  1  0.44598200  0.33829900  0.09056000  1
  C  1117  1  0.41544900  0.37212600  0.12935800  1
  C  1118  1  0.42030900  0.44461100  0.09356300  1
  C  1119  1  0.43366700  0.29361300  0.12929100  1
  C  1120  1  0.33641100  0.35503300  0.11583900  1
  C  1121  1  0.47546400  0.38162200  0.18404300  1
  C  1126  1  0.39209300  0.63762200  0.70752100  1
  C  1127  1  0.38875500  0.63476300  0.68533900  1
  C  1128  1  0.40888400  0.63045700  0.67554700  1
  C  1129  1  0.42501500  0.63063000  0.69147900  1
  C  1130  1  0.44726600  0.62852800  0.68608400  1
  C  1131  1  0.45368200  0.62632800  0.66420100  1
  C  1132  1  0.43703900  0.62586300  0.64823800  1
  C  1133  1  0.41478300  0.62784400  0.65375100  1
  C  1134  1  0.36788500  0.63787200  0.67644300  1
  C  1135  1  0.35045700  0.64392100  0.69006300  1
  C  1136  1  0.35354700  0.64696900  0.71259500  1
  C  1137  1  0.37470400  0.64360500  0.72120400  1
  C  1138  1  0.42477900  0.65605200  0.72151100  1
  C  1139  1  0.43549400  0.65244000  0.74110500  1
  C  1140  1  0.43352800  0.63046600  0.74619300  1
  C  1141  1  0.42141000  0.62035800  0.72991100  1
  C  1142  1  0.44179100  0.61819800  0.76349100  1
  C  1143  1  0.43770200  0.59574500  0.76421900  1
  C  1144  1  0.42536400  0.58532100  0.74784600  1
  C  1145  1  0.41720400  0.59799600  0.73059000  1
  C  1146  1  0.42450000  0.67663200  0.71182800  1
  C  1147  1  0.43502400  0.69413100  0.72209100  1
  C  1148  1  0.44548800  0.69055400  0.74219100  1
  C  1149  1  0.44594800  0.66975000  0.75163500  1
  C  1162  1  0.41555000  0.63587400  0.71277600  1
  C  1163  1  0.42043600  0.56339800  0.74857400  1
  C  1164  1  0.43365700  0.71441100  0.71285800  1
  C  1165  1  0.33652000  0.65302300  0.72623800  1
  C  1166  1  0.47561400  0.62637600  0.65812600  1
  C  1171  1  0.39209400  0.79044500  0.28740600  1
  C  1172  1  0.38873400  0.76827800  0.29032500  1
  C  1173  1  0.40883700  0.75848600  0.29474800  1
  C  1174  1  0.42498900  0.77440100  0.29449100  1
  C  1175  1  0.44723300  0.76899000  0.29662700  1
  C  1176  1  0.45363500  0.74710200  0.29882800  1
  C  1177  1  0.43697800  0.73115200  0.29928300  1
  C  1178  1  0.41472800  0.73668100  0.29731500  1
  C  1179  1  0.36783700  0.75940800  0.28732000  1
  C  1180  1  0.35041400  0.77304000  0.28127900  1
  C  1181  1  0.35353200  0.79556000  0.27816800  1
  C  1182  1  0.37470600  0.80415200  0.28148000  1
  C  1183  1  0.42481800  0.80441200  0.26904200  1
  C  1184  1  0.43546700  0.82404400  0.27264100  1
  C  1185  1  0.43348300  0.82913800  0.29461400  1
  C  1186  1  0.42139500  0.81283600  0.30472300  1
  C  1187  1  0.44170600  0.84645700  0.30687800  1
  C  1188  1  0.43759400  0.84719100  0.32932600  1
  C  1189  1  0.42527700  0.83080400  0.33975000  1
  C  1190  1  0.41714800  0.81353200  0.32707900  1
  C  1191  1  0.42455100  0.79472700  0.24846300  1
  C  1192  1  0.43506400  0.80500000  0.23096100  1
  C  1193  1  0.44548700  0.82512300  0.23453400  1
  C  1194  1  0.44591700  0.83458000  0.25533300  1
  C  1207  1  0.41554900  0.79569600  0.28920900  1
  C  1208  1  0.42033300  0.83153700  0.36166800  1
  C  1209  1  0.43372000  0.79575400  0.21068500  1
  C  1210  1  0.33650700  0.80921200  0.27212900  1
  C  1211  1  0.47556300  0.74101900  0.29877300  1
  C  1216  1  0.39199500  0.21757200  0.55472700  1
  C  1217  1  0.38863700  0.23973700  0.55178900  1
  C  1218  1  0.40875300  0.24952600  0.54741300  1
  C  1219  1  0.42489600  0.23360500  0.54765300  1
  C  1220  1  0.44713900  0.23901200  0.54550300  1
  C  1221  1  0.45354200  0.26089000  0.54321700  1
  C  1222  1  0.43688400  0.27684000  0.54271300  1
  C  1223  1  0.41463300  0.27131700  0.54470700  1
  C  1224  1  0.36773900  0.24861300  0.55476000  1
  C  1225  1  0.35031200  0.23498700  0.56080400  1
  C  1226  1  0.35342500  0.21247000  0.56393600  1
  C  1227  1  0.37459900  0.20387000  0.56064600  1
  C  1228  1  0.42471400  0.20361100  0.57311700  1
  C  1229  1  0.43545000  0.18402700  0.56951000  1
  C  1230  1  0.43344800  0.17890700  0.54754400  1
  C  1231  1  0.42130100  0.19516700  0.53743600  1
  C  1232  1  0.44176500  0.16163900  0.53527100  1
  C  1233  1  0.43766100  0.16089300  0.51282200  1
  C  1234  1  0.42527900  0.17723300  0.50239900  1
  C  1235  1  0.41708700  0.19447500  0.51507500  1
  C  1236  1  0.42443200  0.21330200  0.59369500  1
  C  1237  1  0.43498100  0.20305700  0.61119000  1
  C  1238  1  0.44548800  0.18298100  0.60761300  1
  C  1239  1  0.44594600  0.17352700  0.58681300  1
  C  1252  1  0.41544900  0.21231500  0.55294400  1
  C  1253  1  0.42034800  0.17649400  0.48047800  1
  C  1254  1  0.43359500  0.21228100  0.63146800  1
  C  1255  1  0.33639700  0.19882900  0.56998300  1
  C  1256  1  0.47546700  0.26697800  0.54326400  1
  C  1261  1  0.68038100  0.63760900  0.13457600  1
  C  1262  1  0.68372100  0.63480000  0.15676200  1
  C  1263  1  0.66359900  0.63047700  0.16656100  1
  C  1264  1  0.64747000  0.63054800  0.15062100  1
  C  1265  1  0.62521900  0.62851100  0.15604000  1
  C  1266  1  0.61880600  0.62638400  0.17793100  1
  C  1267  1  0.63545400  0.62596300  0.19389000  1
  C  1268  1  0.65770700  0.62793600  0.18836600  1
  C  1269  1  0.70458300  0.63795300  0.16565800  1
  C  1270  1  0.72200900  0.64398400  0.15202600  1
  C  1271  1  0.71891700  0.64699500  0.12949100  1
  C  1272  1  0.69776400  0.64359000  0.12088400  1
  C  1273  1  0.64766900  0.65599400  0.12059700  1
  C  1274  1  0.63695500  0.65237200  0.10100400  1
  C  1275  1  0.63894400  0.63040100  0.09591400  1
  C  1276  1  0.65107800  0.62030500  0.11219000  1
  C  1277  1  0.63068000  0.61812700  0.07862100  1
  C  1278  1  0.63478500  0.59567900  0.07789200  1
  C  1279  1  0.64713900  0.58526300  0.09425900  1
  C  1280  1  0.65530200  0.59794600  0.11150800  1
  C  1281  1  0.64792100  0.67657300  0.13028300  1
  C  1282  1  0.63737700  0.69406400  0.12002100  1
  C  1283  1  0.62691500  0.69047300  0.09992100  1
  C  1284  1  0.62647900  0.66966900  0.09047600  1
  C  1297  1  0.65692300  0.63582400  0.12932700  1
  C  1298  1  0.65207200  0.56334200  0.09352900  1
  C  1299  1  0.63870900  0.71434500  0.12925200  1
  C  1300  1  0.73594400  0.65303900  0.11584100  1
  C  1301  1  0.59687800  0.62647000  0.18401200  1
  C  1306  1  0.68046700  0.37032000  0.70749700  1
  C  1307  1  0.68384100  0.37323700  0.68533100  1
  C  1308  1  0.66374400  0.37766200  0.67552600  1
  C  1309  1  0.64757900  0.37737600  0.69142700  1
  C  1310  1  0.62534000  0.37952800  0.68601100  1
  C  1311  1  0.61894900  0.38172500  0.66411900  1
  C  1312  1  0.63561600  0.38220200  0.64817800  1
  C  1313  1  0.65786500  0.38024000  0.65372000  1
  C  1314  1  0.70474800  0.37026500  0.67647700  1
  C  1315  1  0.72216400  0.36422600  0.69012000  1
  C  1316  1  0.71903100  0.36109700  0.71263400  1
  C  1317  1  0.69785100  0.36439800  0.72121400  1
  C  1318  1  0.64774500  0.35193200  0.72144200  1
  C  1319  1  0.63701300  0.35554200  0.74102700  1
  C  1320  1  0.63898000  0.37751500  0.74612200  1
  C  1321  1  0.65112200  0.38762300  0.72985900  1
  C  1322  1  0.63070300  0.38978300  0.76341400  1
  C  1323  1  0.63481300  0.41223000  0.76415900  1
  C  1324  1  0.64718300  0.42265300  0.74781100  1
  C  1325  1  0.65536300  0.40997800  0.73056300  1
  C  1326  1  0.64803900  0.33135100  0.71176000  1
  C  1327  1  0.63748900  0.31385700  0.72200700  1
  C  1328  1  0.62697900  0.31743800  0.74208100  1
  C  1329  1  0.62651100  0.33824200  0.75152500  1
  C  1342  1  0.65700600  0.37210500  0.71273000  1
  C  1343  1  0.65211900  0.44457300  0.74855500  1
  C  1344  1  0.63891000  0.29357600  0.71279700  1
  C  1345  1  0.73604800  0.35505000  0.72629000  1
  C  1346  1  0.59702400  0.38166600  0.65802400  1
  C  1351  1  0.68046600  0.21756500  0.28741100  1
  C  1352  1  0.68382000  0.23973200  0.29034700  1
  C  1353  1  0.66369300  0.24952600  0.29466200  1
  C  1354  1  0.64755500  0.23360200  0.29444800  1
  C  1355  1  0.62530600  0.23900200  0.29654800  1
  C  1356  1  0.61889400  0.26088300  0.29877900  1
  C  1357  1  0.63554600  0.27683800  0.29928300  1
  C  1358  1  0.65779800  0.27132000  0.29730000  1
  C  1359  1  0.70470100  0.24861900  0.28728300  1
  C  1360  1  0.72212900  0.23499400  0.28124200  1
  C  1361  1  0.71902600  0.21246900  0.27815600  1
  C  1362  1  0.69786400  0.20386400  0.28149600  1
  C  1363  1  0.64776500  0.20359000  0.26900500  1
  C  1364  1  0.63702000  0.18401000  0.27261700  1
  C  1365  1  0.63899400  0.17891100  0.29458800  1
  C  1366  1  0.65114700  0.19516900  0.30469400  1
  C  1367  1  0.63071100  0.16162200  0.30685700  1
  C  1368  1  0.63481300  0.16088100  0.32930700  1
  C  1369  1  0.64718200  0.17723200  0.33972900  1
  C  1370  1  0.65536400  0.19447600  0.32705500  1
  C  1371  1  0.64807000  0.21326400  0.24842100  1
  C  1372  1  0.63753100  0.20301200  0.23092600  1
  C  1373  1  0.62700600  0.18294500  0.23450800  1
  C  1374  1  0.62653400  0.17350300  0.25531200  1
  C  1387  1  0.65701000  0.21230700  0.28918200  1
  C  1388  1  0.65211400  0.17649600  0.36165200  1
  C  1389  1  0.63894100  0.21222500  0.21064400  1
  C  1390  1  0.73605100  0.19882700  0.27210000  1
  C  1391  1  0.59696600  0.26696500  0.29872600  1
  C  1396  1  0.68037600  0.79042000  0.55466600  1
  C  1397  1  0.68374200  0.76825200  0.55176500  1
  C  1398  1  0.66363300  0.75845100  0.54738400  1
  C  1399  1  0.64748600  0.77437300  0.54754000  1
  C  1400  1  0.62523700  0.76894600  0.54550800  1
  C  1401  1  0.61883500  0.74705200  0.54339800  1
  C  1402  1  0.63548900  0.73109900  0.54298500  1
  C  1403  1  0.65774100  0.73663600  0.54491700  1
  C  1404  1  0.70462100  0.75937300  0.55485800  1
  C  1405  1  0.72203800  0.77300800  0.56090700  1
  C  1406  1  0.71892800  0.79553600  0.56395700  1
  C  1407  1  0.69776300  0.80413000  0.56059400  1
  C  1408  1  0.64765400  0.80437700  0.57302100  1
  C  1409  1  0.63695000  0.82397800  0.56941700  1
  C  1410  1  0.63895200  0.82909100  0.54745000  1
  C  1411  1  0.65106900  0.81281000  0.53733900  1
  C  1412  1  0.63070900  0.84640300  0.53519000  1
  C  1413  1  0.63482700  0.84715400  0.51274600  1
  C  1414  1  0.64717400  0.83078800  0.50231900  1
  C  1415  1  0.65533300  0.81353000  0.51498800  1
  C  1416  1  0.64789800  0.79467100  0.59359200  1
  C  1417  1  0.63736000  0.80492400  0.61109000  1
  C  1418  1  0.62690000  0.82502800  0.60751600  1
  C  1419  1  0.62647400  0.83449300  0.58672100  1
  C  1432  1  0.65692300  0.79566700  0.55284800  1
  C  1433  1  0.65211400  0.83153500  0.48039900  1
  C  1434  1  0.63868800  0.79567500  0.63136300  1
  C  1435  1  0.73594700  0.80919200  0.57000400  1
  C  1436  1  0.59690900  0.74096400  0.54348300  1
  C  1441  1  0.14168400  0.02586900  0.25922200  1
  C  1443  1  0.12029400  0.99352700  0.26171000  1
  C  1444  1  0.13854100  0.98073700  0.25667500  1
  C  1446  1  0.16043000  0.01310500  0.25471700  1
  C  1448  1  0.18188400  0.02103800  0.25196600  1
  C  1455  1  0.14165400  0.98208100  0.58287900  1
  C  1457  1  0.12026000  0.01441800  0.58036500  1
  C  1458  1  0.13849800  0.02721300  0.58542300  1
  C  1460  1  0.16039500  0.99484900  0.58740200  1
  C  1462  1  0.18184000  0.98690300  0.59019700  1
  C  1469  1  0.14163600  0.66586900  0.94290400  1
  C  1471  1  0.12023300  0.66340300  0.91056800  1
  C  1472  1  0.13848400  0.66840500  0.89776900  1
  C  1474  1  0.16038700  0.67033400  0.93013100  1
  C  1476  1  0.18184200  0.67307200  0.93806600  1
  C  1483  1  0.14168200  0.34217700  0.89915000  1
  C  1485  1  0.12030200  0.34468900  0.93149300  1
  C  1486  1  0.13854400  0.33962400  0.94428100  1
  C  1488  1  0.16042600  0.33764800  0.91191000  1
  C  1490  1  0.18187300  0.33487200  0.90396700  1
  C  1497  1  0.93082600  0.98213000  0.25925100  1
  C  1499  1  0.95223400  0.01446000  0.26175000  1
  C  1500  1  0.93400100  0.02726100  0.25668800  1
  C  1502  1  0.91209200  0.99490400  0.25472000  1
  C  1504  1  0.89063600  0.98698400  0.25195000  1
  C  1511  1  0.93071200  0.02589100  0.58290500  1
  C  1513  1  0.95213000  0.99356400  0.58045200  1
  C  1514  1  0.93388400  0.98075900  0.58545700  1
  C  1516  1  0.91196300  0.01311200  0.58736800  1
  C  1518  1  0.89050400  0.02104400  0.59009500  1
  C  1525  1  0.93071200  0.34219600  0.94291800  1
  C  1527  1  0.95211400  0.34470000  0.91058600  1
  C  1528  1  0.93387900  0.33964200  0.89778900  1
  C  1530  1  0.91197700  0.33766900  0.93014700  1
  C  1532  1  0.89052700  0.33487600  0.93808000  1
  C  1539  1  0.93079800  0.66584300  0.89922700  1
  C  1541  1  0.95220700  0.66337600  0.93155800  1
  C  1542  1  0.93395700  0.66836600  0.94436200  1
  C  1544  1  0.91204700  0.67029400  0.91200500  1
  C  1546  1  0.89058400  0.67299300  0.90408100  1
  C  1553  1  0.64379000  0.52540700  0.75904200  1
  C  1555  1  0.62236000  0.49312000  0.76177000  1
  C  1556  1  0.64045200  0.48031600  0.75623600  1
  C  1558  1  0.66239800  0.51262800  0.75405000  1
  C  1560  1  0.68380900  0.52053000  0.75088000  1
  C  1567  1  0.64377700  0.48251500  0.08301300  1
  C  1569  1  0.62234600  0.51479800  0.08024700  1
  C  1570  1  0.64042500  0.52760100  0.08581300  1
  C  1572  1  0.66237700  0.49529600  0.08803100  1
  C  1574  1  0.68377600  0.48738200  0.09125600  1
  C  1581  1  0.64386500  0.16590500  0.44247900  1
  C  1583  1  0.62240400  0.16321300  0.41020800  1
  C  1584  1  0.64048300  0.16876000  0.39739400  1
  C  1586  1  0.66246200  0.17090700  0.42968700  1
  C  1588  1  0.68387400  0.17408500  0.43757800  1
  C  1595  1  0.64379200  0.84204000  0.39957100  1
  C  1597  1  0.62236700  0.84479400  0.43185800  1
  C  1598  1  0.64044900  0.83922400  0.44465800  1
  C  1600  1  0.66239300  0.83701700  0.41234700  1
  C  1602  1  0.68379400  0.83381600  0.40443900  1
  C  1609  1  0.42869300  0.48257500  0.75914000  1
  C  1611  1  0.45013900  0.51484900  0.76189400  1
  C  1612  1  0.43206500  0.52765900  0.75632200  1
  C  1614  1  0.41010100  0.49536200  0.75411000  1
  C  1616  1  0.38869300  0.48747300  0.75090500  1
  C  1623  1  0.42858600  0.52544600  0.08305800  1
  C  1625  1  0.45004300  0.49317500  0.08036200  1
  C  1626  1  0.43195100  0.48036000  0.08586700  1
  C  1628  1  0.40997600  0.51265400  0.08801100  1
  C  1630  1  0.38856100  0.52055500  0.09115900  1
  C  1637  1  0.42860900  0.84204300  0.44250300  1
  C  1639  1  0.45005500  0.84478600  0.41022700  1
  C  1640  1  0.43197600  0.83922700  0.39741700  1
  C  1642  1  0.41001300  0.83702900  0.42971600  1
  C  1644  1  0.38860800  0.83381600  0.43761500  1
  C  1651  1  0.42861200  0.16595100  0.39964800  1
  C  1653  1  0.45007600  0.16327100  0.43191800  1
  C  1654  1  0.43198900  0.16878400  0.44473400  1
  C  1656  1  0.41000500  0.17090800  0.41244400  1
  C  1658  1  0.38858400  0.17402700  0.40455900  1
  C  1665  1  0.26854500  0.17506700  0.23002300  1
  C  1667  1  0.29351600  0.20492000  0.23033300  1
  C  1668  1  0.30480300  0.19616700  0.24806500  1
  C  1670  1  0.27989700  0.16588800  0.24784700  1
  C  1672  1  0.27512800  0.14574800  0.25757100  1
  C  1679  1  0.26843600  0.83280900  0.61219700  1
  C  1681  1  0.29344400  0.80298700  0.61190000  1
  C  1682  1  0.30470900  0.81174000  0.59415200  1
  C  1684  1  0.27977000  0.84199300  0.59436300  1
  C  1686  1  0.27494200  0.86211100  0.58461700  1
  C  1693  1  0.26832200  0.69486600  0.09206800  1
  C  1695  1  0.29329900  0.69459300  0.12191600  1
  C  1696  1  0.30459500  0.67685900  0.11317300  1
  C  1698  1  0.27969500  0.67705600  0.08288800  1
  C  1700  1  0.27491900  0.66732200  0.06275700  1
  C  1707  1  0.26850400  0.31287100  0.74993400  1
  C  1709  1  0.29349800  0.31314900  0.72009700  1
  C  1710  1  0.30476800  0.33090200  0.72883100  1
  C  1712  1  0.27984400  0.33071300  0.75909500  1
  C  1714  1  0.27505400  0.34046000  0.77921700  1
  C  1721  1  0.80403600  0.83284100  0.22990500  1
  C  1723  1  0.77903900  0.80300900  0.23022200  1
  C  1724  1  0.76777100  0.81176700  0.24796400  1
  C  1726  1  0.79270300  0.84202500  0.24774100  1
  C  1728  1  0.79749700  0.86215500  0.25746900  1
  C  1735  1  0.80394200  0.17504100  0.61207600  1
  C  1737  1  0.77896900  0.20489200  0.61177100  1
  C  1738  1  0.76768200  0.19613900  0.59403700  1
  C  1740  1  0.79258600  0.16585700  0.59425500  1
  C  1742  1  0.79738000  0.14572500  0.58452400  1
  C  1749  1  0.80398100  0.31282900  0.09218600  1
  C  1751  1  0.77898500  0.31310700  0.12202100  1
  C  1752  1  0.76771400  0.33085800  0.11328300  1
  C  1754  1  0.79263000  0.33066000  0.08301200  1
  C  1756  1  0.79743100  0.34041200  0.06289500  1
  C  1763  1  0.80413200  0.69497100  0.75004500  1
  C  1765  1  0.77914000  0.69468700  0.72020700  1
  C  1766  1  0.76786600  0.67693800  0.72894700  1
  C  1768  1  0.79278800  0.67713400  0.75921300  1
  C  1770  1  0.79757200  0.66739900  0.77934100  1
  C  1777  1  0.80344800  0.83562700  0.61013600  1
  C  1779  1  0.77913800  0.80528500  0.60932400  1
  C  1780  1  0.76781800  0.81402200  0.59161100  1
  C  1782  1  0.79207000  0.84477400  0.59231200  1
  C  1784  1  0.79654500  0.86509000  0.58283500  1
  C  1791  1  0.80354900  0.17243400  0.23193600  1
  C  1793  1  0.77921500  0.20275700  0.23275100  1
  C  1794  1  0.76791300  0.19402000  0.25047600  1
  C  1796  1  0.79218500  0.16328200  0.24976500  1
  C  1798  1  0.79670900  0.14297900  0.25925600  1
  C  1805  1  0.80355700  0.31490200  0.75270100  1
  C  1807  1  0.77926100  0.31575400  0.72234900  1
  C  1808  1  0.76793100  0.33345100  0.73110500  1
  C  1810  1  0.79215600  0.33269700  0.76187700  1
  C  1812  1  0.79663200  0.34214900  0.78220500  1
  C  1819  1  0.80342700  0.69320000  0.08939800  1
  C  1821  1  0.77911900  0.69238000  0.11974300  1
  C  1822  1  0.76780200  0.67466400  0.11100800  1
  C  1824  1  0.79204700  0.67537600  0.08025200  1
  C  1826  1  0.79652700  0.66590100  0.05993700  1
  C  1833  1  0.26890000  0.17244400  0.61015400  1
  C  1835  1  0.29321600  0.20277900  0.60931200  1
  C  1836  1  0.30452800  0.19402900  0.59160100  1
  C  1838  1  0.28027000  0.16328400  0.59233300  1
  C  1840  1  0.27578900  0.14296100  0.58287100  1
  C  1847  1  0.26899600  0.83565300  0.23201500  1
  C  1849  1  0.29330300  0.80530800  0.23282300  1
  C  1850  1  0.30463100  0.81404300  0.25053200  1
  C  1852  1  0.28038800  0.84480400  0.24983000  1
  C  1854  1  0.27589300  0.86511500  0.25931300  1
  C  1861  1  0.26901400  0.69315100  0.75266700  1
  C  1863  1  0.29332900  0.69234600  0.72232600  1
  C  1864  1  0.30464500  0.67462700  0.73105800  1
  C  1866  1  0.28040100  0.67533400  0.76181500  1
  C  1868  1  0.27590800  0.66584400  0.78212100  1
  C  1875  1  0.26890300  0.31488700  0.08943300  1
  C  1877  1  0.29321600  0.31571900  0.11977300  1
  C  1878  1  0.30453500  0.33343000  0.11102700  1
  C  1880  1  0.28028200  0.33270500  0.08027600  1
  C  1882  1  0.27580200  0.34216700  0.05995500  1
  C  1889  1  0.13349500  0.23338800  0.18343300  1
  C  1891  1  0.11074200  0.25307000  0.15885500  1
  C  1892  1  0.12885700  0.26469800  0.15123300  1
  C  1894  1  0.15203300  0.24445900  0.17529600  1
  C  1896  1  0.17391000  0.24096100  0.18181200  1
  C  1903  1  0.13343600  0.77449300  0.65859300  1
  C  1905  1  0.11060400  0.75458300  0.68291500  1
  C  1906  1  0.12872900  0.74306100  0.69067200  1
  C  1908  1  0.15197800  0.76352700  0.66686000  1
  C  1910  1  0.17388100  0.76718000  0.66050700  1
  C  1917  1  0.13353100  0.74157100  0.15057800  1
  C  1919  1  0.11072300  0.76594800  0.17044500  1
  C  1920  1  0.12884100  0.77363400  0.18203000  1
  C  1922  1  0.15207200  0.74979300  0.16157700  1
  C  1924  1  0.17397100  0.74341000  0.15795900  1
  C  1931  1  0.13355500  0.26637200  0.69160500  1
  C  1933  1  0.11078100  0.24189700  0.67182600  1
  C  1934  1  0.12889400  0.23424800  0.66020900  1
  C  1936  1  0.15209600  0.25819600  0.68057100  1
  C  1938  1  0.17398400  0.26463700  0.68414500  1
  C  1945  1  0.93897300  0.77455300  0.18348900  1
  C  1947  1  0.96177900  0.75468800  0.15910600  1
  C  1948  1  0.94365400  0.74313700  0.15139000  1
  C  1950  1  0.92042900  0.76355600  0.17526400  1
  C  1952  1  0.89853100  0.76717000  0.18164400  1
  C  1959  1  0.93887500  0.23346800  0.65859700  1
  C  1961  1  0.96162700  0.25317300  0.68315500  1
  C  1962  1  0.94350300  0.26476800  0.69080400  1
  C  1964  1  0.92032800  0.24450100  0.66676600  1
  C  1966  1  0.89845200  0.24096100  0.66025900  1
  C  1973  1  0.93886700  0.26647700  0.15052800  1
  C  1975  1  0.96163400  0.24196800  0.17028000  1
  C  1976  1  0.94351800  0.23432700  0.18189900  1
  C  1978  1  0.92032500  0.25829600  0.16155900  1
  C  1980  1  0.89844100  0.26475800  0.15800000  1
  C  1987  1  0.93899700  0.74163100  0.69161100  1
  C  1989  1  0.96181300  0.76597100  0.67171100  1
  C  1990  1  0.94369800  0.77367000  0.66013100  1
  C  1992  1  0.92045700  0.74985000  0.68060800  1
  C  1994  1  0.89855700  0.74349100  0.68424300  1
  C  2001  1  0.63631100  0.73339400  0.68447400  1
  C  2003  1  0.61340400  0.75317500  0.66012000  1
  C  2004  1  0.63152500  0.76456800  0.65216300  1
  C  2006  1  0.65484300  0.74422000  0.67599900  1
  C  2008  1  0.67678100  0.74051700  0.68219300  1
  C  2015  1  0.63628800  0.27447800  0.15754900  1
  C  2017  1  0.61332600  0.25450300  0.18169200  1
  C  2018  1  0.63145500  0.24320300  0.18976100  1
  C  2020  1  0.65482300  0.26374200  0.16613300  1
  C  2022  1  0.67677800  0.26758100  0.16006700  1
  C  2029  1  0.63637500  0.24043400  0.65055100  1
  C  2031  1  0.61341700  0.26461600  0.67048900  1
  C  2032  1  0.63154000  0.27265200  0.68182800  1
  C  2034  1  0.65490700  0.24901300  0.66129500  1
  C  2036  1  0.67686200  0.24295100  0.65747200  1
  C  2043  1  0.63636700  0.76743500  0.19157200  1
  C  2045  1  0.61344000  0.74319000  0.17168500  1
  C  2046  1  0.63156100  0.73519400  0.16031500  1
  C  2048  1  0.65490200  0.75890900  0.18079500  1
  C  2050  1  0.67684900  0.76501800  0.18458700  1
  C  2057  1  0.43615100  0.27455900  0.68455500  1
  C  2059  1  0.45910000  0.25461800  0.66037000  1
  C  2060  1  0.44097100  0.24330300  0.65232400  1
  C  2062  1  0.41761600  0.26380500  0.67599600  1
  C  2064  1  0.39566000  0.26761900  0.68206700  1
  C  2071  1  0.43606000  0.73348200  0.15755100  1
  C  2073  1  0.45896900  0.75330100  0.18187100  1
  C  2074  1  0.44083800  0.76465200  0.18986400  1
  C  2076  1  0.41752000  0.74426200  0.16606700  1
  C  2078  1  0.39558200  0.74050400  0.15989300  1
  C  2085  1  0.43603400  0.76753300  0.65057100  1
  C  2087  1  0.45894700  0.74324400  0.67042400  1
  C  2088  1  0.44082100  0.73526900  0.68180200  1
  C  2090  1  0.41749700  0.75901400  0.66135200  1
  C  2092  1  0.39555400  0.76515500  0.65758000  1
  C  2099  1  0.43615700  0.24054900  0.19160900  1
  C  2101  1  0.45911500  0.26469200  0.17163500  1
  C  2102  1  0.44099400  0.27272800  0.16029200  1
  C  2104  1  0.41762600  0.24911000  0.18085800  1
  C  2106  1  0.39566800  0.24306400  0.18469500  1
  C  2113  1  0.01302600  0.11963800  0.16924500  1
  C  2115  1  0.04456100  0.13572100  0.15284400  1
  C  2116  1  0.05841700  0.12357600  0.16624300  1
  C  2118  1  0.02683800  0.10753500  0.18313700  1
  C  2120  1  0.01974500  0.09343300  0.19979900  1
  C  2127  1  0.01290300  0.88832800  0.67289800  1
  C  2129  1  0.04443200  0.87228200  0.68934600  1
  C  2130  1  0.05829300  0.88439900  0.67592900  1
  C  2132  1  0.02672000  0.90039400  0.65898000  1
  C  2134  1  0.01962400  0.91448100  0.64230400  1
  C  2141  1  0.01299500  0.75541100  0.03648200  1
  C  2143  1  0.04460700  0.77133400  0.05289800  1
  C  2144  1  0.05838500  0.75800200  0.04059200  1
  C  2146  1  0.02674100  0.74155200  0.02426700  1
  C  2148  1  0.01954900  0.72510800  0.00995900  1
  C  2155  1  0.01301900  0.25219300  0.80552400  1
  C  2157  1  0.04455300  0.23574100  0.78949700  1
  C  2158  1  0.05841500  0.24912600  0.80165300  1
  C  2160  1  0.02683000  0.26608000  0.81763000  1
  C  2162  1  0.01973400  0.28277100  0.83169600  1
  C  2169  1  0.05956400  0.88837900  0.16917900  1
  C  2171  1  0.02803500  0.87233700  0.15272500  1
  C  2172  1  0.01417300  0.88445400  0.16614300  1
  C  2174  1  0.04574700  0.90045400  0.18308900  1
  C  2176  1  0.05283100  0.91452300  0.19978300  1
  C  2183  1  0.05943700  0.11971300  0.67287500  1
  C  2185  1  0.02790300  0.13582500  0.68924900  1
  C  2186  1  0.01404800  0.12365400  0.67587400  1
  C  2188  1  0.04562400  0.10759500  0.65899800  1
  C  2190  1  0.05272800  0.09345100  0.64237300  1
  C  2197  1  0.05947700  0.25208400  0.03666600  1
  C  2199  1  0.02792900  0.23572700  0.05277600  1
  C  2200  1  0.01407800  0.24907600  0.04056900  1
  C  2202  1  0.04567000  0.26595700  0.02453800  1
  C  2204  1  0.05277500  0.28257900  0.01039500  1
  C  2211  1  0.05949700  0.75562300  0.80546800  1
  C  2213  1  0.02794700  0.77185300  0.78925000  1
  C  2214  1  0.01410800  0.75852500  0.80149200  1
  C  2216  1  0.04570400  0.74178400  0.81765100  1
  C  2218  1  0.05282800  0.72520800  0.83183900  1
  C  2225  1  0.51269800  0.62087000  0.66865500  1
  C  2227  1  0.54433400  0.63621300  0.65170700  1
  C  2228  1  0.55815300  0.62439500  0.66543600  1
  C  2230  1  0.52645400  0.60904100  0.68282600  1
  C  2232  1  0.51931700  0.59533700  0.69979600  1
  C  2239  1  0.51255500  0.38711200  0.17351100  1
  C  2241  1  0.54419200  0.37185200  0.19053100  1
  C  2242  1  0.55800900  0.38359600  0.17673600  1
  C  2244  1  0.52630900  0.39885900  0.15927100  1
  C  2246  1  0.51916100  0.41249400  0.14224700  1
  C  2253  1  0.51255200  0.25645700  0.53775900  1
  C  2255  1  0.54417400  0.27336300  0.55317800  1
  C  2256  1  0.55800600  0.25966800  0.54133100  1
  C  2258  1  0.52632000  0.24229200  0.52593700  1
  C  2260  1  0.51919000  0.22534600  0.51220000  1
  C  2267  1  0.51265100  0.75155000  0.30429500  1
  C  2269  1  0.54428200  0.73450500  0.28905700  1
  C  2270  1  0.55810700  0.74826100  0.30083700  1
  C  2272  1  0.52640700  0.76575000  0.31608500  1
  C  2274  1  0.51927000  0.78278600  0.32970700  1
  C  2281  1  0.55993200  0.38716300  0.66855500  1
  C  2283  1  0.52829000  0.37193100  0.65152000  1
  C  2284  1  0.51447600  0.38365500  0.66533400  1
  C  2286  1  0.54618300  0.39889900  0.68280700  1
  C  2288  1  0.55332400  0.41249800  0.69986100  1
  C  2295  1  0.55978800  0.62093900  0.17350600  1
  C  2297  1  0.52816100  0.63627600  0.19047100  1
  C  2298  1  0.51433600  0.62446200  0.17674400  1
  C  2300  1  0.54602600  0.60912200  0.15933000  1
  C  2302  1  0.55317000  0.59541100  0.14236500  1
  C  2309  1  0.55982600  0.75147000  0.53789100  1
  C  2311  1  0.52818200  0.73451600  0.55321300  1
  C  2312  1  0.51436600  0.74824000  0.54138300  1
  C  2314  1  0.54607500  0.76566100  0.52608200  1
  C  2316  1  0.55322200  0.78263600  0.51238900  1
  C  2323  1  0.55987800  0.25644100  0.30422300  1
  C  2325  1  0.52826200  0.27341100  0.28887200  1
  C  2326  1  0.51442700  0.25972900  0.30072600  1
  C  2328  1  0.54611100  0.24230900  0.31608200  1
  C  2330  1  0.55323500  0.22534300  0.32979800  1
  N  1442  1  0.12256000  0.01531900  0.26261700  1
  N  1445  1  0.15773800  0.99128500  0.25352700  1
  N  1450  1  0.19036500  0.03740200  0.26372300  1
  N  1453  1  0.14053800  0.04737800  0.25990000  1
  N  1454  1  0.13656200  0.95932500  0.25555100  1
  N  1456  1  0.12253200  0.99262600  0.57946000  1
  N  1459  1  0.15769400  0.01666800  0.58859400  1
  N  1464  1  0.19032300  0.97048700  0.57851200  1
  N  1467  1  0.14051800  0.96057300  0.58218900  1
  N  1468  1  0.13651500  0.04862500  0.58654300  1
  N  1470  1  0.12250200  0.66251200  0.93235900  1
  N  1473  1  0.15768900  0.67152400  0.90831300  1
  N  1478  1  0.19030800  0.66133700  0.95445300  1
  N  1481  1  0.14047600  0.66524200  0.96441500  1
  N  1482  1  0.13649900  0.66952800  0.87635600  1
  N  1484  1  0.12256300  0.34558600  0.90970100  1
  N  1487  1  0.15773600  0.33645700  0.93372800  1
  N  1492  1  0.19037000  0.34662900  0.88761000  1
  N  1495  1  0.14053400  0.34284500  0.87763800  1
  N  1496  1  0.13656800  0.33850100  0.96569200  1
  N  1498  1  0.94995200  0.99267000  0.26266400  1
  N  1501  1  0.91480100  0.01672200  0.25352200  1
  N  1506  1  0.88213100  0.97063100  0.26370400  1
  N  1509  1  0.93195500  0.96062000  0.25993600  1
  N  1510  1  0.93599500  0.04867200  0.25555400  1
  N  1512  1  0.94985000  0.01535500  0.57954400  1
  N  1515  1  0.91467400  0.99129400  0.58856900  1
  N  1520  1  0.88204500  0.03744300  0.57837000  1
  N  1523  1  0.93185100  0.04740200  0.58223100  1
  N  1524  1  0.93587900  0.95934900  0.58659000  1
  N  1526  1  0.94984000  0.34559900  0.93237700  1
  N  1529  1  0.91467900  0.33647600  0.90832900  1
  N  1534  1  0.88202500  0.34659200  0.95446400  1
  N  1537  1  0.93185700  0.34285000  0.96443000  1
  N  1538  1  0.93586900  0.33852000  0.87637700  1
  N  1540  1  0.94993600  0.66249300  0.90976700  1
  N  1543  1  0.91474600  0.67147400  0.93382300  1
  N  1548  1  0.88211300  0.66119300  0.88774100  1
  N  1551  1  0.93195200  0.66520800  0.87771400  1
  N  1552  1  0.93594300  0.66948000  0.96577600  1
  N  1554  1  0.62470900  0.51489800  0.76277600  1
  N  1557  1  0.65961100  0.49082900  0.75275500  1
  N  1562  1  0.69256600  0.53686300  0.76248000  1
  N  1565  1  0.64276100  0.54691200  0.75984900  1
  N  1566  1  0.63839600  0.45892300  0.75499600  1
  N  1568  1  0.62470000  0.49302000  0.07924400  1
  N  1571  1  0.65957900  0.51709300  0.08932500  1
  N  1576  1  0.69253800  0.47099300  0.07973400  1
  N  1579  1  0.64275700  0.46101000  0.08219700  1
  N  1580  1  0.63836400  0.54899600  0.08704700  1
  N  1582  1  0.62477100  0.16219600  0.43198200  1
  N  1585  1  0.65965300  0.17222600  0.40789300  1
  N  1590  1  0.69264600  0.16249700  0.45391500  1
  N  1593  1  0.64283700  0.16512100  0.46398500  1
  N  1594  1  0.63840800  0.17001700  0.37600200  1
  N  1596  1  0.62471400  0.84579300  0.41008000  1
  N  1599  1  0.65960300  0.83572100  0.43414500  1
  N  1604  1  0.69257400  0.84541500  0.38811700  1
  N  1607  1  0.64276200  0.84283700  0.37806400  1
  N  1608  1  0.63839300  0.83798400  0.46605200  1
  N  1610  1  0.44777400  0.49307300  0.76290500  1
  N  1613  1  0.41290700  0.51715800  0.75281200  1
  N  1618  1  0.37990400  0.47114800  0.76249300  1
  N  1621  1  0.42970700  0.46106800  0.75995100  1
  N  1622  1  0.43413600  0.54905300  0.75507400  1
  N  1624  1  0.44768100  0.51495100  0.07935300  1
  N  1627  1  0.41277900  0.49085800  0.08931400  1
  N  1632  1  0.37982600  0.53692400  0.07958900  1
  N  1635  1  0.42960900  0.54695300  0.08225300  1
  N  1636  1  0.43402200  0.45896600  0.08711000  1
  N  1638  1  0.44769400  0.84578500  0.43200500  1
  N  1641  1  0.41281500  0.83573100  0.40791800  1
  N  1646  1  0.37982900  0.84537500  0.45396700  1
  N  1649  1  0.42963500  0.84282600  0.46401000  1
  N  1650  1  0.43404600  0.83798900  0.37602300  1
  N  1652  1  0.44771200  0.16226300  0.41014100  1
  N  1655  1  0.41281200  0.17221800  0.43423900  1
  N  1660  1  0.37982300  0.16237100  0.38826700  1
  N  1663  1  0.42964000  0.16516800  0.37814000  1
  N  1664  1  0.43406300  0.17003500  0.46612600  1
  N  1666  1  0.27612600  0.19412300  0.22212200  1
  N  1669  1  0.29732100  0.17699400  0.25589000  1
  N  1674  1  0.26903200  0.12799600  0.24639300  1
  N  1677  1  0.25115300  0.16699700  0.21985900  1
  N  1678  1  0.32224500  0.20642600  0.25590300  1
  N  1680  1  0.27604600  0.81376900  0.62011100  1
  N  1683  1  0.29719900  0.83089600  0.58631700  1
  N  1688  1  0.26872900  0.87984700  0.59576100  1
  N  1691  1  0.25104800  0.84087600  0.62236600  1
  N  1692  1  0.32215700  0.80149600  0.58630900  1
  N  1694  1  0.27590500  0.70278800  0.11111500  1
  N  1697  1  0.29712300  0.66902800  0.09400100  1
  N  1702  1  0.26880200  0.67848300  0.04499900  1
  N  1705  1  0.25095000  0.70504000  0.08397400  1
  N  1706  1  0.32205500  0.66905200  0.12342700  1
  N  1708  1  0.27610700  0.30494400  0.73089700  1
  N  1711  1  0.29727100  0.33874600  0.74798800  1
  N  1716  1  0.26898300  0.32930000  0.79699100  1
  N  1719  1  0.25111600  0.30271000  0.75801200  1
  N  1720  1  0.32222100  0.33873000  0.71857900  1
  N  1722  1  0.79643200  0.81379300  0.22200300  1
  N  1725  1  0.77527400  0.83093000  0.25578900  1
  N  1730  1  0.80361400  0.87990500  0.24629600  1
  N  1733  1  0.82142600  0.84090500  0.21973600  1
  N  1734  1  0.75032100  0.80152400  0.25580900  1
  N  1736  1  0.79635900  0.19409500  0.61997900  1
  N  1739  1  0.77516400  0.17696900  0.58621200  1
  N  1744  1  0.80355700  0.12798700  0.59568400  1
  N  1747  1  0.82132800  0.16696600  0.62224500  1
  N  1748  1  0.75023800  0.20639900  0.58620000  1
  N  1750  1  0.79638000  0.30490600  0.11122500  1
  N  1753  1  0.77520600  0.33869600  0.09412100  1
  N  1758  1  0.80356700  0.32926800  0.04513400  1
  N  1761  1  0.82136600  0.30266700  0.08410600  1
  N  1762  1  0.75025600  0.33868000  0.12353000  1
  N  1764  1  0.79653100  0.70289300  0.73100500  1
  N  1767  1  0.77535800  0.66910100  0.74810800  1
  N  1772  1  0.80362700  0.67857200  0.79711000  1
  N  1775  1  0.82150900  0.70514500  0.75812600  1
  N  1776  1  0.75040800  0.66912000  0.71869700  1
  N  1778  1  0.79621700  0.81634500  0.61778300  1
  N  1781  1  0.77494100  0.83340900  0.58400400  1
  N  1786  1  0.80214700  0.88284800  0.59425700  1
  N  1789  1  0.82055500  0.84383700  0.62059200  1
  N  1790  1  0.75080300  0.80337100  0.58349200  1
  N  1792  1  0.79629900  0.19170800  0.22428600  1
  N  1795  1  0.77505800  0.17464100  0.25808300  1
  N  1800  1  0.80241500  0.12523600  0.24785900  1
  N  1803  1  0.82065100  0.16422500  0.22146900  1
  N  1804  1  0.75089600  0.20466100  0.25860400  1
  N  1806  1  0.79633800  0.30728400  0.73340200  1
  N  1809  1  0.77503500  0.34102100  0.75051300  1
  N  1814  1  0.80226600  0.33071500  0.79994500  1
  N  1817  1  0.82066200  0.30443600  0.76090500  1
  N  1818  1  0.75091400  0.34157400  0.72046000  1
  N  1820  1  0.79619400  0.70084400  0.10868200  1
  N  1823  1  0.77492300  0.66706300  0.09161900  1
  N  1828  1  0.80210100  0.67732600  0.04217300  1
  N  1831  1  0.82054000  0.70365100  0.08119300  1
  N  1832  1  0.75079200  0.66653700  0.12166300  1
  N  1834  1  0.27613800  0.19173000  0.61778500  1
  N  1837  1  0.29739800  0.17463700  0.58401000  1
  N  1842  1  0.27018000  0.12521400  0.59430400  1
  N  1845  1  0.25179900  0.16423900  0.62062100  1
  N  1846  1  0.32154600  0.20466800  0.58347100  1
  N  1848  1  0.27622200  0.81636800  0.22436800  1
  N  1851  1  0.29751200  0.83343200  0.25813700  1
  N  1856  1  0.27020800  0.88285900  0.24790700  1
  N  1859  1  0.25189300  0.84386700  0.22155600  1
  N  1860  1  0.32164700  0.80338900  0.25864600  1
  N  1862  1  0.27625000  0.70080400  0.73338600  1
  N  1865  1  0.29752300  0.66702300  0.75044500  1
  N  1870  1  0.27027000  0.67724500  0.79988200  1
  N  1873  1  0.25190900  0.70360900  0.76088100  1
  N  1874  1  0.32166500  0.66651000  0.72040800  1
  N  1876  1  0.27613900  0.30725000  0.10871900  1
  N  1879  1  0.29741100  0.34102100  0.09163400  1
  N  1884  1  0.27023100  0.33073100  0.04219700  1
  N  1887  1  0.25180000  0.30442100  0.08122900  1
  N  1888  1  0.32155500  0.34154900  0.12166900  1
  N  1890  1  0.11372800  0.23809300  0.17458600  1
  N  1893  1  0.14864200  0.25958100  0.15966800  1
  N  1898  1  0.18236700  0.22148800  0.18707900  1
  N  1901  1  0.13526000  0.21756200  0.19780700  1
  N  1902  1  0.12729700  0.27745000  0.13410100  1
  N  1904  1  0.11362500  0.76962700  0.66725400  1
  N  1907  1  0.14855100  0.74833200  0.68241300  1
  N  1912  1  0.18222800  0.78671000  0.65527200  1
  N  1915  1  0.13521900  0.79037300  0.64428000  1
  N  1916  1  0.12705900  0.73018500  0.70771100  1
  N  1918  1  0.11373600  0.75029400  0.15539600  1
  N  1921  1  0.14865200  0.76534100  0.17677500  1
  N  1926  1  0.18236200  0.73820800  0.13843900  1
  N  1929  1  0.13529400  0.72729200  0.13467000  1
  N  1930  1  0.12718300  0.79071700  0.19483600  1
  N  1932  1  0.11377500  0.25758900  0.68684100  1
  N  1935  1  0.14869100  0.24260100  0.66541800  1
  N  1940  1  0.18240600  0.26981700  0.70365400  1
  N  1943  1  0.13531100  0.28071400  0.70746000  1
  N  1944  1  0.12733700  0.21708700  0.64749900  1
  N  1946  1  0.95877000  0.76972200  0.17477800  1
  N  1949  1  0.92384400  0.74837600  0.15969600  1
  N  1954  1  0.89013800  0.78668900  0.18683400  1
  N  1957  1  0.93720700  0.79043800  0.19779700  1
  N  1958  1  0.94528300  0.73030100  0.13432000  1
  N  1960  1  0.95864600  0.23819800  0.66742200  1
  N  1963  1  0.92371500  0.25962300  0.68239600  1
  N  1968  1  0.89005200  0.22147700  0.65493100  1
  N  1971  1  0.93711400  0.21763000  0.64423800  1
  N  1972  1  0.94505000  0.27748900  0.70795800  1
  N  1974  1  0.95864100  0.25766900  0.15527500  1
  N  1977  1  0.92372500  0.24269900  0.17671000  1
  N  1982  1  0.89001900  0.26999500  0.13850300  1
  N  1985  1  0.93710700  0.28080200  0.13465800  1
  N  1986  1  0.94511600  0.21718600  0.19463000  1
  N  1988  1  0.95879800  0.75032600  0.68677100  1
  N  1991  1  0.92388300  0.76539600  0.66541000  1
  N  1996  1  0.89016400  0.73835900  0.70377900  1
  N  1999  1  0.93723600  0.72733600  0.70750600  1
  N  2000  1  0.94531800  0.79077100  0.64734400  1
  N  2002  1  0.61646700  0.73824900  0.67588600  1
  N  2005  1  0.65138000  0.75928700  0.66033100  1
  N  2010  1  0.68511200  0.72098000  0.68741900  1
  N  2013  1  0.63812800  0.71754600  0.69881100  1
  N  2014  1  0.62986700  0.77718200  0.63493900  1
  N  2016  1  0.61641300  0.26948800  0.16598400  1
  N  2019  1  0.65133600  0.24861400  0.18173600  1
  N  2024  1  0.68500900  0.28716700  0.15485000  1
  N  2027  1  0.63811000  0.29038100  0.14327300  1
  N  2028  1  0.62970400  0.23048300  0.20690500  1
  N  2030  1  0.61650400  0.24890600  0.65550900  1
  N  2033  1  0.65141600  0.26462100  0.67641800  1
  N  2038  1  0.68512800  0.23777900  0.63789200  1
  N  2041  1  0.63818600  0.22617600  0.63463400  1
  N  2042  1  0.62978400  0.28984200  0.69448000  1
  N  2044  1  0.61650900  0.75891800  0.18665000  1
  N  2047  1  0.65142700  0.74327400  0.16569900  1
  N  2052  1  0.68513600  0.77015700  0.20416600  1
  N  2055  1  0.63816800  0.78174000  0.20744900  1
  N  2056  1  0.62990300  0.71794200  0.14774700  1
  N  2058  1  0.45602000  0.26959300  0.67608800  1
  N  2061  1  0.42109700  0.24869200  0.66037700  1
  N  2066  1  0.38739100  0.28719600  0.68723500  1
  N  2069  1  0.43434100  0.29046200  0.69883100  1
  N  2070  1  0.44269300  0.23062100  0.63515200  1
  N  2072  1  0.45590900  0.73837100  0.16610700  1
  N  2075  1  0.42098000  0.75933100  0.18173300  1
  N  2080  1  0.38731100  0.72095200  0.15461400  1
  N  2083  1  0.43424700  0.71761200  0.14323600  1
  N  2084  1  0.44248900  0.77723700  0.20710900  1
  N  2086  1  0.45588300  0.75898200  0.65546900  1
  N  2089  1  0.42096400  0.74337600  0.67644800  1
  N  2094  1  0.38726300  0.77035500  0.63801800  1
  N  2097  1  0.43423200  0.78182100  0.63467700  1
  N  2098  1  0.44251500  0.71803400  0.69439300  1
  N  2100  1  0.45603100  0.24899800  0.18663200  1
  N  2103  1  0.42111700  0.26471000  0.16572600  1
  N  2108  1  0.38740400  0.23795800  0.20429300  1
  N  2111  1  0.43435200  0.22627900  0.20752100  1
  N  2112  1  0.44270400  0.28993400  0.14766000  1
  N  2114  1  0.02266400  0.13337200  0.15493600  1
  N  2117  1  0.04877000  0.11038300  0.18096900  1
  N  2122  1  0.00108500  0.08181300  0.19932900  1
  N  2125  1  0.99146900  0.11998800  0.17183700  1
  N  2126  1  0.07982000  0.12693800  0.16639100  1
  N  2128  1  0.02253500  0.87462700  0.68724300  1
  N  2131  1  0.04865100  0.89756100  0.66117100  1
  N  2136  1  0.00092900  0.92605300  0.64274100  1
  N  2139  1  0.99134500  0.88799800  0.67031000  1
  N  2140  1  0.07970100  0.88105300  0.67581500  1
  N  2142  1  0.02270100  0.76944200  0.05045600  1
  N  2145  1  0.04868100  0.74350200  0.02720900  1
  N  2150  1  0.00090100  0.72583600  0.99833200  1
  N  2153  1  0.99142700  0.75293100  0.03682300  1
  N  2154  1  0.07972900  0.75741000  0.04411600  1
  N  2156  1  0.02265500  0.23786300  0.79181200  1
  N  2159  1  0.04876200  0.26388900  0.81480200  1
  N  2164  1  0.00107200  0.28232200  0.84331300  1
  N  2167  1  0.99146100  0.25477500  0.80515900  1
  N  2168  1  0.07981100  0.24930200  0.79826300  1
  N  2170  1  0.04993200  0.87467700  0.15483400  1
  N  2173  1  0.02381600  0.89761400  0.18090100  1
  N  2178  1  0.07148700  0.92614800  0.19934200  1
  N  2181  1  0.08111900  0.88803300  0.17177700  1
  N  2182  1  0.99276400  0.88110900  0.16625400  1
  N  2184  1  0.04980000  0.13347000  0.68716400  1
  N  2187  1  0.02369100  0.11043800  0.66116800  1
  N  2192  1  0.07142600  0.08188900  0.64285400  1
  N  2195  1  0.08099400  0.12004400  0.67029000  1
  N  2196  1  0.99264700  0.12701900  0.67571100  1
  N  2198  1  0.04982800  0.23782100  0.05044200  1
  N  2201  1  0.02373600  0.26378300  0.02736500  1
  N  2206  1  0.07145000  0.28208500  0.99879800  1
  N  2209  1  0.08103200  0.25467300  0.03703500  1
  N  2210  1  0.99267600  0.24922900  0.04394100  1
  N  2212  1  0.04984700  0.76981600  0.79162300  1
  N  2215  1  0.02377000  0.74388500  0.81476500  1
  N  2220  1  0.07147800  0.72578100  0.84346700  1
  N  2223  1  0.08106100  0.75308300  0.80512900  1
  N  2224  1  0.99273300  0.75817500  0.79804700  1
  N  2226  1  0.52242000  0.63409000  0.65391900  1
  N  2229  1  0.54839500  0.61166900  0.68051700  1
  N  2234  1  0.50066000  0.58370500  0.69953900  1
  N  2237  1  0.49112200  0.62126200  0.67117800  1
  N  2238  1  0.57964800  0.62743900  0.66512400  1
  N  2240  1  0.52227700  0.37396800  0.18831400  1
  N  2243  1  0.54824800  0.39624500  0.16159200  1
  N  2248  1  0.50047300  0.42408200  0.14244700  1
  N  2251  1  0.49098000  0.38673100  0.17099700  1
  N  2252  1  0.57950600  0.38056000  0.17706500  1
  N  2254  1  0.52226400  0.27115200  0.55103200  1
  N  2257  1  0.54825800  0.24459800  0.52858800  1
  N  2262  1  0.50053300  0.22561600  0.50056700  1
  N  2265  1  0.49097900  0.25392600  0.53815800  1
  N  2266  1  0.57948500  0.25991300  0.54446200  1
  N  2268  1  0.52236800  0.73675200  0.29114200  1
  N  2271  1  0.54834600  0.76341400  0.31347800  1
  N  2276  1  0.50061600  0.78257900  0.34134400  1
  N  2279  1  0.49107500  0.75406800  0.30388900  1
  N  2280  1  0.57959900  0.74795600  0.29777000  1
  N  2282  1  0.55020500  0.37403800  0.65373700  1
  N  2285  1  0.52424300  0.39628200  0.68049200  1
  N  2290  1  0.57197500  0.42413800  0.69966700  1
  N  2293  1  0.58150600  0.38676400  0.67107200  1
  N  2294  1  0.49297800  0.38062100  0.66500700  1
  N  2296  1  0.55007300  0.63415300  0.18825100  1
  N  2299  1  0.52408700  0.61174400  0.16165300  1
  N  2304  1  0.57186300  0.58383300  0.14260500  1
  N  2307  1  0.58136500  0.62131700  0.17098100  1
  N  2308  1  0.49284200  0.62750800  0.17706500  1
  N  2310  1  0.55009600  0.73673500  0.55110800  1
  N  2313  1  0.52413400  0.76334300  0.52869100  1
  N  2318  1  0.57188900  0.78238700  0.50077200  1
  N  2321  1  0.58139900  0.75399000  0.53830100  1
  N  2322  1  0.49287500  0.74793200  0.54444200  1
  N  2324  1  0.55017400  0.27116700  0.29098000  1
  N  2327  1  0.52417300  0.24464100  0.31345400  1
  N  2332  1  0.57188500  0.22560300  0.34143900  1
  N  2335  1  0.58145400  0.25391300  0.30383200  1
  N  2336  1  0.49293800  0.26002100  0.29765100  1
  O  1449  1  0.19560200  0.01001000  0.23888000  1
  O  1463  1  0.19559700  0.99805200  0.60314600  1
  O  1477  1  0.19561400  0.68605800  0.92698100  1
  O  1491  1  0.19561500  0.32183700  0.91502900  1
  O  1505  1  0.87694000  0.99801700  0.23884200  1
  O  1519  1  0.87671600  0.00989400  0.60301000  1
  O  1533  1  0.87679500  0.32184800  0.92699900  1
  O  1547  1  0.87680400  0.68598000  0.91515400  1
  O  1561  1  0.69722500  0.50951700  0.73747500  1
  O  1575  1  0.69722700  0.49851500  0.10453000  1
  O  1589  1  0.69731600  0.18742500  0.42651900  1
  O  1603  1  0.69723000  0.82045900  0.41548700  1
  O  1617  1  0.37530700  0.49849100  0.73747500  1
  O  1631  1  0.37507300  0.50942200  0.10439500  1
  O  1645  1  0.37517900  0.82046900  0.42654700  1
  O  1659  1  0.37511300  0.18734900  0.41560900  1
  O  1673  1  0.27947200  0.14326300  0.27885500  1
  O  1687  1  0.27947400  0.86464200  0.56337600  1
  O  1701  1  0.27935500  0.64605900  0.06024100  1
  O  1715  1  0.27945300  0.36173300  0.78171200  1
  O  1729  1  0.79316100  0.86463800  0.27875500  1
  O  1743  1  0.79284300  0.14318500  0.56328400  1
  O  1757  1  0.79301100  0.36168000  0.06039700  1
  O  1771  1  0.79317600  0.64612800  0.78184600  1
  O  1785  1  0.79238400  0.86769500  0.56153000  1
  O  1799  1  0.79236100  0.14032500  0.28052100  1
  O  1813  1  0.79237400  0.36342800  0.78487800  1
  O  1827  1  0.79229900  0.64461200  0.05729400  1
  O  1841  1  0.27994500  0.14034000  0.56156600  1
  O  1855  1  0.28025600  0.86777400  0.28057200  1
  O  1869  1  0.28015000  0.64455700  0.78475500  1
  O  1883  1  0.28002800  0.36345400  0.05729900  1
  O  1897  1  0.18795300  0.25777600  0.18061900  1
  O  1911  1  0.18805800  0.75049200  0.66192800  1
  O  1925  1  0.18811100  0.74471400  0.17468600  1
  O  1939  1  0.18809800  0.26335000  0.66739400  1
  O  1953  1  0.88441500  0.75041800  0.18040200  1
  O  1967  1  0.88434000  0.25770600  0.66163200  1
  O  1981  1  0.88433500  0.26347800  0.17475900  1
  O  1995  1  0.88440700  0.74479800  0.66752500  1
  O  2009  1  0.69098100  0.75717700  0.68070900  1
  O  2023  1  0.69109700  0.25104100  0.16176400  1
  O  2037  1  0.69115700  0.24456100  0.67404200  1
  O  2051  1  0.69112800  0.76343300  0.16800100  1
  O  2065  1  0.38139300  0.25102000  0.68053400  1
  O  2079  1  0.38130900  0.75708800  0.16155900  1
  O  2093  1  0.38128900  0.76358500  0.67417900  1
  O  2107  1  0.38136600  0.24466700  0.16813300  1
  O  2121  1  0.03319500  0.09011200  0.21681000  1
  O  2135  1  0.03311900  0.91786300  0.62534200  1
  O  2149  1  0.03289400  0.70805800  0.00642900  1
  O  2163  1  0.03321400  0.29974900  0.83505300  1
  O  2177  1  0.03937300  0.91780700  0.21679500  1
  O  2191  1  0.03923800  0.09000700  0.62541700  1
  O  2205  1  0.03931100  0.29956000  0.00698200  1
  O  2219  1  0.03938900  0.70821500  0.83529200  1
  O  2233  1  0.53276000  0.59234900  0.71687300  1
  O  2247  1  0.53264200  0.41549600  0.12520200  1
  O  2261  1  0.53265400  0.20829500  0.50914900  1
  O  2275  1  0.53274500  0.79984200  0.33268200  1
  O  2289  1  0.53988800  0.41537500  0.71696300  1
  O  2303  1  0.53967600  0.59232800  0.12534200  1
  O  2317  1  0.53976400  0.79969500  0.50936200  1
  O  2331  1  0.53975000  0.20831200  0.33286200  1
