# generated using pymatgen
data_H16C17N2
_symmetry_space_group_name_H-M   'P 1'
_cell_length_a   35.37240000
_cell_length_b   59.18215000
_cell_length_c   59.18220000
_cell_angle_alpha   120.00008384
_cell_angle_beta   90.00000000
_cell_angle_gamma   90.00000000
_symmetry_Int_Tables_number   1
_chemical_formula_structural   H16C17N2
_chemical_formula_sum   'H768 C816 N96'
_cell_volume   107294.29635081
_cell_formula_units_Z   48
loop_
 _symmetry_equiv_pos_site_id
 _symmetry_equiv_pos_as_xyz
  1  'x, y, z'
loop_
 _atom_site_type_symbol
 _atom_site_label
 _atom_site_symmetry_multiplicity
 _atom_site_fract_x
 _atom_site_fract_y
 _atom_site_fract_z
 _atom_site_occupancy
  H  3  1  0.84081200  0.99746000  0.35427000  1
  H  4  1  0.68902900  0.99524600  0.42195600  1
  H  5  1  0.84150100  0.99889600  0.61428100  1
  H  7  1  0.72949200  0.98555500  0.57692800  1
  H  8  1  0.15846000  0.99891100  0.61694600  1
  H  12  1  0.15628300  0.99799200  0.35185600  1
  H  13  1  0.31068300  0.99806000  0.41840400  1
  H  15  1  0.81183600  0.97703400  0.36057800  1
  H  18  1  0.68546400  0.98030400  0.58811300  1
  H  21  1  0.26983800  0.98335400  0.58095100  1
  H  22  1  0.31352400  0.97819700  0.59259300  1
  H  24  1  0.18690600  0.97736900  0.35672000  1
  H  31  1  0.74773000  0.52602200  0.67187100  1
  H  32  1  0.78646800  0.50843100  0.67368700  1
  H  35  1  0.84635300  0.50363500  0.64914500  1
  H  36  1  0.85099000  0.51649200  0.62814700  1
  H  37  1  0.84951100  0.53487800  0.69843100  1
  H  38  1  0.84908500  0.56882700  0.71179300  1
  H  41  1  0.85242100  0.56490200  0.64583500  1
  H  42  1  0.85156100  0.58740600  0.67959200  1
  H  44  1  0.79128400  0.54201900  0.62336600  1
  H  45  1  0.75040900  0.54425700  0.64112200  1
  H  47  1  0.79255300  0.59278300  0.70715100  1
  H  48  1  0.75105600  0.57550600  0.69195800  1
  H  53  1  0.74774900  0.14455500  0.47294800  1
  H  54  1  0.78648800  0.16396500  0.49053300  1
  H  57  1  0.84637700  0.14422600  0.49532800  1
  H  58  1  0.85102000  0.11037300  0.48248200  1
  H  59  1  0.84952900  0.16225200  0.46407300  1
  H  60  1  0.84909400  0.14165400  0.43012300  1
  H  63  1  0.85243600  0.07963500  0.43407300  1
  H  64  1  0.85156700  0.09087700  0.41156100  1
  H  66  1  0.79130700  0.08006000  0.45696700  1
  H  67  1  0.75042800  0.09557400  0.45472800  1
  H  69  1  0.79255600  0.11305500  0.40618200  1
  H  70  1  0.75106400  0.11514800  0.42346800  1
  H  75  1  0.74773300  0.32708700  0.85441500  1
  H  76  1  0.78646700  0.32527100  0.83500400  1
  H  79  1  0.84635600  0.34980900  0.85474700  1
  H  80  1  0.85099900  0.37080800  0.88860100  1
  H  81  1  0.84951200  0.30052500  0.83670400  1
  H  82  1  0.84908900  0.28716000  0.85729000  1
  H  85  1  0.85243600  0.35312000  0.91932200  1
  H  86  1  0.85157500  0.31936500  0.90807300  1
  H  88  1  0.79129800  0.37559000  0.91891500  1
  H  89  1  0.75042000  0.35783800  0.90340100  1
  H  91  1  0.79256200  0.29180600  0.88589100  1
  H  92  1  0.75106500  0.30700100  0.88381100  1
  H  97  1  0.74773100  0.47241600  0.32761600  1
  H  98  1  0.78646500  0.49001000  0.32580100  1
  H  101  1  0.84635500  0.49480300  0.35033500  1
  H  102  1  0.85100000  0.48194500  0.37133200  1
  H  103  1  0.84950700  0.46356500  0.30105100  1
  H  104  1  0.84908400  0.42961400  0.28768400  1
  H  107  1  0.85243500  0.43353600  0.35364100  1
  H  108  1  0.85157100  0.41103200  0.31988500  1
  H  110  1  0.79129900  0.45641300  0.37611400  1
  H  111  1  0.75041900  0.45417800  0.35836400  1
  H  113  1  0.79255800  0.40565700  0.29233000  1
  H  114  1  0.75106100  0.42293200  0.30752500  1
  H  119  1  0.74773500  0.85389100  0.52653300  1
  H  120  1  0.78647200  0.83448400  0.50894300  1
  H  123  1  0.84636000  0.85423000  0.50414800  1
  H  124  1  0.85099700  0.88808600  0.51700600  1
  H  125  1  0.84951400  0.83618600  0.53538800  1
  H  126  1  0.84908900  0.85677200  0.56933900  1
  H  129  1  0.85242900  0.91880700  0.56541600  1
  H  130  1  0.85156700  0.90755200  0.58791800  1
  H  132  1  0.79129300  0.91839300  0.54253300  1
  H  133  1  0.75041600  0.90287600  0.54476900  1
  H  135  1  0.79255800  0.88537300  0.59329500  1
  H  136  1  0.75106100  0.88328800  0.57601900  1
  H  141  1  0.74775600  0.67135400  0.14508400  1
  H  142  1  0.78649200  0.67318000  0.16449700  1
  H  145  1  0.84638400  0.64864800  0.14476300  1
  H  146  1  0.85103000  0.62763600  0.11091100  1
  H  147  1  0.84953600  0.69792800  0.16278000  1
  H  148  1  0.84910100  0.71127500  0.14218000  1
  H  151  1  0.85244800  0.64530200  0.08016800  1
  H  152  1  0.85157800  0.67905500  0.09140500  1
  H  154  1  0.79131900  0.62283200  0.08059400  1
  H  155  1  0.75043900  0.64058600  0.09610400  1
  H  157  1  0.79256500  0.70661300  0.11358000  1
  H  158  1  0.75107400  0.69142100  0.11567300  1
  H  163  1  0.75074100  0.85405000  0.32954200  1
  H  164  1  0.71174100  0.83410400  0.32596100  1
  H  167  1  0.65181600  0.85289000  0.35094200  1
  H  168  1  0.64733800  0.88629000  0.37393100  1
  H  169  1  0.64929500  0.83857000  0.30235700  1
  H  170  1  0.65022500  0.86128100  0.29155400  1
  H  173  1  0.64524600  0.92024900  0.35962200  1
  H  174  1  0.64779900  0.91143300  0.32666900  1
  H  176  1  0.70851600  0.91624500  0.38189700  1
  H  177  1  0.74865100  0.90235600  0.36265100  1
  H  179  1  0.70688200  0.89039100  0.29913800  1
  H  180  1  0.74802200  0.88743500  0.31427800  1
  H  185  1  0.75076100  0.66941000  0.52476600  1
  H  186  1  0.71176100  0.67298500  0.50839700  1
  H  189  1  0.65183900  0.64800300  0.50220400  1
  H  190  1  0.64736100  0.62501900  0.51262100  1
  H  191  1  0.64931400  0.69659200  0.53646000  1
  H  192  1  0.65023900  0.70740200  0.56997500  1
  H  195  1  0.64526000  0.63934000  0.56089100  1
  H  196  1  0.64781000  0.67229500  0.58502300  1
  H  198  1  0.70853600  0.61706300  0.53462000  1
  H  199  1  0.74867000  0.63631200  0.53997700  1
  H  201  1  0.70689300  0.69982700  0.59151100  1
  H  202  1  0.74803500  0.68468500  0.57342100  1
  H  207  1  0.75074400  0.47419900  0.14492500  1
  H  208  1  0.71173600  0.49056200  0.16486200  1
  H  211  1  0.65182500  0.49676300  0.14606800  1
  H  212  1  0.64736400  0.48635200  0.11266700  1
  H  213  1  0.64929200  0.46249700  0.16038800  1
  H  214  1  0.65021900  0.42898400  0.13767800  1
  H  217  1  0.64526600  0.43808500  0.07871000  1
  H  218  1  0.64781000  0.41394700  0.08752600  1
  H  220  1  0.70854700  0.46436000  0.08272300  1
  H  221  1  0.74867300  0.45900000  0.09661800  1
  H  223  1  0.70688200  0.40745400  0.10857400  1
  H  224  1  0.74802600  0.42554800  0.11153400  1
  H  229  1  0.75075000  0.14439300  0.66994000  1
  H  230  1  0.71174400  0.16433600  0.67351700  1
  H  233  1  0.65182800  0.14554300  0.64852800  1
  H  234  1  0.64736100  0.11214100  0.62553700  1
  H  235  1  0.64930000  0.15986400  0.69711400  1
  H  236  1  0.65022700  0.13715300  0.70791700  1
  H  239  1  0.64526600  0.07818300  0.63984700  1
  H  240  1  0.64781300  0.08699900  0.67280000  1
  H  242  1  0.70854100  0.08219400  0.61758000  1
  H  243  1  0.74867100  0.09608700  0.63683300  1
  H  245  1  0.70688700  0.10804900  0.70033900  1
  H  246  1  0.74803100  0.11100600  0.68520400  1
  H  251  1  0.75074000  0.32902500  0.47472400  1
  H  252  1  0.71173900  0.32544400  0.49108900  1
  H  255  1  0.65181300  0.35042200  0.49728000  1
  H  256  1  0.64733300  0.37341100  0.48687000  1
  H  257  1  0.64929700  0.30183600  0.46301400  1
  H  258  1  0.65023000  0.29103500  0.42950100  1
  H  261  1  0.64524600  0.35910200  0.43860100  1
  H  262  1  0.64780700  0.32615100  0.41446600  1
  H  264  1  0.70851300  0.38138100  0.46488500  1
  H  265  1  0.74865100  0.36213500  0.45952900  1
  H  267  1  0.70689000  0.29862000  0.40797800  1
  H  268  1  0.74802700  0.31376200  0.42607700  1
  H  273  1  0.75075900  0.52424100  0.85457300  1
  H  274  1  0.71175600  0.50787600  0.83463000  1
  H  277  1  0.65183600  0.50168200  0.85342000  1
  H  278  1  0.64736100  0.51209500  0.88682000  1
  H  279  1  0.64931400  0.53594300  0.83909400  1
  H  280  1  0.65024200  0.56945700  0.86180300  1
  H  283  1  0.64526300  0.56036300  0.92077300  1
  H  284  1  0.64781600  0.58449800  0.91195400  1
  H  286  1  0.70853800  0.53408700  0.91677300  1
  H  287  1  0.74867200  0.53944400  0.90288000  1
  H  289  1  0.70689900  0.59098600  0.89091000  1
  H  290  1  0.74803900  0.57289300  0.88795800  1
  H  295  1  0.25323400  0.47091200  0.32753500  1
  H  296  1  0.21494500  0.48992600  0.32766800  1
  H  299  1  0.15523400  0.49475100  0.35402100  1
  H  300  1  0.15272100  0.47907500  0.37265100  1
  H  301  1  0.15112700  0.46682900  0.30414200  1
  H  302  1  0.14949500  0.43269600  0.28825100  1
  H  305  1  0.14666300  0.43089300  0.35155400  1
  H  306  1  0.14545600  0.41053600  0.31735600  1
  H  308  1  0.20998600  0.45170000  0.37385800  1
  H  309  1  0.25022900  0.44955800  0.35563300  1
  H  311  1  0.20432900  0.40538400  0.28979800  1
  H  312  1  0.24695300  0.42092800  0.30480700  1
  H  317  1  0.25323400  0.85532200  0.52805000  1
  H  318  1  0.21494500  0.83644400  0.50903700  1
  H  321  1  0.15524000  0.85797300  0.50421300  1
  H  322  1  0.15272700  0.89228000  0.51988500  1
  H  323  1  0.15112100  0.83602300  0.53213900  1
  H  324  1  0.14949300  0.85426900  0.56627200  1
  H  327  1  0.14667700  0.91937200  0.56806800  1
  H  328  1  0.14546400  0.90553300  0.58842600  1
  H  330  1  0.21000000  0.92085900  0.54725800  1
  H  331  1  0.25024100  0.90477300  0.54940100  1
  H  333  1  0.20433500  0.88312100  0.59357900  1
  H  334  1  0.24695600  0.88258200  0.57803200  1
  H  339  1  0.25325400  0.67142400  0.14362400  1
  H  340  1  0.21496500  0.67128500  0.16250300  1
  H  343  1  0.15525400  0.64493400  0.14097300  1
  H  344  1  0.15273800  0.62630900  0.10666500  1
  H  345  1  0.15114600  0.69481300  0.16293700  1
  H  346  1  0.14951200  0.71070900  0.14470100  1
  H  349  1  0.14667700  0.64741300  0.07959000  1
  H  350  1  0.14546700  0.68161200  0.09343400  1
  H  352  1  0.21000300  0.62510900  0.07808500  1
  H  353  1  0.25024600  0.64333300  0.09416900  1
  H  355  1  0.20434600  0.70917000  0.11584500  1
  H  356  1  0.24696700  0.69415700  0.11637400  1
  H  361  1  0.25323200  0.52753200  0.67193500  1
  H  362  1  0.21494800  0.50851200  0.67179700  1
  H  365  1  0.15523200  0.50368900  0.64544800  1
  H  366  1  0.15271500  0.51937300  0.62682500  1
  H  367  1  0.15113000  0.53160100  0.69532700  1
  H  368  1  0.14949300  0.56573500  0.71122500  1
  H  371  1  0.14664600  0.56755200  0.64793000  1
  H  372  1  0.14544100  0.58790700  0.68212900  1
  H  374  1  0.20997200  0.54675500  0.62562200  1
  H  375  1  0.25021800  0.54889300  0.64384200  1
  H  377  1  0.20432100  0.59305300  0.70968300  1
  H  378  1  0.24694100  0.57751400  0.69467100  1
  H  383  1  0.25324300  0.14311600  0.47143700  1
  H  384  1  0.21495300  0.16199600  0.49045100  1
  H  387  1  0.15523700  0.14046800  0.49527500  1
  H  388  1  0.15272700  0.10616200  0.47959600  1
  H  389  1  0.15113800  0.16242700  0.46735400  1
  H  390  1  0.14950700  0.14418700  0.43322000  1
  H  393  1  0.14666800  0.07907800  0.43141300  1
  H  394  1  0.14546400  0.09292200  0.41105800  1
  H  396  1  0.20999200  0.07758000  0.45222200  1
  H  397  1  0.25023500  0.09366500  0.45008300  1
  H  399  1  0.20434000  0.11532900  0.40591000  1
  H  400  1  0.24696100  0.11586100  0.42145300  1
  H  405  1  0.25323700  0.32700500  0.85583800  1
  H  406  1  0.21494500  0.32713800  0.83695900  1
  H  409  1  0.15524000  0.35349300  0.85848700  1
  H  410  1  0.15272400  0.37213100  0.89279400  1
  H  411  1  0.15112400  0.30361700  0.83654100  1
  H  412  1  0.14949500  0.28773300  0.85479200  1
  H  415  1  0.14667700  0.35104400  0.91989000  1
  H  416  1  0.14546700  0.31684600  0.90605300  1
  H  418  1  0.21000000  0.37334100  0.92137400  1
  H  419  1  0.25024100  0.35511100  0.90528900  1
  H  421  1  0.20433800  0.28928300  0.88364500  1
  H  422  1  0.24695800  0.30428900  0.88310300  1
  H  427  1  0.24565500  0.14162600  0.66839400  1
  H  428  1  0.28421600  0.16131300  0.67030500  1
  H  431  1  0.34432200  0.14097400  0.64353500  1
  H  432  1  0.34660100  0.10687300  0.62282600  1
  H  433  1  0.34718100  0.15940800  0.69318100  1
  H  434  1  0.34828600  0.13890800  0.70661400  1
  H  437  1  0.35374800  0.07652600  0.64106600  1
  H  438  1  0.35261100  0.08836800  0.67476000  1
  H  440  1  0.28802700  0.07827900  0.61806500  1
  H  441  1  0.24848800  0.09262700  0.63775900  1
  H  443  1  0.29320100  0.10880800  0.70158400  1
  H  444  1  0.25115400  0.11003500  0.68623400  1
  H  449  1  0.24564700  0.33057900  0.47349800  1
  H  450  1  0.28420800  0.32866700  0.49127400  1
  H  453  1  0.34432200  0.35543400  0.49769900  1
  H  454  1  0.34660100  0.37613700  0.48429900  1
  H  455  1  0.34716600  0.30578600  0.46649200  1
  H  456  1  0.34826900  0.29234700  0.43255700  1
  H  459  1  0.35374800  0.35789000  0.43571400  1
  H  460  1  0.35260300  0.32419500  0.41386600  1
  H  462  1  0.28802700  0.38089900  0.46047100  1
  H  463  1  0.24848500  0.36120800  0.45512700  1
  H  465  1  0.29318400  0.29737800  0.40748700  1
  H  466  1  0.25114200  0.31273300  0.42406700  1
  H  471  1  0.24566400  0.52544600  0.85731400  1
  H  472  1  0.28423000  0.50767500  0.83762700  1
  H  475  1  0.34433900  0.50124600  0.85796900  1
  H  476  1  0.34661200  0.51463700  0.89207100  1
  H  477  1  0.34718900  0.53246400  0.83954100  1
  H  478  1  0.34828900  0.56639700  0.86004500  1
  H  481  1  0.35375100  0.56322300  0.92242200  1
  H  482  1  0.35260900  0.58507600  0.91058100  1
  H  484  1  0.28803300  0.53846100  0.92065900  1
  H  485  1  0.24849400  0.54380600  0.90631200  1
  H  487  1  0.29319500  0.59145800  0.89014100  1
  H  488  1  0.25115400  0.57487500  0.88890800  1
  H  493  1  0.24564900  0.85680900  0.33109100  1
  H  494  1  0.28421600  0.83712400  0.32917700  1
  H  497  1  0.34432200  0.85746700  0.35594600  1
  H  498  1  0.34659500  0.89156900  0.37665600  1
  H  499  1  0.34717500  0.83903700  0.30630100  1
  H  500  1  0.34827200  0.85953800  0.29286800  1
  H  503  1  0.35373100  0.92191700  0.35841800  1
  H  504  1  0.35259200  0.91007600  0.32472500  1
  H  506  1  0.28801300  0.92015600  0.38142000  1
  H  507  1  0.24847700  0.90580800  0.36172600  1
  H  509  1  0.29317800  0.88963400  0.29790300  1
  H  510  1  0.25113700  0.88840100  0.31325200  1
  H  515  1  0.24565800  0.66786900  0.52597400  1
  H  516  1  0.28421900  0.66978400  0.50820100  1
  H  519  1  0.34433100  0.64301500  0.50177000  1
  H  520  1  0.34661200  0.62230600  0.51516200  1
  H  521  1  0.34718100  0.69266100  0.53298400  1
  H  522  1  0.34828600  0.70609400  0.56691700  1
  H  525  1  0.35375600  0.64054600  0.56374800  1
  H  526  1  0.35261400  0.67423900  0.58560100  1
  H  528  1  0.28803800  0.61754100  0.53899100  1
  H  529  1  0.24849600  0.63723000  0.54433700  1
  H  531  1  0.29319800  0.70105800  0.59198500  1
  H  532  1  0.25115400  0.68570700  0.57540300  1
  H  537  1  0.24564700  0.47298100  0.14214400  1
  H  538  1  0.28420800  0.49075700  0.16183200  1
  H  541  1  0.34431700  0.49719000  0.14149400  1
  H  542  1  0.34659800  0.48379300  0.10739200  1
  H  543  1  0.34716900  0.46598000  0.15993200  1
  H  544  1  0.34828000  0.43204700  0.13943400  1
  H  547  1  0.35375100  0.43520900  0.07705100  1
  H  548  1  0.35261100  0.41335800  0.08889500  1
  H  550  1  0.28802700  0.45996000  0.07879900  1
  H  551  1  0.24848800  0.45461200  0.09314300  1
  H  553  1  0.29319800  0.40697400  0.10933100  1
  H  554  1  0.25115100  0.42354900  0.11055500  1
  H  561  1  0.80608400  0.51761700  0.71409200  1
  H  568  1  0.75142900  0.58896000  0.85797700  1
  H  569  1  0.69184200  0.52108800  0.80545000  1
  H  570  1  0.75115900  0.58924800  0.73840900  1
  H  572  1  0.79380100  0.59877300  0.80638100  1
  H  573  1  0.80809000  0.59783500  0.83439700  1
  H  574  1  0.76962400  0.61788100  0.83608600  1
  H  576  1  0.80843700  0.52169000  0.77430200  1
  H  577  1  0.81211900  0.49923700  0.74063400  1
  H  578  1  0.76892800  0.50231400  0.75670200  1
  H  585  1  0.80610800  0.19517400  0.48133300  1
  H  592  1  0.75141300  0.26771200  0.41000300  1
  H  593  1  0.69182800  0.28304900  0.47787100  1
  H  594  1  0.75114100  0.14785000  0.40972000  1
  H  596  1  0.79377700  0.20629500  0.40017800  1
  H  597  1  0.80807400  0.23525100  0.40112300  1
  H  598  1  0.76960600  0.21690200  0.38107700  1
  H  600  1  0.80843700  0.25130500  0.47725000  1
  H  601  1  0.81213700  0.24009500  0.49970600  1
  H  602  1  0.76893900  0.25308400  0.49663500  1
  H  609  1  0.80607800  0.28486400  0.80378500  1
  H  616  1  0.75141900  0.14098400  0.73124900  1
  H  617  1  0.69182200  0.19351000  0.71591000  1
  H  618  1  0.75115700  0.26055200  0.85110400  1
  H  620  1  0.79379500  0.19258000  0.79265700  1
  H  621  1  0.80808300  0.16456500  0.76370100  1
  H  622  1  0.76962200  0.16287200  0.78205800  1
  H  624  1  0.80842000  0.22465200  0.74764700  1
  H  625  1  0.81210300  0.25832000  0.75886200  1
  H  626  1  0.76891000  0.24225400  0.74587500  1
  H  633  1  0.80607100  0.48082600  0.28539300  1
  H  640  1  0.75141600  0.40948300  0.14151200  1
  H  641  1  0.69180800  0.47734200  0.19403600  1
  H  642  1  0.75115300  0.40919300  0.26107800  1
  H  644  1  0.79379400  0.39967200  0.19310800  1
  H  645  1  0.80808200  0.40061700  0.16509500  1
  H  646  1  0.76962500  0.38056200  0.16340000  1
  H  648  1  0.80840900  0.47675300  0.22518300  1
  H  649  1  0.81209000  0.49920800  0.25885100  1
  H  650  1  0.76889700  0.49612700  0.24278400  1
  H  657  1  0.80608500  0.80326500  0.51812900  1
  H  664  1  0.75142800  0.73072900  0.58948000  1
  H  665  1  0.69184700  0.71537800  0.52160600  1
  H  666  1  0.75116300  0.85058100  0.58976100  1
  H  668  1  0.79380500  0.79213700  0.59928800  1
  H  669  1  0.80809000  0.76318200  0.59835200  1
  H  670  1  0.76962500  0.78154300  0.61839700  1
  H  672  1  0.80843900  0.74712800  0.52220300  1
  H  673  1  0.81211900  0.75834300  0.49974900  1
  H  674  1  0.76892800  0.74535200  0.50282600  1
  H  681  1  0.80611300  0.71359200  0.19570200  1
  H  688  1  0.75140800  0.85745800  0.26822800  1
  H  689  1  0.69182500  0.80492700  0.28356800  1
  H  690  1  0.75114600  0.73787000  0.14837100  1
  H  692  1  0.79377400  0.80586400  0.20681200  1
  H  693  1  0.80807000  0.83387600  0.23576800  1
  H  694  1  0.76960300  0.83557300  0.21741800  1
  H  696  1  0.80843600  0.77381100  0.25182900  1
  H  697  1  0.81213900  0.74014600  0.24062300  1
  H  698  1  0.76894000  0.75620300  0.25360900  1
  H  705  1  0.19515500  0.48329700  0.28778000  1
  H  712  1  0.24818300  0.40985600  0.14204400  1
  H  713  1  0.30376300  0.48012100  0.19324200  1
  H  714  1  0.24624900  0.40981100  0.25963400  1
  H  716  1  0.20458600  0.40204400  0.19434900  1
  H  717  1  0.19217300  0.40062300  0.16491600  1
  H  718  1  0.23126500  0.38235900  0.16593300  1
  H  720  1  0.19170100  0.48182800  0.22871500  1
  H  721  1  0.18938500  0.50330000  0.26266200  1
  H  722  1  0.23222700  0.49992200  0.24613400  1
  H  729  1  0.19514100  0.80318800  0.51567100  1
  H  736  1  0.24819400  0.73089300  0.58910600  1
  H  737  1  0.30377400  0.71183100  0.51884300  1
  H  738  1  0.24626300  0.84852900  0.58914900  1
  H  740  1  0.20460100  0.79101200  0.59692200  1
  H  741  1  0.19218100  0.76299900  0.59833900  1
  H  742  1  0.23127700  0.78227800  0.61660500  1
  H  744  1  0.19170400  0.74559400  0.51714300  1
  H  745  1  0.18938000  0.75806700  0.49567100  1
  H  746  1  0.23222400  0.74491800  0.49904600  1
  H  753  1  0.19517800  0.71117400  0.19576800  1
  H  760  1  0.24817400  0.85691600  0.26806800  1
  H  761  1  0.30377700  0.80572100  0.28713000  1
  H  762  1  0.24626300  0.73932900  0.15043300  1
  H  764  1  0.20458400  0.80460500  0.20795100  1
  H  765  1  0.19216400  0.83403600  0.23596400  1
  H  766  1  0.23125400  0.83302600  0.21668400  1
  H  768  1  0.19171800  0.77023600  0.25336400  1
  H  769  1  0.18941100  0.73628900  0.24088900  1
  H  770  1  0.23224900  0.75282300  0.25404000  1
  H  777  1  0.19516700  0.51513300  0.71168600  1
  H  784  1  0.24818000  0.58857100  0.85742400  1
  H  785  1  0.30379400  0.51832300  0.80622700  1
  H  786  1  0.24624300  0.58862500  0.73984000  1
  H  788  1  0.20457200  0.59637700  0.80511700  1
  H  789  1  0.19215900  0.59779000  0.83454800  1
  H  790  1  0.23124300  0.61606600  0.83353700  1
  H  792  1  0.19172300  0.51659500  0.77074700  1
  H  793  1  0.18941400  0.49512400  0.73679800  1
  H  794  1  0.23225500  0.49850900  0.75333200  1
  H  801  1  0.19516700  0.19525800  0.48382500  1
  H  808  1  0.24817400  0.26755000  0.41037500  1
  H  809  1  0.30376300  0.28662100  0.48063800  1
  H  810  1  0.24625400  0.14991800  0.41033500  1
  H  812  1  0.20458100  0.20743500  0.40257000  1
  H  813  1  0.19216100  0.23544700  0.40115000  1
  H  814  1  0.23125400  0.21616600  0.38288300  1
  H  816  1  0.19170400  0.25285200  0.48235300  1
  H  817  1  0.18939700  0.24037800  0.50382700  1
  H  818  1  0.23223500  0.25353000  0.50044500  1
  H  825  1  0.19514100  0.28724900  0.80370800  1
  H  832  1  0.24819700  0.14152000  0.73141800  1
  H  833  1  0.30377400  0.19272100  0.71235200  1
  H  834  1  0.24626900  0.25911900  0.84905200  1
  H  836  1  0.20460600  0.19382800  0.79154000  1
  H  837  1  0.19218700  0.16439500  0.76352600  1
  H  838  1  0.23128200  0.16540800  0.78280300  1
  H  840  1  0.19170600  0.22818200  0.74611600  1
  H  841  1  0.18938000  0.26212700  0.75858700  1
  H  842  1  0.23222400  0.24560300  0.74543800  1
  H  849  1  0.68561900  0.61252900  0.56743200  1
  H  856  1  0.83592200  0.60422100  0.65163200  1
  H  857  1  0.72408100  0.58839900  0.66375900  1
  H  858  1  0.74364700  0.68287300  0.61434000  1
  H  860  1  0.81183800  0.63841200  0.61674400  1
  H  861  1  0.84149100  0.61376700  0.61461100  1
  H  862  1  0.84081400  0.64471800  0.64347800  1
  H  864  1  0.72946800  0.57642100  0.59061000  1
  H  865  1  0.68904600  0.57701600  0.57357100  1
  H  866  1  0.68544400  0.58761200  0.60705000  1
  H  870  1  0.68560500  0.95359600  0.38643900  1
  H  877  1  0.83591900  0.04611100  0.39476600  1
  H  878  1  0.72407800  0.07405800  0.41058100  1
  H  879  1  0.74364600  0.93016900  0.31610200  1
  H  880  1  0.84148800  0.99954400  0.38522100  1
  H  882  1  0.72945600  0.01287900  0.42255600  1
  H  883  1  0.68543600  0.01813300  0.41136500  1
  H  890  1  0.68563400  0.43155400  0.04536900  1
  H  897  1  0.83592100  0.34735900  0.95285400  1
  H  898  1  0.72408600  0.33519400  0.92490900  1
  H  899  1  0.74365400  0.38463700  0.06879800  1
  H  901  1  0.81184200  0.38227200  0.02193300  1
  H  902  1  0.84148000  0.38440400  0.99941300  1
  H  903  1  0.84083800  0.35554600  0.00151300  1
  H  905  1  0.72947900  0.40837400  0.98608000  1
  H  906  1  0.68905400  0.42541100  0.00371400  1
  H  907  1  0.68545800  0.39193000  0.98082900  1
  H  914  1  0.68560200  0.38592000  0.43207100  1
  H  921  1  0.83592700  0.39424600  0.34788900  1
  H  922  1  0.72409600  0.41003300  0.33572400  1
  H  923  1  0.74366400  0.31558900  0.38517100  1
  H  925  1  0.81183800  0.36010400  0.38282300  1
  H  926  1  0.84148600  0.38474300  0.38493700  1
  H  927  1  0.84082900  0.35377800  0.35608900  1
  H  929  1  0.72944900  0.42204000  0.40890600  1
  H  930  1  0.68901800  0.42143500  0.42593300  1
  H  931  1  0.68543600  0.41084000  0.39245200  1
  H  938  1  0.68563600  0.04484000  0.61303400  1
  H  943  1  0.83592800  0.95232900  0.60473600  1
  H  944  1  0.72408700  0.92438100  0.58890800  1
  H  945  1  0.74364500  0.06827100  0.68338500  1
  H  947  1  0.81184600  0.02140600  0.63892400  1
  H  948  1  0.84081900  0.00097700  0.64523100  1
  H  949  1  0.68907100  0.00318900  0.57751900  1
  H  956  1  0.68561900  0.56689600  0.95412000  1
  H  963  1  0.83593300  0.65107800  0.04663700  1
  H  964  1  0.72409000  0.66321600  0.07458500  1
  H  965  1  0.74366600  0.61380400  0.93069300  1
  H  967  1  0.81185200  0.61619200  0.97756000  1
  H  968  1  0.84150100  0.61405500  0.00007100  1
  H  969  1  0.84083200  0.64292300  0.99798700  1
  H  971  1  0.72946800  0.59006100  0.01340600  1
  H  972  1  0.68904300  0.57302800  0.99577000  1
  H  973  1  0.68545000  0.60650900  0.01865800  1
  H  980  1  0.31431000  0.38329700  0.42705200  1
  H  987  1  0.16220900  0.39145500  0.34476400  1
  H  988  1  0.27388900  0.40479400  0.32985900  1
  H  989  1  0.25547600  0.31281400  0.38260500  1
  H  991  1  0.18691200  0.35620700  0.37858200  1
  H  992  1  0.15844000  0.38202500  0.38223300  1
  H  993  1  0.15628000  0.35134000  0.35309600  1
  H  995  1  0.26984300  0.41801400  0.40266400  1
  H  996  1  0.31071400  0.41787000  0.41954500  1
  H  997  1  0.31352400  0.40636400  0.38585500  1
  H  1004  1  0.31430500  0.04246000  0.61566100  1
  H  1009  1  0.16223400  0.95200600  0.60750600  1
  H  1010  1  0.27391700  0.92376900  0.59417100  1
  H  1011  1  0.25549600  0.06849200  0.68615000  1
  H  1013  1  0.18692300  0.02107200  0.64276900  1
  H  1014  1  0.15629500  0.00044400  0.64762200  1
  H  1015  1  0.31070300  0.00037800  0.58108600  1
  H  1022  1  0.31430500  0.57187500  0.95648500  1
  H  1029  1  0.16224800  0.65416900  0.04693600  1
  H  1030  1  0.27391200  0.66911800  0.07517800  1
  H  1031  1  0.25549900  0.61633700  0.93045400  1
  H  1033  1  0.18694300  0.62032400  0.97787200  1
  H  1034  1  0.15849100  0.61667300  0.00004800  1
  H  1035  1  0.15629200  0.64580000  0.99848400  1
  H  1037  1  0.26985800  0.59628000  0.01559800  1
  H  1038  1  0.31072800  0.57939500  0.99857200  1
  H  1039  1  0.31353900  0.61308600  0.02075200  1
  H  1046  1  0.31432700  0.61513700  0.57240900  1
  H  1053  1  0.16220900  0.60695600  0.65466600  1
  H  1054  1  0.27386600  0.59366700  0.66963100  1
  H  1055  1  0.25547100  0.68561200  0.61685200  1
  H  1057  1  0.18692300  0.64215700  0.62080500  1
  H  1058  1  0.15846600  0.61634000  0.61716800  1
  H  1059  1  0.15626900  0.64703800  0.64628600  1
  H  1061  1  0.26986600  0.58041200  0.59678900  1
  H  1062  1  0.31074800  0.58056500  0.57992000  1
  H  1063  1  0.31353300  0.59207100  0.61361100  1
  H  1067  1  0.31428200  0.95597900  0.38382900  1
  H  1074  1  0.16221400  0.04643400  0.39197100  1
  H  1075  1  0.27389700  0.07467400  0.40532200  1
  H  1076  1  0.25547900  0.92995000  0.31333600  1
  H  1077  1  0.15843700  0.99953400  0.38253800  1
  H  1079  1  0.26981800  0.01508700  0.41854000  1
  H  1080  1  0.31350700  0.02024200  0.40689600  1
  H  1087  1  0.31431000  0.42654400  0.04298100  1
  H  1094  1  0.16223400  0.34424500  0.95252800  1
  H  1095  1  0.27391700  0.32934200  0.92428900  1
  H  1096  1  0.25549300  0.38208900  0.06901500  1
  H  1098  1  0.18692600  0.37805400  0.02159500  1
  H  1099  1  0.15846300  0.38171300  0.99943000  1
  H  1100  1  0.15629700  0.35257100  0.00096900  1
  H  1102  1  0.26984900  0.40214600  0.98387300  1
  H  1103  1  0.31071400  0.41903500  0.00090000  1
  H  1104  1  0.31353300  0.38534500  0.97871600  1
  H  1111  1  0.09338100  0.51076900  0.63115100  1
  H  1118  1  0.90402700  0.58581700  0.69986200  1
  H  1119  1  0.90999200  0.50631700  0.64288800  1
  H  1120  1  0.09223100  0.57921100  0.70452800  1
  H  1122  1  0.99533100  0.60196600  0.69378000  1
  H  1123  1  0.99300200  0.59607200  0.72049200  1
  H  1124  1  0.95614800  0.61254900  0.71485800  1
  H  1126  1  0.00154700  0.51450200  0.61454500  1
  H  1127  1  0.00588600  0.49134500  0.62531900  1
  H  1128  1  0.04106600  0.49389300  0.60579000  1
  H  1135  1  0.09339200  0.11907900  0.48818900  1
  H  1142  1  0.90404000  0.11271800  0.41313400  1
  H  1143  1  0.91001400  0.13530300  0.49265000  1
  H  1144  1  0.09224700  0.12401500  0.41974600  1
  H  1146  1  0.99534500  0.09047400  0.39699700  1
  H  1147  1  0.99301600  0.12306900  0.40286000  1
  H  1148  1  0.95616100  0.10095000  0.38639500  1
  H  1150  1  0.00155300  0.09873600  0.48444600  1
  H  1151  1  0.00589800  0.13266600  0.50760800  1
  H  1152  1  0.04107200  0.11058100  0.50505300  1
  H  1159  1  0.09339500  0.36778000  0.87982000  1
  H  1166  1  0.90403500  0.29908700  0.88620300  1
  H  1167  1  0.90999700  0.35607100  0.86368900  1
  H  1168  1  0.09224200  0.29445200  0.87499500  1
  H  1170  1  0.99533200  0.30516300  0.90843200  1
  H  1171  1  0.99301400  0.27845900  0.87582200  1
  H  1172  1  0.95615400  0.28408100  0.89792500  1
  H  1174  1  0.00156400  0.38440900  0.90012600  1
  H  1175  1  0.00590100  0.37356900  0.86618000  1
  H  1176  1  0.04108300  0.39312400  0.88823600  1
  H  1183  1  0.09338700  0.48767600  0.36832000  1
  H  1190  1  0.90403100  0.41262300  0.29961000  1
  H  1191  1  0.90999700  0.49212200  0.35659000  1
  H  1192  1  0.09223600  0.41922000  0.29495500  1
  H  1194  1  0.99533100  0.39647100  0.30568900  1
  H  1195  1  0.99300800  0.40237200  0.27898200  1
  H  1196  1  0.95615100  0.38589100  0.28460800  1
  H  1198  1  0.00155300  0.48395400  0.38493100  1
  H  1199  1  0.00589200  0.50709900  0.37414200  1
  H  1200  1  0.04107200  0.50455900  0.39367700  1
  H  1207  1  0.09339800  0.87931400  0.51126200  1
  H  1214  1  0.90403100  0.88568800  0.58632800  1
  H  1215  1  0.90999900  0.86317500  0.50683200  1
  H  1216  1  0.09223900  0.87446900  0.57975500  1
  H  1218  1  0.99532900  0.90791600  0.60248400  1
  H  1219  1  0.99300800  0.87530400  0.59657700  1
  H  1220  1  0.95614900  0.89740900  0.61305900  1
  H  1222  1  0.00156700  0.89962500  0.51494600  1
  H  1223  1  0.00590300  0.86568200  0.49183300  1
  H  1224  1  0.04108600  0.88774100  0.49434200  1
  H  1231  1  0.09340700  0.63064200  0.11961200  1
  H  1238  1  0.90404700  0.69932800  0.11324700  1
  H  1239  1  0.91002400  0.64240200  0.13583800  1
  H  1240  1  0.09225300  0.70400900  0.12452100  1
  H  1242  1  0.99534800  0.69322000  0.09100000  1
  H  1243  1  0.99302200  0.71995400  0.12359500  1
  H  1244  1  0.95616500  0.71429800  0.10147900  1
  H  1246  1  0.00156400  0.61403700  0.09929400  1
  H  1247  1  0.00591700  0.62482600  0.13322700  1
  H  1248  1  0.04108900  0.60528800  0.11114700  1
  H  1255  1  0.40596700  0.87839200  0.37095000  1
  H  1262  1  0.59482800  0.89083900  0.30571000  1
  H  1263  1  0.58851800  0.86079500  0.35671700  1
  H  1264  1  0.40600600  0.87944500  0.30044600  1
  H  1266  1  0.50560900  0.88223800  0.28517800  1
  H  1267  1  0.54260100  0.90473000  0.29276800  1
  H  1268  1  0.50352000  0.91356900  0.31386400  1
  H  1270  1  0.49824700  0.89738000  0.38765700  1
  H  1271  1  0.49323800  0.86307300  0.37460900  1
  H  1272  1  0.45864600  0.88474800  0.39543700  1
  H  1279  1  0.40598100  0.62801300  0.50769000  1
  H  1286  1  0.59484200  0.69325300  0.58538000  1
  H  1287  1  0.58854100  0.64222700  0.50433200  1
  H  1288  1  0.40602600  0.69851800  0.57924400  1
  H  1290  1  0.50562600  0.71379000  0.59730100  1
  H  1291  1  0.54261500  0.70620700  0.61221200  1
  H  1292  1  0.50353100  0.68511200  0.59995900  1
  H  1294  1  0.49825600  0.61130000  0.50997300  1
  H  1295  1  0.49325500  0.62434900  0.48871300  1
  H  1296  1  0.45865700  0.60352200  0.48955700  1
  H  1303  1  0.40596900  0.49126800  0.12056600  1
  H  1310  1  0.59483400  0.41358700  0.10812600  1
  H  1311  1  0.58853000  0.49463100  0.13814100  1
  H  1312  1  0.40602000  0.41972000  0.11953100  1
  H  1314  1  0.50561800  0.40166300  0.11673700  1
  H  1315  1  0.54261000  0.38675200  0.09424500  1
  H  1316  1  0.50352600  0.39900200  0.08540100  1
  H  1318  1  0.49824200  0.48898000  0.10156100  1
  H  1319  1  0.49324400  0.51024600  0.13586900  1
  H  1320  1  0.45864300  0.50939400  0.11419600  1
  H  1327  1  0.40597200  0.12005200  0.62852900  1
  H  1334  1  0.59484000  0.10759900  0.69376100  1
  H  1335  1  0.58853200  0.13762200  0.64273700  1
  H  1336  1  0.40602300  0.11900000  0.69903300  1
  H  1338  1  0.50562300  0.11621100  0.71430000  1
  H  1339  1  0.54261500  0.09371700  0.70671400  1
  H  1340  1  0.50353100  0.08487600  0.68562000  1
  H  1342  1  0.49824500  0.10105500  0.61181100  1
  H  1343  1  0.49324400  0.13536400  0.62486300  1
  H  1344  1  0.45864600  0.11369300  0.60403600  1
  H  1351  1  0.40597200  0.37044500  0.49176200  1
  H  1358  1  0.59483400  0.30519300  0.41409600  1
  H  1359  1  0.58851600  0.35619100  0.49514800  1
  H  1360  1  0.40601200  0.29991200  0.42023000  1
  H  1362  1  0.50561500  0.28466400  0.40215400  1
  H  1363  1  0.54261000  0.29226000  0.38725700  1
  H  1364  1  0.50352600  0.31335400  0.39951700  1
  H  1366  1  0.49825900  0.38714100  0.48945400  1
  H  1367  1  0.49324100  0.37412700  0.51074200  1
  H  1368  1  0.45865400  0.39494400  0.50986900  1
  H  1375  1  0.40598300  0.50717800  0.87891600  1
  H  1382  1  0.59484800  0.58485900  0.89135500  1
  H  1383  1  0.58853800  0.50381200  0.86133100  1
  H  1384  1  0.40602600  0.57872300  0.87994700  1
  H  1386  1  0.50562900  0.59678300  0.88274100  1
  H  1387  1  0.54262100  0.61169300  0.90523500  1
  H  1388  1  0.50353700  0.59944300  0.91407900  1
  H  1390  1  0.49826200  0.50947400  0.89792300  1
  H  1391  1  0.49325800  0.48820200  0.86361800  1
  H  1392  1  0.45866000  0.48905900  0.88529500  1
  H  1399  1  0.81004000  0.50045000  0.59294400  1
  H  1406  1  0.75548600  0.35893800  0.52002700  1
  H  1407  1  0.68600700  0.40921000  0.50704400  1
  H  1408  1  0.74625800  0.47933800  0.63965900  1
  H  1410  1  0.79749500  0.41176100  0.58069200  1
  H  1411  1  0.81274800  0.38481300  0.55112300  1
  H  1412  1  0.77702200  0.38085800  0.56992500  1
  H  1414  1  0.81073300  0.44017100  0.53746000  1
  H  1415  1  0.81475700  0.47363300  0.54761600  1
  H  1416  1  0.77176700  0.45730200  0.53425200  1
  H  1423  1  0.81009700  0.09122700  0.49854200  1
  H  1430  1  0.75546800  0.15980700  0.64003800  1
  H  1431  1  0.68605800  0.09651700  0.58974400  1
  H  1432  1  0.74625900  0.15902600  0.51962500  1
  H  1434  1  0.79746000  0.16768300  0.58723300  1
  H  1435  1  0.81272100  0.16506800  0.61418300  1
  H  1436  1  0.77696200  0.18780200  0.61813000  1
  H  1438  1  0.81079800  0.09604800  0.55883400  1
  H  1439  1  0.81485000  0.07273700  0.52537500  1
  H  1440  1  0.77185600  0.07568300  0.54169600  1
  H  1447  1  0.81005900  0.40601000  0.90776100  1
  H  1454  1  0.75547100  0.47892300  0.83916300  1
  H  1455  1  0.68604900  0.49193100  0.90245300  1
  H  1456  1  0.74625000  0.35929900  0.83994700  1
  H  1458  1  0.79745500  0.41824500  0.83130200  1
  H  1459  1  0.81271700  0.44780500  0.83390900  1
  H  1460  1  0.77695900  0.42901500  0.81117600  1
  H  1462  1  0.81076300  0.46149100  0.90295600  1
  H  1463  1  0.81479900  0.45133800  0.92626400  1
  H  1464  1  0.77180900  0.46470900  0.92330800  1
  H  1471  1  0.81005900  0.49798600  0.40653700  1
  H  1478  1  0.75547600  0.63949800  0.47945000  1
  H  1479  1  0.68605200  0.58922200  0.49246400  1
  H  1480  1  0.74625000  0.51909500  0.35983200  1
  H  1482  1  0.79746100  0.58667800  0.41877500  1
  H  1483  1  0.81272300  0.61363300  0.44833500  1
  H  1484  1  0.77696600  0.61757300  0.42954300  1
  H  1486  1  0.81075800  0.55826700  0.46202200  1
  H  1487  1  0.81479300  0.52480500  0.45186400  1
  H  1488  1  0.77180200  0.54113200  0.46523500  1
  H  1495  1  0.81005000  0.90724700  0.50096300  1
  H  1502  1  0.75548800  0.83865800  0.35945200  1
  H  1503  1  0.68601500  0.90191500  0.40972900  1
  H  1504  1  0.74626400  0.83942100  0.47985000  1
  H  1506  1  0.79749800  0.83081200  0.41227200  1
  H  1507  1  0.81275100  0.83343400  0.38532500  1
  H  1508  1  0.77702300  0.81067700  0.38137000  1
  H  1510  1  0.81074300  0.90245300  0.44068400  1
  H  1511  1  0.81476900  0.92575900  0.47414700  1
  H  1512  1  0.77177800  0.92279400  0.45781700  1
  H  1519  1  0.81011400  0.59243100  0.09177100  1
  H  1526  1  0.75543700  0.51952700  0.16035600  1
  H  1527  1  0.68607500  0.50651700  0.09704100  1
  H  1528  1  0.74625300  0.63915100  0.15955500  1
  H  1530  1  0.79741600  0.58021700  0.16825000  1
  H  1531  1  0.81268200  0.55065900  0.16564400  1
  H  1532  1  0.77689900  0.56943800  0.18836100  1
  H  1534  1  0.81081000  0.53696700  0.09660700  1
  H  1535  1  0.81487800  0.54710900  0.07329200  1
  H  1536  1  0.77188100  0.53373400  0.07623200  1
  H  1543  1  0.19447400  0.49238800  0.40650500  1
  H  1550  1  0.24195700  0.63645200  0.48002600  1
  H  1551  1  0.30699400  0.58729100  0.49732900  1
  H  1552  1  0.25441600  0.51798000  0.36190100  1
  H  1554  1  0.20289300  0.58261800  0.41886500  1
  H  1555  1  0.18678400  0.61043700  0.44732600  1
  H  1556  1  0.22467600  0.61304900  0.42910400  1
  H  1558  1  0.18956300  0.55165000  0.46293400  1
  H  1559  1  0.18772000  0.51788000  0.45165500  1
  H  1560  1  0.22962300  0.53526500  0.46600800  1
  H  1567  1  0.19448300  0.91282100  0.50657200  1
  H  1574  1  0.24195200  0.84227300  0.36250500  1
  H  1575  1  0.30697700  0.90874500  0.41166900  1
  H  1576  1  0.25441100  0.84261800  0.48097700  1
  H  1578  1  0.20289900  0.83493800  0.41633700  1
  H  1579  1  0.18678700  0.83558200  0.38851900  1
  H  1580  1  0.22468400  0.81475100  0.38590700  1
  H  1582  1  0.18956300  0.90998400  0.44731000  1
  H  1583  1  0.18772300  0.93247400  0.48107900  1
  H  1584  1  0.22962000  0.92944200  0.46369300  1
  H  1591  1  0.19449700  0.59245300  0.08611500  1
  H  1598  1  0.24194300  0.51893200  0.15667300  1
  H  1599  1  0.30697700  0.50161800  0.09020300  1
  H  1600  1  0.25441900  0.63705000  0.15632200  1
  H  1602  1  0.20288200  0.58009100  0.16399100  1
  H  1603  1  0.18677600  0.55163100  0.16335600  1
  H  1604  1  0.22467000  0.56985600  0.18418600  1
  H  1606  1  0.18956100  0.53602500  0.08894600  1
  H  1607  1  0.18773400  0.54730600  0.06645500  1
  H  1608  1  0.22962600  0.53294700  0.06949200  1
  H  1615  1  0.19446600  0.50606500  0.59296600  1
  H  1622  1  0.24195200  0.36200100  0.51944700  1
  H  1623  1  0.30698300  0.41115300  0.50212900  1
  H  1624  1  0.25443300  0.48047300  0.63756300  1
  H  1626  1  0.20289600  0.41584200  0.58060700  1
  H  1627  1  0.18678700  0.38802000  0.55214900  1
  H  1628  1  0.22468100  0.38541300  0.57037200  1
  H  1630  1  0.18956300  0.44680700  0.53653300  1
  H  1631  1  0.18772000  0.48057900  0.54781600  1
  H  1632  1  0.22962000  0.46319500  0.53346200  1
  H  1639  1  0.19447700  0.08561700  0.49290800  1
  H  1646  1  0.24195200  0.15616100  0.63697700  1
  H  1647  1  0.30698000  0.08969000  0.58781400  1
  H  1648  1  0.25441900  0.15581700  0.51850800  1
  H  1650  1  0.20289300  0.16349000  0.58314300  1
  H  1651  1  0.18678400  0.16284900  0.61096300  1
  H  1652  1  0.22468100  0.18368000  0.61357500  1
  H  1654  1  0.18955800  0.08844700  0.55216800  1
  H  1655  1  0.18772000  0.06595800  0.51839700  1
  H  1656  1  0.22961700  0.06899000  0.53578400  1
  H  1663  1  0.19448000  0.40598400  0.91332900  1
  H  1670  1  0.24196600  0.47949700  0.84277700  1
  H  1671  1  0.30699100  0.49680000  0.90924600  1
  H  1672  1  0.25441300  0.36137100  0.84313200  1
  H  1674  1  0.20290100  0.41833200  0.83544500  1
  H  1675  1  0.18679600  0.44679400  0.83608600  1
  H  1676  1  0.22469000  0.42857300  0.81525500  1
  H  1678  1  0.18956300  0.46240700  0.91048400  1
  H  1679  1  0.18771700  0.45113200  0.93297800  1
  H  1680  1  0.22961700  0.46548500  0.92994700  1
  C  1  1  0.73697100  0.98880400  0.36783000  1
  C  2  1  0.82335000  0.99661500  0.36903800  1
  C  6  1  0.70391300  0.99498600  0.58795300  1
  C  9  1  0.29545700  0.99277800  0.59191800  1
  C  10  1  0.26182900  0.98954400  0.36375000  1
  C  11  1  0.17516200  0.99693000  0.36588800  1
  C  14  1  0.71393500  0.98340600  0.38425900  1
  C  16  1  0.75442700  0.98493800  0.62283300  1
  C  17  1  0.79418300  0.98085300  0.62095300  1
  C  19  1  0.24386000  0.98440900  0.62740000  1
  C  20  1  0.20407800  0.98042900  0.62472000  1
  C  23  1  0.28542900  0.98498800  0.38053200  1
  C  27  1  0.79421100  0.55107200  0.69575700  1
  C  28  1  0.83868800  0.55049200  0.69545100  1
  C  29  1  0.77866700  0.52521900  0.67172100  1
  C  30  1  0.79401200  0.52022300  0.64459200  1
  C  33  1  0.83830900  0.52002100  0.64647600  1
  C  34  1  0.85543400  0.54617000  0.66916300  1
  C  39  1  0.84078800  0.56853500  0.66451400  1
  C  40  1  0.79642200  0.57090700  0.66450900  1
  C  43  1  0.78132600  0.54415700  0.64183000  1
  C  46  1  0.78189600  0.57425800  0.69124600  1
  C  49  1  0.79422400  0.14338400  0.44788900  1
  C  50  1  0.83870300  0.14365500  0.44846300  1
  C  51  1  0.77868700  0.14520800  0.47374900  1
  C  52  1  0.79403600  0.12308100  0.47875200  1
  C  55  1  0.83833300  0.12516900  0.47894900  1
  C  56  1  0.85545100  0.12169600  0.45279500  1
  C  61  1  0.84080100  0.09467700  0.43043700  1
  C  62  1  0.79643400  0.09230100  0.42806900  1
  C  65  1  0.78134600  0.09638300  0.45482500  1
  C  68  1  0.78190500  0.11568400  0.42471200  1
  C  71  1  0.79421500  0.30319900  0.85557600  1
  C  72  1  0.83869200  0.30350400  0.85529700  1
  C  73  1  0.77867000  0.32723800  0.85376100  1
  C  74  1  0.79401800  0.35436600  0.87589400  1
  C  77  1  0.83831500  0.35248000  0.87380300  1
  C  78  1  0.85544200  0.32979100  0.87726200  1
  C  83  1  0.84080100  0.33444100  0.90427800  1
  C  84  1  0.79643400  0.33444600  0.90665700  1
  C  87  1  0.78133700  0.35712800  0.90259000  1
  C  90  1  0.78190500  0.30771100  0.88327200  1
  C  93  1  0.79421100  0.44736800  0.30372500  1
  C  94  1  0.83868800  0.44794900  0.30402900  1
  C  95  1  0.77866800  0.47322100  0.32776600  1
  C  96  1  0.79401800  0.47821400  0.35489200  1
  C  99  1  0.83831400  0.47841600  0.35300400  1
  C  100  1  0.85543900  0.45226900  0.33031500  1
  C  105  1  0.84079800  0.42990400  0.33496400  1
  C  106  1  0.79643200  0.42752900  0.33497000  1
  C  109  1  0.78133700  0.45427800  0.35765300  1
  C  112  1  0.78190200  0.42418100  0.30823600  1
  C  115  1  0.79421500  0.85505500  0.55158400  1
  C  116  1  0.83869200  0.85478000  0.55100300  1
  C  117  1  0.77867200  0.85323800  0.52573000  1
  C  118  1  0.79401900  0.87537100  0.52073500  1
  C  121  1  0.83831500  0.87328400  0.52053300  1
  C  122  1  0.85544000  0.87674600  0.54668200  1
  C  127  1  0.84079500  0.90376000  0.56904600  1
  C  128  1  0.79642800  0.90613800  0.57142100  1
  C  131  1  0.78133400  0.90206700  0.54466800  1
  C  134  1  0.78190100  0.88275200  0.57477000  1
  C  137  1  0.79423100  0.69523800  0.14391000  1
  C  138  1  0.83871000  0.69493800  0.14418400  1
  C  139  1  0.77869300  0.67120600  0.14574000  1
  C  140  1  0.79404500  0.64407500  0.12361500  1
  C  143  1  0.83834100  0.64596600  0.12570300  1
  C  144  1  0.85546000  0.66864600  0.12222700  1
  C  149  1  0.84081100  0.66398100  0.09520800  1
  C  150  1  0.79644500  0.66397200  0.09283100  1
  C  153  1  0.78135700  0.64129900  0.09691300  1
  C  156  1  0.78191400  0.69071200  0.11620900  1
  C  159  1  0.70472200  0.85787500  0.30703500  1
  C  160  1  0.66024100  0.85768000  0.30697800  1
  C  161  1  0.71979300  0.85347500  0.32960900  1
  C  162  1  0.70445300  0.87410200  0.35735300  1
  C  165  1  0.66009400  0.87246500  0.35521500  1
  C  166  1  0.64323900  0.87826100  0.33390600  1
  C  171  1  0.65772200  0.90613800  0.34088900  1
  C  172  1  0.70200200  0.90838400  0.34174400  1
  C  175  1  0.71769700  0.90154000  0.36245100  1
  C  178  1  0.71712100  0.88642900  0.31427100  1
  C  181  1  0.70474200  0.69192100  0.55109600  1
  C  182  1  0.66026100  0.69197400  0.55095300  1
  C  183  1  0.71981300  0.66934200  0.52412500  1
  C  184  1  0.70447600  0.64159900  0.51701300  1
  C  187  1  0.66011700  0.64373500  0.51751000  1
  C  188  1  0.64325900  0.66504800  0.54461200  1
  C  193  1  0.65773600  0.65807200  0.56551100  1
  C  194  1  0.70201400  0.65721900  0.56690500  1
  C  197  1  0.71771600  0.63650900  0.53935700  1
  C  200  1  0.71713600  0.68469100  0.57241800  1
  C  203  1  0.70472200  0.44786600  0.14109000  1
  C  204  1  0.66024100  0.44800800  0.14127900  1
  C  205  1  0.71979700  0.47484000  0.14549400  1
  C  206  1  0.70447000  0.48195900  0.12486600  1
  C  209  1  0.66011100  0.48146000  0.12649400  1
  C  210  1  0.64325000  0.45435600  0.12069600  1
  C  215  1  0.65773600  0.43346100  0.09282000  1
  C  216  1  0.70201600  0.43206700  0.09058100  1
  C  219  1  0.71771800  0.45962000  0.09743100  1
  C  222  1  0.71712400  0.42654800  0.11253700  1
  C  225  1  0.70473000  0.14056300  0.69244200  1
  C  226  1  0.66024900  0.14075500  0.69249400  1
  C  227  1  0.71980200  0.14496400  0.66986900  1
  C  228  1  0.70447000  0.12433700  0.64212500  1
  C  231  1  0.66011100  0.12596900  0.64425600  1
  C  232  1  0.64325300  0.12017300  0.66556500  1
  C  237  1  0.65773600  0.09229600  0.65858200  1
  C  238  1  0.70201600  0.09005300  0.65773200  1
  C  241  1  0.71771700  0.09690000  0.63702800  1
  C  244  1  0.71713000  0.11201000  0.68520700  1
  C  247  1  0.70472500  0.30651700  0.44839100  1
  C  248  1  0.66024400  0.30645900  0.44852600  1
  C  249  1  0.71979200  0.32909300  0.47536700  1
  C  250  1  0.70445300  0.35683500  0.48248200  1
  C  253  1  0.66009400  0.35469600  0.48197900  1
  C  254  1  0.64324200  0.33333333  0.45481933  1
  C  259  1  0.65772500  0.34037100  0.43398100  1
  C  260  1  0.70200500  0.34122700  0.43259200  1
  C  263  1  0.71769600  0.36193500  0.46014500  1
  C  266  1  0.71712700  0.31375400  0.42707400  1
  C  269  1  0.70474200  0.55057400  0.85839800  1
  C  270  1  0.66026100  0.55043400  0.85820400  1
  C  271  1  0.71981100  0.52360100  0.85400100  1
  C  272  1  0.70447600  0.51648400  0.87462900  1
  C  275  1  0.66011700  0.51698400  0.87299300  1
  C  276  1  0.64325900  0.54408800  0.87878700  1
  C  281  1  0.65773900  0.56498500  0.90666300  1
  C  282  1  0.70201900  0.56637500  0.90890700  1
  C  285  1  0.71771700  0.53882600  0.90206500  1
  C  288  1  0.71713800  0.57189400  0.88695300  1
  C  291  1  0.20527100  0.44772600  0.30377900  1
  C  292  1  0.16091400  0.44993600  0.30533100  1
  C  293  1  0.22234900  0.47235400  0.32833900  1
  C  294  1  0.20784900  0.47586500  0.35508500  1
  C  297  1  0.16361900  0.47718200  0.35452500  1
  C  298  1  0.14457400  0.45253500  0.33115800  1
  C  303  1  0.15789700  0.42838300  0.33320000  1
  C  304  1  0.20226000  0.42490900  0.33238300  1
  C  307  1  0.21932700  0.45054900  0.35570300  1
  C  310  1  0.21622500  0.42305500  0.30620700  1
  C  313  1  0.20526800  0.85476000  0.55124100  1
  C  314  1  0.16091100  0.85410400  0.54903000  1
  C  315  1  0.22234900  0.85468600  0.52661000  1
  C  316  1  0.20785500  0.87792200  0.52309700  1
  C  319  1  0.16362500  0.87604900  0.52178000  1
  C  320  1  0.14457900  0.87733400  0.54642900  1
  C  325  1  0.15790600  0.90352600  0.57057800  1
  C  326  1  0.20226800  0.90618000  0.57405200  1
  C  329  1  0.21933800  0.90385700  0.54841100  1
  C  332  1  0.21622800  0.88185700  0.57590800  1
  C  335  1  0.20528800  0.69518100  0.14419800  1
  C  336  1  0.16093100  0.69362800  0.14485800  1
  C  337  1  0.22236600  0.67062000  0.14426200  1
  C  338  1  0.20786900  0.64387300  0.12102100  1
  C  341  1  0.16363600  0.64443300  0.12290000  1
  C  342  1  0.14459100  0.66780400  0.12162700  1
  C  347  1  0.15791200  0.66576800  0.09543600  1
  C  348  1  0.20227400  0.66658300  0.09277600  1
  C  351  1  0.21934400  0.64326100  0.09509000  1
  C  354  1  0.21624000  0.69275900  0.11710300  1
  C  357  1  0.20526800  0.55071200  0.69569500  1
  C  358  1  0.16091100  0.54849800  0.69414400  1
  C  359  1  0.22234600  0.52608800  0.67113200  1
  C  360  1  0.20784300  0.52258100  0.64438600  1
  C  363  1  0.16361400  0.52126200  0.64494800  1
  C  364  1  0.14456800  0.54590500  0.66832000  1
  C  369  1  0.15788600  0.57006000  0.66628300  1
  C  370  1  0.20224600  0.57353700  0.66709800  1
  C  373  1  0.21931800  0.54790100  0.64377300  1
  C  376  1  0.21621700  0.57538500  0.69327200  1
  C  379  1  0.20527900  0.14368700  0.44825100  1
  C  380  1  0.16092200  0.14434600  0.45046100  1
  C  381  1  0.22235500  0.14375500  0.47287900  1
  C  382  1  0.20785500  0.12051800  0.47638800  1
  C  385  1  0.16362500  0.12239300  0.47770300  1
  C  386  1  0.14458200  0.12111800  0.45305800  1
  C  391  1  0.15790600  0.09492500  0.42890600  1
  C  392  1  0.20226800  0.09226500  0.42543200  1
  C  395  1  0.21933500  0.09458500  0.45107400  1
  C  398  1  0.21623400  0.11659000  0.42357900  1
  C  401  1  0.20527100  0.30325600  0.85527900  1
  C  402  1  0.16091400  0.30481000  0.85462500  1
  C  403  1  0.22234900  0.32781200  0.85520300  1
  C  404  1  0.20785500  0.35456200  0.87843900  1
  C  407  1  0.16362500  0.35400400  0.87656400  1
  C  408  1  0.14457900  0.33064000  0.87785000  1
  C  413  1  0.15790900  0.33268600  0.90404500  1
  C  414  1  0.20226800  0.33186900  0.90670100  1
  C  417  1  0.21933800  0.35518400  0.90437200  1
  C  420  1  0.21623100  0.30568800  0.88237700  1
  C  423  1  0.29296900  0.13968100  0.69115800  1
  C  424  1  0.33736500  0.14062000  0.69025900  1
  C  425  1  0.27656600  0.14232700  0.66787400  1
  C  426  1  0.29131200  0.12063600  0.64044100  1
  C  429  1  0.33561500  0.12225300  0.64144700  1
  C  430  1  0.35426000  0.11877600  0.66371900  1
  C  435  1  0.34125500  0.09153900  0.65935700  1
  C  436  1  0.29694700  0.08862100  0.65884800  1
  C  439  1  0.27938200  0.09370500  0.63731900  1
  C  442  1  0.28197400  0.11145800  0.68582500  1
  C  445  1  0.29295800  0.30781100  0.44879000  1
  C  446  1  0.33735100  0.30870400  0.45062200  1
  C  447  1  0.27656100  0.33109700  0.47471700  1
  C  448  1  0.29130900  0.35852800  0.48045500  1
  C  451  1  0.33561200  0.35751900  0.48106500  1
  C  452  1  0.35425400  0.33524100  0.45531500  1
  C  457  1  0.34124900  0.33960200  0.43243800  1
  C  458  1  0.29694100  0.34011400  0.43003100  1
  C  461  1  0.27938200  0.36164500  0.45664300  1
  C  464  1  0.28196300  0.31314100  0.42589700  1
  C  467  1  0.29297500  0.55016100  0.85926500  1
  C  468  1  0.33737100  0.54832800  0.85833000  1
  C  469  1  0.27657800  0.52422800  0.85661500  1
  C  470  1  0.29132300  0.51848400  0.87830500  1
  C  473  1  0.33562600  0.51787700  0.87668900  1
  C  474  1  0.35426800  0.54363100  0.88017200  1
  C  479  1  0.34125800  0.56650200  0.90740900  1
  C  480  1  0.29694900  0.56890600  0.91032400  1
  C  483  1  0.27938800  0.54229000  0.90523500  1
  C  486  1  0.28197400  0.57304800  0.88748800  1
  C  489  1  0.29295800  0.85875900  0.30832600  1
  C  490  1  0.33735400  0.85782400  0.30922400  1
  C  491  1  0.27656300  0.85611200  0.33161000  1
  C  492  1  0.29130700  0.87780200  0.35904400  1
  C  495  1  0.33560900  0.87618700  0.35803500  1
  C  496  1  0.35425100  0.87966700  0.33576300  1
  C  501  1  0.34123800  0.90690600  0.34012900  1
  C  502  1  0.29693000  0.90982000  0.34063700  1
  C  505  1  0.27937100  0.90473100  0.36216500  1
  C  508  1  0.28195700  0.88698200  0.31366100  1
  C  511  1  0.29297200  0.69063400  0.55068500  1
  C  512  1  0.33736500  0.68973800  0.54885000  1
  C  513  1  0.27657200  0.66735000  0.52475500  1
  C  514  1  0.29132100  0.63991700  0.51901200  1
  C  517  1  0.33562400  0.64092600  0.51840200  1
  C  518  1  0.35426500  0.66320000  0.54415300  1
  C  523  1  0.34126100  0.65883500  0.56702700  1
  C  524  1  0.29695200  0.65832300  0.56943400  1
  C  527  1  0.27939300  0.63679400  0.54282000  1
  C  530  1  0.28197400  0.68529900  0.57357400  1
  C  533  1  0.29296300  0.44827500  0.14020400  1
  C  534  1  0.33735700  0.45011300  0.14114400  1
  C  535  1  0.27656100  0.47420300  0.14284500  1
  C  536  1  0.29130900  0.47994300  0.12115500  1
  C  539  1  0.33561200  0.48055700  0.12277600  1
  C  540  1  0.35425700  0.45480800  0.11930200  1
  C  545  1  0.34125500  0.43193100  0.09206300  1
  C  546  1  0.29694900  0.42951900  0.08914100  1
  C  549  1  0.27938200  0.45613200  0.09422400  1
  C  552  1  0.28197200  0.42538200  0.11198000  1
  C  555  1  0.78081400  0.55299400  0.72119500  1
  C  556  1  0.75957900  0.57403800  0.74068000  1
  C  558  1  0.75907200  0.55603900  0.76910800  1
  C  559  1  0.78039900  0.53422300  0.75072600  1
  C  560  1  0.79061800  0.53328500  0.72719800  1
  C  562  1  0.74561200  0.55839000  0.79276100  1
  C  563  1  0.75677500  0.57762000  0.81833800  1
  C  564  1  0.74290600  0.57535600  0.83965500  1
  C  565  1  0.71891700  0.55466200  0.83634000  1
  C  566  1  0.70877600  0.53676800  0.81013800  1
  C  571  1  0.78355000  0.59915300  0.82392500  1
  C  575  1  0.79321800  0.51317600  0.75579500  1
  C  579  1  0.78083000  0.16689500  0.44596200  1
  C  580  1  0.75956900  0.16533100  0.42492400  1
  C  582  1  0.75906100  0.21175800  0.44291600  1
  C  583  1  0.78040400  0.21519700  0.46472800  1
  C  584  1  0.79063300  0.19260900  0.46566700  1
  C  586  1  0.74559400  0.23306000  0.44056500  1
  C  587  1  0.75675700  0.23940800  0.42133600  1
  C  588  1  0.74289000  0.26299100  0.42360500  1
  C  589  1  0.71890600  0.28037000  0.44430200  1
  C  590  1  0.70876200  0.27205800  0.46219100  1
  C  595  1  0.78353100  0.22346300  0.39980300  1
  C  599  1  0.79322700  0.24131500  0.48577000  1
  C  603  1  0.78081500  0.27776300  0.83206100  1
  C  604  1  0.75957600  0.25828000  0.83362300  1
  C  606  1  0.75906200  0.22985000  0.78719600  1
  C  607  1  0.78038800  0.24823200  0.78375900  1
  C  608  1  0.79061300  0.27175900  0.80634700  1
  C  610  1  0.74559800  0.20619800  0.76589500  1
  C  611  1  0.75676300  0.18062100  0.75954800  1
  C  612  1  0.74289300  0.15930600  0.73596800  1
  C  613  1  0.71890400  0.16262100  0.71859000  1
  C  614  1  0.70875600  0.18882200  0.72690100  1
  C  619  1  0.78354300  0.17503400  0.77549100  1
  C  623  1  0.79320200  0.24316100  0.75764100  1
  C  627  1  0.78080900  0.44544600  0.27829100  1
  C  628  1  0.75957000  0.42440200  0.25880700  1
  C  630  1  0.75905300  0.44240100  0.23037800  1
  C  631  1  0.78037900  0.46422000  0.24876100  1
  C  632  1  0.79060500  0.46515600  0.27228700  1
  C  634  1  0.74559000  0.44004800  0.20672500  1
  C  635  1  0.75675800  0.42082100  0.18114900  1
  C  636  1  0.74288800  0.42308400  0.15983300  1
  C  637  1  0.71889100  0.44377500  0.16315000  1
  C  638  1  0.70874500  0.46166500  0.18934900  1
  C  643  1  0.78354300  0.39929300  0.17556400  1
  C  647  1  0.79319100  0.48526700  0.24369100  1
  C  651  1  0.78081700  0.83153900  0.55350500  1
  C  652  1  0.75958300  0.83309900  0.57455000  1
  C  654  1  0.75907500  0.78667200  0.55655300  1
  C  655  1  0.78040100  0.78323700  0.53473500  1
  C  656  1  0.79062000  0.80582800  0.53379700  1
  C  658  1  0.74561600  0.76537000  0.55890400  1
  C  659  1  0.75677600  0.75902600  0.57813700  1
  C  660  1  0.74290600  0.73544600  0.57587400  1
  C  661  1  0.71891800  0.71806700  0.55518100  1
  C  662  1  0.70878200  0.72637100  0.53728500  1
  C  667  1  0.78355200  0.77497400  0.59966900  1
  C  671  1  0.79321900  0.75712100  0.51368700  1
  C  675  1  0.78083500  0.72068000  0.16742000  1
  C  676  1  0.75957400  0.74015100  0.16585500  1
  C  678  1  0.75906200  0.76859100  0.21228000  1
  C  679  1  0.78040600  0.75021900  0.21572100  1
  C  680  1  0.79063700  0.72669100  0.19313500  1
  C  682  1  0.74559200  0.79224200  0.23357800  1
  C  683  1  0.75675400  0.81782000  0.23992600  1
  C  684  1  0.74288600  0.83913500  0.26350800  1
  C  685  1  0.71890200  0.83581600  0.28088600  1
  C  686  1  0.70875900  0.80961600  0.27257600  1
  C  691  1  0.78352800  0.82340700  0.22398100  1
  C  695  1  0.79322700  0.75529900  0.24184000  1
  C  699  1  0.21841900  0.44679900  0.27871500  1
  C  700  1  0.23851100  0.42571300  0.25835900  1
  C  702  1  0.23939600  0.44527600  0.23127900  1
  C  703  1  0.21951300  0.46732200  0.25070400  1
  C  704  1  0.20965300  0.46749700  0.27395700  1
  C  706  1  0.25178100  0.44300200  0.20737500  1
  C  707  1  0.24184700  0.42274700  0.18193400  1
  C  708  1  0.25583800  0.42427000  0.16023100  1
  C  709  1  0.27875700  0.44518300  0.16289900  1
  C  710  1  0.28760600  0.46421400  0.18899100  1
  C  715  1  0.21606100  0.40080800  0.17669200  1
  C  719  1  0.20750400  0.48932900  0.24691600  1
  C  723  1  0.21841100  0.83062100  0.55216900  1
  C  724  1  0.23852000  0.83135200  0.57324800  1
  C  726  1  0.23940500  0.78471000  0.55368700  1
  C  727  1  0.21951300  0.78209000  0.53164600  1
  C  728  1  0.20964700  0.80516500  0.53147000  1
  C  730  1  0.25179300  0.76308100  0.55596300  1
  C  731  1  0.24185800  0.75789300  0.57621600  1
  C  732  1  0.25584700  0.73466800  0.57469300  1
  C  733  1  0.27876300  0.71642300  0.55377700  1
  C  734  1  0.28761700  0.72348700  0.53475000  1
  C  739  1  0.21607300  0.77459100  0.59815800  1
  C  743  1  0.20750100  0.75629200  0.50963900  1
  C  747  1  0.21843600  0.72024400  0.16833600  1
  C  748  1  0.23852500  0.74060100  0.16761000  1
  C  750  1  0.23941000  0.76767900  0.21425000  1
  C  751  1  0.21953300  0.74825100  0.21686900  1
  C  752  1  0.20967200  0.72499900  0.19379300  1
  C  754  1  0.25179000  0.79158600  0.23588200  1
  C  755  1  0.24184700  0.81702500  0.24106800  1
  C  756  1  0.25583300  0.83872800  0.26429300  1
  C  757  1  0.27875400  0.83606100  0.28253800  1
  C  758  1  0.28761700  0.80997100  0.27547500  1
  C  763  1  0.21605600  0.82226500  0.22437200  1
  C  767  1  0.20752700  0.75203800  0.24266600  1
  C  771  1  0.21841900  0.55163500  0.72075600  1
  C  772  1  0.23851100  0.57272000  0.74111200  1
  C  774  1  0.23940500  0.55315600  0.76818800  1
  C  775  1  0.21952700  0.53110900  0.74876100  1
  C  776  1  0.20966400  0.53093400  0.72551100  1
  C  778  1  0.25179000  0.55543100  0.79209500  1
  C  779  1  0.24184700  0.57568100  0.81753300  1
  C  780  1  0.25584100  0.57416000  0.83923600  1
  C  781  1  0.27877400  0.55325200  0.83656700  1
  C  782  1  0.28762900  0.53422700  0.81047700  1
  C  787  1  0.21604700  0.59761600  0.82277600  1
  C  791  1  0.20752700  0.50909600  0.75254800  1
  C  795  1  0.21843100  0.16782600  0.44732600  1
  C  796  1  0.23851700  0.16709600  0.42623900  1
  C  798  1  0.23939900  0.21373800  0.44579900  1
  C  799  1  0.21952200  0.21635700  0.46784500  1
  C  800  1  0.20966400  0.19328100  0.46802300  1
  C  802  1  0.25177900  0.23536800  0.44352300  1
  C  803  1  0.24184100  0.24055300  0.42326900  1
  C  804  1  0.25583000  0.26377700  0.42478900  1
  C  805  1  0.27875200  0.28202200  0.44570000  1
  C  806  1  0.28760300  0.27496200  0.46473000  1
  C  811  1  0.21605300  0.22385500  0.40133100  1
  C  815  1  0.20751200  0.24215400  0.48985300  1
  C  819  1  0.21841100  0.27818900  0.83114300  1
  C  820  1  0.23852200  0.25784000  0.83187400  1
  C  822  1  0.23940700  0.23075500  0.78523300  1
  C  823  1  0.21951600  0.25017700  0.78261100  1
  C  824  1  0.20965000  0.27342800  0.80568500  1
  C  826  1  0.25179600  0.20685100  0.76360400  1
  C  827  1  0.24186100  0.18141200  0.75841900  1
  C  828  1  0.25585000  0.15970900  0.73519200  1
  C  829  1  0.27876600  0.16237900  0.71694700  1
  C  830  1  0.28762000  0.18846900  0.72401000  1
  C  835  1  0.21607800  0.17617000  0.77511700  1
  C  839  1  0.20750400  0.24638200  0.75681200  1
  C  843  1  0.71299100  0.64918500  0.58685600  1
  C  844  1  0.73458600  0.66469100  0.60962400  1
  C  846  1  0.73697300  0.63115000  0.62125500  1
  C  847  1  0.71394400  0.61471800  0.59942800  1
  C  848  1  0.70202200  0.62444300  0.58312000  1
  C  850  1  0.75442000  0.62232400  0.63712700  1
  C  851  1  0.79417600  0.62044200  0.63932800  1
  C  852  1  0.80736700  0.60615300  0.65109200  1
  C  853  1  0.78305400  0.59255900  0.65940400  1
  C  854  1  0.74402900  0.59734100  0.65848500  1
  C  859  1  0.82335200  0.62995000  0.62786500  1
  C  863  1  0.70389400  0.58744800  0.59220600  1
  C  867  1  0.71298000  0.93636900  0.34978500  1
  C  868  1  0.73458300  0.94363400  0.33428400  1
  C  869  1  0.70201100  0.95737400  0.37452800  1
  C  871  1  0.75441800  0.01350200  0.37665900  1
  C  872  1  0.79417400  0.01758500  0.37854300  1
  C  873  1  0.80736500  0.04363900  0.39283400  1
  C  874  1  0.78304800  0.06554300  0.40643100  1
  C  875  1  0.74402500  0.05984200  0.40164100  1
  C  881  1  0.70388200  0.00345000  0.41152500  1
  C  884  1  0.71300200  0.41212500  0.06259700  1
  C  885  1  0.73459500  0.38935500  0.05533400  1
  C  887  1  0.73698300  0.37772900  0.01016300  1
  C  888  1  0.71395500  0.39955600  0.01556000  1
  C  889  1  0.70203600  0.41586300  0.04159300  1
  C  891  1  0.75442900  0.36185700  0.98546400  1
  C  892  1  0.79418300  0.35966700  0.98138000  1
  C  893  1  0.80736700  0.34789300  0.95532400  1
  C  894  1  0.78305900  0.33953800  0.93340700  1
  C  895  1  0.74403700  0.34047700  0.93912600  1
  C  900  1  0.82335800  0.37114900  0.00235000  1
  C  904  1  0.70390500  0.40677700  0.99551000  1
  C  908  1  0.71298500  0.34926800  0.41264800  1
  C  909  1  0.73459700  0.33376900  0.38988600  1
  C  911  1  0.73697900  0.36731300  0.37825900  1
  C  912  1  0.71393800  0.38373900  0.40008200  1
  C  913  1  0.70201400  0.37401000  0.41638500  1
  C  915  1  0.75442900  0.37614300  0.36239200  1
  C  916  1  0.79418400  0.37803500  0.36020300  1
  C  917  1  0.80737200  0.39231000  0.34842300  1
  C  918  1  0.78307100  0.40586600  0.34005800  1
  C  919  1  0.74404500  0.40109900  0.34100800  1
  C  924  1  0.82335600  0.36855100  0.37168900  1
  C  928  1  0.70387700  0.41100600  0.40730200  1
  C  932  1  0.71300000  0.06207000  0.64969500  1
  C  933  1  0.73458900  0.05480600  0.66520000  1
  C  935  1  0.73698200  0.00963400  0.63165700  1
  C  936  1  0.71396100  0.01503300  0.61522500  1
  C  937  1  0.70203600  0.04106500  0.62495000  1
  C  939  1  0.80737300  0.95480100  0.60666600  1
  C  940  1  0.78305900  0.93289500  0.59307000  1
  C  941  1  0.74403500  0.93859700  0.59785100  1
  C  946  1  0.82336000  0.00182300  0.63046200  1
  C  950  1  0.71299700  0.58632300  0.93689400  1
  C  951  1  0.73460100  0.60908700  0.94415800  1
  C  953  1  0.73698700  0.62071200  0.98932900  1
  C  954  1  0.71395200  0.59888600  0.98392900  1
  C  955  1  0.70202800  0.58258400  0.95789900  1
  C  957  1  0.75443400  0.63657900  0.01402800  1
  C  958  1  0.79419000  0.63877700  0.01811300  1
  C  959  1  0.80737900  0.65054000  0.04416600  1
  C  960  1  0.78306000  0.65884900  0.06607000  1
  C  961  1  0.74403900  0.65793900  0.06036800  1
  C  966  1  0.82336600  0.62731200  0.99714200  1
  C  970  1  0.70389400  0.59166400  0.00397700  1
  C  974  1  0.28678600  0.34669500  0.40888500  1
  C  975  1  0.26476300  0.33070700  0.38649000  1
  C  977  1  0.26183400  0.36322500  0.37342000  1
  C  978  1  0.28544600  0.38000300  0.39475200  1
  C  979  1  0.29784800  0.37100200  0.41156500  1
  C  981  1  0.24384300  0.37156900  0.35727400  1
  C  982  1  0.20405800  0.37424600  0.35597700  1
  C  983  1  0.19070600  0.38885000  0.34456100  1
  C  984  1  0.21500400  0.40204000  0.33578300  1
  C  985  1  0.25388500  0.39616200  0.33544900  1
  C  990  1  0.17516200  0.36537300  0.36818600  1
  C  994  1  0.29546200  0.40704200  0.40111500  1
  C  998  1  0.28679200  0.06089400  0.65226700  1
  C  999  1  0.26477700  0.05448500  0.66825900  1
  C  1001  1  0.26184900  0.00889600  0.63574000  1
  C  1002  1  0.28544900  0.01345200  0.61895700  1
  C  1003  1  0.29784800  0.03926700  0.62795700  1
  C  1005  1  0.19072800  0.95441000  0.61011100  1
  C  1006  1  0.21503500  0.93244700  0.59691400  1
  C  1007  1  0.25391000  0.93799000  0.60280400  1
  C  1012  1  0.17517900  0.00151000  0.63359700  1
  C  1016  1  0.28678000  0.59004700  0.93805200  1
  C  1017  1  0.26478000  0.61245100  0.94446100  1
  C  1019  1  0.26185700  0.62552100  0.99004800  1
  C  1020  1  0.28545700  0.60418400  0.98549400  1
  C  1021  1  0.29785100  0.58736600  0.95967800  1
  C  1023  1  0.24386800  0.64166800  0.01453800  1
  C  1024  1  0.20408900  0.64295300  0.01851500  1
  C  1025  1  0.19074200  0.65437800  0.04453700  1
  C  1026  1  0.21502700  0.66320700  0.06652200  1
  C  1027  1  0.25390500  0.66351800  0.06095600  1
  C  1032  1  0.17519300  0.63072100  0.99743300  1
  C  1036  1  0.29547400  0.59782500  0.00617400  1
  C  1040  1  0.28679500  0.65173800  0.59057800  1
  C  1041  1  0.26476000  0.66772100  0.61296800  1
  C  1043  1  0.26183700  0.63519900  0.62603300  1
  C  1044  1  0.28545700  0.61842600  0.60470500  1
  C  1045  1  0.29786200  0.62742900  0.58789500  1
  C  1047  1  0.24383700  0.62685200  0.64217300  1
  C  1048  1  0.20405800  0.62415800  0.64345100  1
  C  1049  1  0.19070600  0.60956900  0.65488200  1
  C  1050  1  0.21497900  0.59642100  0.66372400  1
  C  1051  1  0.25386200  0.60228700  0.66402800  1
  C  1056  1  0.17516800  0.63300400  0.63121200  1
  C  1060  1  0.29548200  0.59138900  0.59834600  1
  C  1064  1  0.28676600  0.93754700  0.34722200  1
  C  1065  1  0.26475800  0.94395700  0.33123000  1
  C  1066  1  0.29782900  0.95917300  0.37153300  1
  C  1068  1  0.24384300  0.01403300  0.37209000  1
  C  1069  1  0.20406100  0.01801200  0.37476600  1
  C  1070  1  0.19071100  0.04403100  0.38936900  1
  C  1071  1  0.21501000  0.06599700  0.40256300  1
  C  1072  1  0.25389000  0.06045300  0.39668700  1
  C  1078  1  0.29543700  0.00566300  0.40757300  1
  C  1081  1  0.28679500  0.40837200  0.06141500  1
  C  1082  1  0.26477700  0.38597500  0.05500800  1
  C  1084  1  0.26185100  0.37290200  0.00942000  1
  C  1085  1  0.28545500  0.39423900  0.01397300  1
  C  1086  1  0.29785400  0.41105500  0.03978800  1
  C  1088  1  0.24386300  0.35675500  0.98493000  1
  C  1089  1  0.20408000  0.35545600  0.98095000  1
  C  1090  1  0.19073100  0.34404400  0.95493200  1
  C  1091  1  0.21503800  0.33527500  0.93296600  1
  C  1092  1  0.25391300  0.33493000  0.93851100  1
  C  1097  1  0.17518200  0.36766200  0.00203100  1
  C  1101  1  0.29546800  0.40060300  0.99329700  1
  C  1105  1  0.10145800  0.54465000  0.66791600  1
  C  1106  1  0.07983100  0.56403300  0.68862800  1
  C  1108  1  0.02009800  0.54522100  0.66813600  1
  C  1109  1  0.03987900  0.52534200  0.64604800  1
  C  1110  1  0.07989300  0.52535500  0.64685800  1
  C  1112  1  0.97970400  0.54784700  0.67109200  1
  C  1113  1  0.95888000  0.57094800  0.68794000  1
  C  1114  1  0.91883300  0.56940700  0.68751800  1
  C  1115  1  0.89846600  0.54641700  0.67047100  1
  C  1116  1  0.92108500  0.52418700  0.65532100  1
  C  1121  1  0.97673100  0.59679900  0.70521300  1
  C  1125  1  0.02115500  0.50517300  0.62160700  1
  C  1129  1  0.10147200  0.12196400  0.45430800  1
  C  1130  1  0.07984800  0.12329200  0.43492300  1
  C  1132  1  0.02011200  0.12161000  0.45373300  1
  C  1133  1  0.03989300  0.11940000  0.47361000  1
  C  1134  1  0.07990700  0.12019800  0.47360200  1
  C  1136  1  0.97971900  0.12194000  0.45110700  1
  C  1137  1  0.95889400  0.11567200  0.42800500  1
  C  1138  1  0.91884700  0.11679400  0.42954700  1
  C  1139  1  0.89848200  0.12275800  0.45254400  1
  C  1140  1  0.92110400  0.12985200  0.47477600  1
  C  1145  1  0.97674500  0.10707000  0.40214800  1
  C  1149  1  0.02116400  0.11512400  0.49377900  1
  C  1153  1  0.10146900  0.33104800  0.87700900  1
  C  1154  1  0.07984200  0.31034300  0.87569400  1
  C  1156  1  0.02010900  0.33081800  0.87733300  1
  C  1157  1  0.03989300  0.35289000  0.87950800  1
  C  1158  1  0.07990700  0.35208600  0.87872400  1
  C  1160  1  0.97971300  0.32786000  0.87700400  1
  C  1161  1  0.95888800  0.31101100  0.88325600  1
  C  1162  1  0.91884100  0.31143400  0.88213900  1
  C  1163  1  0.89847200  0.32848100  0.87619600  1
  C  1164  1  0.92109000  0.34363400  0.86912100  1
  C  1169  1  0.97673800  0.29373300  0.89182800  1
  C  1173  1  0.02116900  0.37731700  0.88373200  1
  C  1177  1  0.10146400  0.45378800  0.33156200  1
  C  1178  1  0.07983900  0.43440100  0.31085300  1
  C  1180  1  0.02010400  0.45321800  0.33134000  1
  C  1181  1  0.03988500  0.47309900  0.35342300  1
  C  1182  1  0.07989900  0.47308700  0.35261700  1
  C  1184  1  0.97970900  0.45059200  0.32838200  1
  C  1185  1  0.95888400  0.42749300  0.31153400  1
  C  1186  1  0.91883700  0.42903400  0.31195500  1
  C  1187  1  0.89847000  0.45202300  0.32900500  1
  C  1188  1  0.92109000  0.47425300  0.34415500  1
  C  1193  1  0.97673400  0.40164100  0.29425700  1
  C  1197  1  0.02116100  0.49327800  0.37786400  1
  C  1201  1  0.10146900  0.87649300  0.54517800  1
  C  1202  1  0.07983900  0.87517300  0.56456700  1
  C  1204  1  0.02010700  0.87681900  0.54573300  1
  C  1205  1  0.03989300  0.87900100  0.52584000  1
  C  1206  1  0.07990700  0.87821300  0.52585800  1
  C  1208  1  0.97971100  0.87648900  0.54835800  1
  C  1209  1  0.95888500  0.88273900  0.57145800  1
  C  1210  1  0.91883800  0.88162400  0.56991800  1
  C  1211  1  0.89847100  0.87568400  0.54692900  1
  C  1212  1  0.92109100  0.86860700  0.52470000  1
  C  1217  1  0.97673400  0.89131200  0.59731000  1
  C  1221  1  0.02117200  0.88323000  0.50563900  1
  C  1225  1  0.10148100  0.66739700  0.12247200  1
  C  1226  1  0.07985400  0.68811200  0.12380500  1
  C  1228  1  0.02012300  0.66762300  0.12214000  1
  C  1229  1  0.03990400  0.64554100  0.11993800  1
  C  1230  1  0.07991900  0.64634600  0.12072800  1
  C  1232  1  0.97972800  0.67058000  0.12247300  1
  C  1233  1  0.95890100  0.68741200  0.11620200  1
  C  1234  1  0.91885500  0.68699200  0.11732600  1
  C  1235  1  0.89849100  0.66996000  0.12328900  1
  C  1236  1  0.92111400  0.65482500  0.13038700  1
  C  1241  1  0.97675000  0.70466600  0.10759600  1
  C  1245  1  0.02117800  0.62110300  0.11568000  1
  C  1249  1  0.39735200  0.87849100  0.33563700  1
  C  1250  1  0.41867100  0.87875200  0.31556300  1
  C  1252  1  0.47867600  0.87834500  0.33474900  1
  C  1253  1  0.45922800  0.87889300  0.35619500  1
  C  1254  1  0.41921700  0.87841600  0.35571200  1
  C  1256  1  0.51902600  0.87803500  0.33167800  1
  C  1257  1  0.53989900  0.88640800  0.31650900  1
  C  1258  1  0.57995500  0.88518300  0.31682600  1
  C  1259  1  0.60023100  0.87712300  0.33229200  1
  C  1260  1  0.57753500  0.86788000  0.34560400  1
  C  1265  1  0.52201500  0.89733800  0.30124200  1
  C  1269  1  0.47830000  0.88113600  0.37974600  1
  C  1273  1  0.39736700  0.66332800  0.54309800  1
  C  1274  1  0.41868800  0.68339900  0.56343500  1
  C  1276  1  0.47869300  0.66421000  0.54384400  1
  C  1277  1  0.45924200  0.64276500  0.52294500  1
  C  1278  1  0.41923100  0.64325000  0.52295200  1
  C  1280  1  0.51904300  0.66727900  0.54660600  1
  C  1281  1  0.53991300  0.68245300  0.57014900  1
  C  1282  1  0.57997200  0.68213300  0.56860700  1
  C  1283  1  0.60025100  0.66666667  0.54509067  1
  C  1284  1  0.57755500  0.65334400  0.52253000  1
  C  1289  1  0.52202900  0.69772800  0.59634400  1
  C  1293  1  0.47831100  0.61921300  0.50163900  1
  C  1297  1  0.39735800  0.45586500  0.12048800  1
  C  1298  1  0.41868000  0.43553000  0.12022000  1
  C  1300  1  0.47868100  0.45511700  0.12061200  1
  C  1301  1  0.45923100  0.47601400  0.12006300  1
  C  1302  1  0.41922000  0.47600800  0.12054500  1
  C  1304  1  0.51903500  0.45235600  0.12091800  1
  C  1305  1  0.53990400  0.42881400  0.11255200  1
  C  1306  1  0.57996400  0.43035800  0.11377600  1
  C  1307  1  0.60023900  0.45388000  0.12182800  1
  C  1308  1  0.57754400  0.47643500  0.13106300  1
  C  1313  1  0.52202300  0.40262100  0.10163400  1
  C  1317  1  0.47830000  0.49731600  0.11780900  1
  C  1321  1  0.39736100  0.11995800  0.66384500  1
  C  1322  1  0.41868500  0.11969200  0.68391600  1
  C  1324  1  0.47868700  0.12009200  0.66472300  1
  C  1325  1  0.45923400  0.11954600  0.64327900  1
  C  1326  1  0.41922300  0.12002800  0.64376600  1
  C  1328  1  0.51903800  0.12039800  0.66778900  1
  C  1329  1  0.53991000  0.11202800  0.68296100  1
  C  1330  1  0.57996600  0.11325300  0.68264300  1
  C  1331  1  0.60024500  0.12130700  0.66717500  1
  C  1332  1  0.57754900  0.13054300  0.65385600  1
  C  1337  1  0.52202600  0.10110700  0.69823600  1
  C  1341  1  0.47830000  0.11730100  0.61972600  1
  C  1345  1  0.39735500  0.33511100  0.45637100  1
  C  1346  1  0.41867400  0.31503700  0.43603700  1
  C  1348  1  0.47867900  0.33423100  0.45562000  1
  C  1349  1  0.45923100  0.35568500  0.47650900  1
  C  1350  1  0.41922000  0.35520000  0.47650500  1
  C  1352  1  0.51902900  0.33116100  0.45286400  1
  C  1353  1  0.53990100  0.31599200  0.42932100  1
  C  1354  1  0.57996100  0.31630800  0.43086700  1
  C  1355  1  0.60023400  0.33177000  0.45439300  1
  C  1356  1  0.57753200  0.34508100  0.47694800  1
  C  1361  1  0.52202000  0.30073100  0.40312400  1
  C  1365  1  0.47830500  0.37924500  0.49780000  1
  C  1369  1  0.39736900  0.54257600  0.87898800  1
  C  1370  1  0.41868800  0.56291500  0.87926000  1
  C  1372  1  0.47869300  0.54332900  0.87886700  1
  C  1373  1  0.45924500  0.52243500  0.87942100  1
  C  1374  1  0.41923400  0.52243700  0.87893500  1
  C  1376  1  0.51904600  0.54608900  0.87855800  1
  C  1377  1  0.53991600  0.56963000  0.88692500  1
  C  1378  1  0.57997500  0.56808900  0.88570200  1
  C  1379  1  0.60025100  0.54456400  0.87764900  1
  C  1380  1  0.57755500  0.52200900  0.86841000  1
  C  1385  1  0.52203400  0.59582700  0.89784700  1
  C  1389  1  0.47831400  0.50113500  0.88167900  1
  C  1393  1  0.78067700  0.49486900  0.62094000  1
  C  1394  1  0.75662600  0.47643400  0.62235300  1
  C  1396  1  0.75781000  0.44740200  0.57620800  1
  C  1397  1  0.78160300  0.46474000  0.57277900  1
  C  1398  1  0.79261000  0.48807400  0.59536800  1
  C  1400  1  0.74454200  0.42364100  0.55518800  1
  C  1401  1  0.75857600  0.39855100  0.54835900  1
  C  1402  1  0.74469600  0.37686100  0.52515400  1
  C  1403  1  0.71783300  0.37933600  0.50866600  1
  C  1404  1  0.70496500  0.40514700  0.51750400  1
  C  1409  1  0.78808800  0.39392100  0.56347700  1
  C  1413  1  0.79556000  0.45871400  0.54662100  1
  C  1417  1  0.78070600  0.12479000  0.50410800  1
  C  1418  1  0.75664100  0.14463100  0.52253700  1
  C  1420  1  0.75783800  0.12752700  0.55157600  1
  C  1421  1  0.78165300  0.10677100  0.53425000  1
  C  1422  1  0.79265700  0.10602200  0.51091300  1
  C  1424  1  0.74456000  0.13026400  0.57533400  1
  C  1425  1  0.75857100  0.14853100  0.60042800  1
  C  1426  1  0.74469500  0.14700500  0.62211200  1
  C  1427  1  0.71785900  0.12802200  0.61962600  1
  C  1428  1  0.70500500  0.11104900  0.59381400  1
  C  1433  1  0.78805500  0.16830000  0.60506800  1
  C  1437  1  0.79563600  0.08665200  0.54028800  1
  C  1441  1  0.78068200  0.37801700  0.87419200  1
  C  1442  1  0.75662500  0.37660600  0.85434700  1
  C  1444  1  0.75782000  0.42274900  0.87145600  1
  C  1445  1  0.78162100  0.42617700  0.89221800  1
  C  1446  1  0.79262400  0.40358900  0.89296500  1
  C  1448  1  0.74455100  0.44377000  0.86871700  1
  C  1449  1  0.75856600  0.45059200  0.85044600  1
  C  1450  1  0.74469400  0.47380200  0.85196700  1
  C  1451  1  0.71786500  0.49030400  0.87095100  1
  C  1452  1  0.70499600  0.48146700  0.88792300  1
  C  1457  1  0.78805100  0.43546200  0.83068000  1
  C  1461  1  0.79559400  0.45233500  0.91234500  1
  C  1465  1  0.78068500  0.50356700  0.37854500  1
  C  1466  1  0.75662500  0.52199900  0.37713500  1
  C  1468  1  0.75781900  0.55103100  0.42328000  1
  C  1469  1  0.78162000  0.53369500  0.42670700  1
  C  1470  1  0.79262400  0.51036100  0.40411700  1
  C  1472  1  0.74455300  0.57479300  0.44430300  1
  C  1473  1  0.75857100  0.59988500  0.45112300  1
  C  1474  1  0.74469900  0.62157400  0.47433100  1
  C  1475  1  0.71786800  0.61909500  0.49083500  1
  C  1476  1  0.70499900  0.59328600  0.48200000  1
  C  1481  1  0.78805700  0.60451600  0.43599100  1
  C  1485  1  0.79558900  0.53972200  0.45286200  1
  C  1489  1  0.78068400  0.87367000  0.49538300  1
  C  1490  1  0.75663300  0.85382300  0.47694600  1
  C  1492  1  0.75781800  0.87093800  0.44791600  1
  C  1493  1  0.78161200  0.89170400  0.46525400  1
  C  1494  1  0.79261900  0.89244700  0.48858700  1
  C  1496  1  0.74454800  0.86819800  0.42415500  1
  C  1497  1  0.75858100  0.84993700  0.39906500  1
  C  1498  1  0.74470000  0.85145400  0.37737600  1
  C  1499  1  0.71783800  0.87041800  0.37985300  1
  C  1500  1  0.70497100  0.88739100  0.40566200  1
  C  1505  1  0.78809100  0.83018800  0.39443300  1
  C  1509  1  0.79557100  0.91183600  0.45922700  1
  C  1513  1  0.78071400  0.62042800  0.12532700  1
  C  1514  1  0.75663900  0.62184500  0.14516600  1
  C  1516  1  0.75783900  0.57570300  0.12807000  1
  C  1517  1  0.78166400  0.57227100  0.10731600  1
  C  1518  1  0.79267000  0.59485700  0.10656500  1
  C  1520  1  0.74455400  0.55468300  0.13080600  1
  C  1521  1  0.75854900  0.54786100  0.14908100  1
  C  1522  1  0.74467500  0.52464700  0.14755000  1
  C  1523  1  0.71786700  0.50814000  0.12854900  1
  C  1524  1  0.70501000  0.51698100  0.11157700  1
  C  1529  1  0.78801200  0.56299700  0.16886300  1
  C  1533  1  0.79565500  0.54611600  0.08720500  1
  C  1537  1  0.22209200  0.50024400  0.37941900  1
  C  1538  1  0.24465400  0.51979200  0.37891800  1
  C  1540  1  0.24192100  0.54763200  0.42523700  1
  C  1541  1  0.22020000  0.52890100  0.42780000  1
  C  1542  1  0.21084800  0.50559300  0.40469700  1
  C  1544  1  0.25302500  0.57169300  0.44679800  1
  C  1545  1  0.23950600  0.59657700  0.45247800  1
  C  1546  1  0.25205300  0.61863500  0.47587800  1
  C  1547  1  0.27714000  0.61672200  0.49360300  1
  C  1548  1  0.28911600  0.59101500  0.48607400  1
  C  1553  1  0.21196200  0.60071300  0.43590900  1
  C  1557  1  0.20593200  0.53360200  0.45347100  1
  C  1561  1  0.22210000  0.87787800  0.49871800  1
  C  1562  1  0.24465200  0.85782400  0.47916600  1
  C  1564  1  0.24191800  0.87630300  0.45132600  1
  C  1565  1  0.22020000  0.89759700  0.47005600  1
  C  1566  1  0.21085400  0.89780500  0.49336700  1
  C  1568  1  0.25302200  0.87380300  0.42726400  1
  C  1569  1  0.23950600  0.85459900  0.40238100  1
  C  1570  1  0.25205000  0.85594500  0.38032300  1
  C  1571  1  0.27713200  0.87558500  0.38223800  1
  C  1572  1  0.28910100  0.89376400  0.40794400  1
  C  1577  1  0.21196500  0.83389000  0.39824200  1
  C  1581  1  0.20593200  0.91856900  0.46535800  1
  C  1585  1  0.22211100  0.61953700  0.12106000  1
  C  1586  1  0.24466000  0.62003500  0.14111600  1
  C  1588  1  0.24191500  0.57371500  0.12263200  1
  C  1589  1  0.22020600  0.57115600  0.10133700  1
  C  1590  1  0.21086500  0.59426000  0.10113100  1
  C  1592  1  0.25301400  0.55215300  0.12513300  1
  C  1593  1  0.23949500  0.54647600  0.14434000  1
  C  1594  1  0.25204100  0.52307600  0.14299900  1
  C  1595  1  0.27712900  0.50535100  0.12336400  1
  C  1596  1  0.28909900  0.51287400  0.10518200  1
  C  1601  1  0.21195100  0.56304800  0.16504500  1
  C  1605  1  0.20593500  0.54548600  0.08036300  1
  C  1609  1  0.22208000  0.49820300  0.62005000  1
  C  1610  1  0.24466600  0.47866200  0.62054900  1
  C  1612  1  0.24192300  0.45082300  0.57422700  1
  C  1613  1  0.22020000  0.46955400  0.57166800  1
  C  1614  1  0.21084600  0.49286000  0.59477200  1
  C  1616  1  0.25302500  0.42676100  0.55266600  1
  C  1617  1  0.23950600  0.40187900  0.54699200  1
  C  1618  1  0.25204700  0.37981700  0.52359000  1
  C  1619  1  0.27713400  0.38172800  0.50586500  1
  C  1620  1  0.28910700  0.40743300  0.51338700  1
  C  1625  1  0.21196200  0.39774600  0.56356500  1
  C  1629  1  0.20592900  0.46485500  0.54599700  1
  C  1633  1  0.22209400  0.12056200  0.50076800  1
  C  1634  1  0.24465400  0.14061100  0.52031800  1
  C  1636  1  0.24191500  0.12212800  0.54815600  1
  C  1637  1  0.22019700  0.10083500  0.52942200  1
  C  1638  1  0.21085100  0.10063100  0.50611300  1
  C  1640  1  0.25302000  0.12462800  0.57221700  1
  C  1641  1  0.23950300  0.14383200  0.59710100  1
  C  1642  1  0.25204700  0.14248900  0.61915900  1
  C  1643  1  0.27713200  0.12284900  0.61724500  1
  C  1644  1  0.28910100  0.10466900  0.59153800  1
  C  1649  1  0.21195900  0.16454000  0.60123800  1
  C  1653  1  0.20592600  0.07986300  0.53411900  1
  C  1657  1  0.22210000  0.37889400  0.87839000  1
  C  1658  1  0.24465200  0.37838900  0.85833500  1
  C  1660  1  0.24192100  0.42470800  0.87681000  1
  C  1661  1  0.22020000  0.42727300  0.89810400  1
  C  1662  1  0.21085100  0.40417300  0.89831500  1
  C  1664  1  0.25302800  0.44626700  0.87430800  1
  C  1665  1  0.23951500  0.45194700  0.85510400  1
  C  1666  1  0.25206100  0.47534900  0.85644900  1
  C  1667  1  0.27714600  0.49307100  0.87608500  1
  C  1668  1  0.28911600  0.48554500  0.89426600  1
  C  1673  1  0.21197100  0.43537700  0.83439500  1
  C  1677  1  0.20592900  0.45294400  0.91907000  1
  N  25  1  0.74569300  0.96873600  0.34368000  1
  N  26  1  0.25314400  0.96886900  0.33993800  1
  N  557  1  0.74958800  0.57474000  0.76319500  1
  N  567  1  0.72216900  0.53910800  0.79005800  1
  N  581  1  0.74956900  0.18714300  0.42422100  1
  N  591  1  0.72215200  0.24963600  0.45984900  1
  N  605  1  0.74958000  0.23576500  0.81181000  1
  N  615  1  0.72215000  0.20890400  0.74932000  1
  N  629  1  0.74957400  0.42370000  0.23629400  1
  N  639  1  0.72214000  0.45932800  0.20943000  1
  N  653  1  0.74959100  0.81128700  0.57525400  1
  N  663  1  0.72217300  0.74879000  0.53962200  1
  N  677  1  0.74957100  0.76266700  0.18766200  1
  N  687  1  0.72215000  0.78953500  0.25015500  1
  N  701  1  0.24805800  0.42574500  0.23615200  1
  N  711  1  0.27427900  0.46248900  0.20946600  1
  N  725  1  0.24807200  0.80911500  0.57321900  1
  N  735  1  0.27429000  0.74568600  0.53647500  1
  N  749  1  0.24807200  0.76280900  0.18984700  1
  N  759  1  0.27429300  0.78949500  0.25327600  1
  N  773  1  0.24806100  0.57269000  0.76331900  1
  N  783  1  0.27429900  0.53594900  0.79000300  1
  N  797  1  0.24806100  0.18933400  0.42626700  1
  N  807  1  0.27427900  0.25276500  0.46300900  1
  N  821  1  0.24807800  0.23563300  0.80963700  1
  N  831  1  0.27429300  0.20894400  0.74620900  1
  N  845  1  0.74569300  0.65530000  0.62533400  1
  N  855  1  0.73166400  0.61101700  0.64718000  1
  N  876  1  0.73166100  0.03486100  0.38796200  1
  N  886  1  0.74570300  0.37364700  0.03023200  1
  N  896  1  0.73167100  0.35179300  0.96410700  1
  N  910  1  0.74570800  0.34316700  0.37418300  1
  N  920  1  0.73167500  0.38743800  0.35232700  1
  N  934  1  0.74569600  0.02970500  0.65581000  1
  N  942  1  0.73167000  0.96357900  0.61152600  1
  N  952  1  0.74571100  0.62479200  0.96926000  1
  N  962  1  0.73167500  0.64663600  0.03538600  1
  N  976  1  0.25314100  0.33941500  0.37028700  1
  N  986  1  0.26637200  0.38230200  0.34652500  1
  N  1000  1  0.25316100  0.02957400  0.65955100  1
  N  1008  1  0.26639400  0.96292800  0.61666800  1
  N  1018  1  0.25316700  0.62865700  0.96937300  1
  N  1028  1  0.26639700  0.65243000  0.03601900  1
  N  1042  1  0.25313800  0.65900800  0.62916700  1
  N  1052  1  0.26636100  0.61613200  0.65293700  1
  N  1073  1  0.26637800  0.03551500  0.38282800  1
  N  1083  1  0.25316100  0.36976900  0.03009600  1
  N  1093  1  0.26639700  0.34600600  0.96345000  1
  N  1107  1  0.04166300  0.56321700  0.68795600  1
  N  1117  1  0.95908300  0.52597300  0.65642900  1
  N  1131  1  0.04167700  0.12343400  0.43573800  1
  N  1141  1  0.95910200  0.12917000  0.47298800  1
  N  1155  1  0.04167400  0.31101200  0.87554200  1
  N  1165  1  0.95908800  0.34252500  0.86979700  1
  N  1179  1  0.04166900  0.43521700  0.31152400  1
  N  1189  1  0.95908800  0.47246600  0.34304700  1
  N  1203  1  0.04167100  0.87502200  0.56374500  1
  N  1213  1  0.95908900  0.86928400  0.52648700  1
  N  1227  1  0.04168500  0.68744000  0.12395500  1
  N  1237  1  0.95911200  0.65593100  0.12970400  1
  N  1251  1  0.45686800  0.87830600  0.31584700  1
  N  1261  1  0.53955900  0.86874300  0.34460900  1
  N  1275  1  0.45688500  0.68311200  0.56270500  1
  N  1285  1  0.53957900  0.65434100  0.52438500  1
  N  1299  1  0.45687600  0.43625800  0.12065700  1
  N  1309  1  0.53957100  0.47457800  0.13020100  1
  N  1323  1  0.45688200  0.12013400  0.68362600  1
  N  1333  1  0.53957300  0.12968200  0.65485200  1
  N  1347  1  0.45687100  0.31532100  0.43676300  1
  N  1357  1  0.53955900  0.34408700  0.47508700  1
  N  1371  1  0.45688500  0.56218700  0.87881900  1
  N  1381  1  0.53957900  0.52386800  0.86927200  1
  N  1395  1  0.74637300  0.45401000  0.60062700  1
  N  1405  1  0.71859100  0.42572100  0.53951400  1
  N  1419  1  0.74638400  0.14532900  0.54496000  1
  N  1429  1  0.71862900  0.11249500  0.57324600  1
  N  1443  1  0.74637300  0.39833300  0.85365000  1
  N  1453  1  0.71861700  0.45945400  0.88648200  1
  N  1467  1  0.74637200  0.54442300  0.39886400  1
  N  1477  1  0.71861900  0.57271200  0.45998600  1
  N  1491  1  0.74637900  0.85312700  0.45452300  1
  N  1501  1  0.71859900  0.88595500  0.42623700  1
  N  1515  1  0.74637900  0.60012100  0.14586600  1
  N  1525  1  0.71863400  0.53899800  0.11302800  1
  N  1539  1  0.25335900  0.54218800  0.40114600  1
  N  1549  1  0.27699600  0.57014100  0.46378400  1
  N  1563  1  0.25335600  0.85765400  0.45676900  1
  N  1573  1  0.27698700  0.89234400  0.42881700  1
  N  1587  1  0.25335600  0.59780500  0.14128300  1
  N  1597  1  0.27698200  0.53516400  0.10659500  1
  N  1611  1  0.25337000  0.45626800  0.59831800  1
  N  1621  1  0.27699000  0.42831000  0.53567700  1
  N  1635  1  0.25335600  0.14077600  0.54271300  1
  N  1645  1  0.27698500  0.10608700  0.57066400  1
  N  1659  1  0.25335900  0.40061600  0.85816300  1
  N  1669  1  0.27699600  0.46325400  0.89284800  1
