# generated using pymatgen
data_ZnH18(C11O3)2
_symmetry_space_group_name_H-M   'P 1'
_cell_length_a   29.87362000
_cell_length_b   29.87337000
_cell_length_c   29.87364000
_cell_angle_alpha   80.72897000
_cell_angle_beta   80.72844000
_cell_angle_gamma   80.72896000
_symmetry_Int_Tables_number   1
_chemical_formula_structural   ZnH18(C11O3)2
_chemical_formula_sum   'Zn36 H648 C792 O216'
_cell_volume   25716.83298799
_cell_formula_units_Z   36
loop_
 _symmetry_equiv_pos_site_id
 _symmetry_equiv_pos_as_xyz
  1  'x, y, z'
loop_
 _atom_site_type_symbol
 _atom_site_label
 _atom_site_symmetry_multiplicity
 _atom_site_fract_x
 _atom_site_fract_y
 _atom_site_fract_z
 _atom_site_occupancy
  Zn  Zn1  1  0.80442000  0.31323000  0.80868000  1.0
  Zn  Zn2  1  0.80480000  0.42030000  0.78488000  1.0
  Zn  Zn3  1  0.24461000  0.16242000  0.48293000  1.0
  Zn  Zn4  1  0.80868000  0.80442000  0.31324000  1.0
  Zn  Zn5  1  0.78488000  0.80479000  0.42030000  1.0
  Zn  Zn6  1  0.48292000  0.24461000  0.16242000  1.0
  Zn  Zn7  1  0.31322000  0.80868000  0.80442000  1.0
  Zn  Zn8  1  0.42029000  0.78488000  0.80480000  1.0
  Zn  Zn9  1  0.16242000  0.48292000  0.24461000  1.0
  Zn  Zn10  1  0.18677000  0.69558000  0.69132000  1.0
  Zn  Zn11  1  0.07970000  0.69521000  0.71512000  1.0
  Zn  Zn12  1  0.33758000  0.25539000  0.01708000  1.0
  Zn  Zn13  1  0.69558000  0.69132000  0.18678000  1.0
  Zn  Zn14  1  0.69520000  0.71512000  0.07971000  1.0
  Zn  Zn15  1  0.25539000  0.01708000  0.33758000  1.0
  Zn  Zn16  1  0.69132000  0.18677000  0.69558000  1.0
  Zn  Zn17  1  0.71512000  0.07971000  0.69520000  1.0
  Zn  Zn18  1  0.01707000  0.33758000  0.25539000  1.0
  Zn  Zn19  1  0.19558000  0.68677000  0.19132000  1.0
  Zn  Zn20  1  0.19520000  0.57970000  0.21512000  1.0
  Zn  Zn21  1  0.75539000  0.83758000  0.51708000  1.0
  Zn  Zn22  1  0.19132000  0.19558000  0.68677000  1.0
  Zn  Zn23  1  0.21512000  0.19521000  0.57970000  1.0
  Zn  Zn24  1  0.51708000  0.75539000  0.83758000  1.0
  Zn  Zn25  1  0.68677000  0.19132000  0.19558000  1.0
  Zn  Zn26  1  0.57970000  0.21512000  0.19520000  1.0
  Zn  Zn27  1  0.83758000  0.51708000  0.75539000  1.0
  Zn  Zn28  1  0.81323000  0.30442000  0.30868000  1.0
  Zn  Zn29  1  0.92030000  0.30480000  0.28488000  1.0
  Zn  Zn30  1  0.66242000  0.74461000  0.98292000  1.0
  Zn  Zn31  1  0.30442000  0.30868000  0.81322000  1.0
  Zn  Zn32  1  0.30480000  0.28488000  0.92029000  1.0
  Zn  Zn33  1  0.74461000  0.98292000  0.66242000  1.0
  Zn  Zn34  1  0.30868000  0.81323000  0.30442000  1.0
  Zn  Zn35  1  0.28488000  0.92030000  0.30480000  1.0
  Zn  Zn36  1  0.98292000  0.66242000  0.74461000  1.0
  H  H1  1  0.92158000  0.26979000  0.88450000  1.0
  H  H2  1  0.98920000  0.27195000  0.92360000  1.0
  H  H3  1  0.00939000  0.34688000  0.93440000  1.0
  H  H4  1  0.89508000  0.41656000  0.86692000  1.0
  H  H5  1  0.94183000  0.47525000  0.85916000  1.0
  H  H6  1  0.90319000  0.46728000  0.91031000  1.0
  H  H7  1  0.92728000  0.46402000  0.02038000  1.0
  H  H8  1  0.88098000  0.50725000  0.00951000  1.0
  H  H9  1  0.89605000  0.46183000  0.97572000  1.0
  H  H10  1  0.99194000  0.53830000  0.81318000  1.0
  H  H11  1  0.04614000  0.52427000  0.83230000  1.0
  H  H12  1  0.00989000  0.48214000  0.83969000  1.0
  H  H13  1  0.02680000  0.60667000  0.98845000  1.0
  H  H14  1  0.01208000  0.64365000  0.93902000  1.0
  H  H15  1  0.97001000  0.63493000  0.98706000  1.0
  H  H16  1  0.03028000  0.63180000  0.87626000  1.0
  H  H17  1  0.04456000  0.58953000  0.83923000  1.0
  H  H18  1  0.09570000  0.63941000  0.81728000  1.0
  H  H19  1  0.15582000  0.54811000  0.92547000  1.0
  H  H20  1  0.97105000  0.56976000  0.03963000  1.0
  H  H21  1  0.94136000  0.52173000  0.04815000  1.0
  H  H22  1  0.82493000  0.63573000  0.05036000  1.0
  H  H23  1  0.82135000  0.61326000  0.19706000  1.0
  H  H24  1  0.89481000  0.56054000  0.18852000  1.0
  H  H25  1  0.93506000  0.54811000  0.11156000  1.0
  H  H26  1  0.84230000  0.08387000  0.72139000  1.0
  H  H27  1  0.97046000  0.01019000  0.75828000  1.0
  H  H28  1  0.94215000  0.93620000  0.75665000  1.0
  H  H29  1  0.86512000  0.93696000  0.73325000  1.0
  H  H30  1  0.87530000  0.14441000  0.73982000  1.0
  H  H31  1  0.89658000  0.12783000  0.68525000  1.0
  H  H32  1  0.90875000  0.21987000  0.80455000  1.0
  H  H33  1  0.89945000  0.16518000  0.79585000  1.0
  H  H34  1  0.86480000  0.21523000  0.77309000  1.0
  H  H35  1  0.99932000  0.31260000  0.67721000  1.0
  H  H36  1  0.02647000  0.28660000  0.62922000  1.0
  H  H37  1  0.05037000  0.27465000  0.68119000  1.0
  H  H38  1  0.98772000  0.13774000  0.60620000  1.0
  H  H39  1  0.95677000  0.10459000  0.65129000  1.0
  H  H40  1  0.01556000  0.10504000  0.65155000  1.0
  H  H41  1  0.99926000  0.30150000  0.51608000  1.0
  H  H42  1  0.05158000  0.32659000  0.44595000  1.0
  H  H43  1  0.13039000  0.28316000  0.43032000  1.0
  H  H44  1  0.10649000  0.19602000  0.55853000  1.0
  H  H45  1  0.93692000  0.31150000  0.71691000  1.0
  H  H46  1  0.91615000  0.28179000  0.77050000  1.0
  H  H47  1  0.91300000  0.36533000  0.75118000  1.0
  H  H48  1  0.98655000  0.46757000  0.77802000  1.0
  H  H49  1  0.05232000  0.40679000  0.79574000  1.0
  H  H50  1  0.04862000  0.32561000  0.78917000  1.0
  H  H51  1  0.06700000  0.21645000  0.62348000  1.0
  H  H52  1  0.04743000  0.16960000  0.60652000  1.0
  H  H53  1  0.23972000  0.63018000  0.82395000  1.0
  H  H54  1  0.23195000  0.57139000  0.89371000  1.0
  H  H55  1  0.88450000  0.92158000  0.26979000  1.0
  H  H56  1  0.92360000  0.98920000  0.27195000  1.0
  H  H57  1  0.93440000  0.00940000  0.34688000  1.0
  H  H58  1  0.86692000  0.89507000  0.41655000  1.0
  H  H59  1  0.85916000  0.94183000  0.47524000  1.0
  H  H60  1  0.91031000  0.90320000  0.46728000  1.0
  H  H61  1  0.02038000  0.92729000  0.46402000  1.0
  H  H62  1  0.00951000  0.88099000  0.50724000  1.0
  H  H63  1  0.97571000  0.89605000  0.46183000  1.0
  H  H64  1  0.81318000  0.99195000  0.53830000  1.0
  H  H65  1  0.83230000  0.04614000  0.52427000  1.0
  H  H66  1  0.83969000  0.00989000  0.48214000  1.0
  H  H67  1  0.98844000  0.02681000  0.60667000  1.0
  H  H68  1  0.93901000  0.01208000  0.64365000  1.0
  H  H69  1  0.98706000  0.97002000  0.63493000  1.0
  H  H70  1  0.87626000  0.03028000  0.63180000  1.0
  H  H71  1  0.83923000  0.04457000  0.58953000  1.0
  H  H72  1  0.81728000  0.09570000  0.63941000  1.0
  H  H73  1  0.92547000  0.15582000  0.54810000  1.0
  H  H74  1  0.03962000  0.97105000  0.56976000  1.0
  H  H75  1  0.04814000  0.94136000  0.52173000  1.0
  H  H76  1  0.05036000  0.82493000  0.63573000  1.0
  H  H77  1  0.19706000  0.82136000  0.61326000  1.0
  H  H78  1  0.18852000  0.89482000  0.56054000  1.0
  H  H79  1  0.11155000  0.93507000  0.54811000  1.0
  H  H80  1  0.72139000  0.84231000  0.08386000  1.0
  H  H81  1  0.75827000  0.97047000  0.01018000  1.0
  H  H82  1  0.75664000  0.94215000  0.93619000  1.0
  H  H83  1  0.73325000  0.86512000  0.93696000  1.0
  H  H84  1  0.73983000  0.87530000  0.14440000  1.0
  H  H85  1  0.68526000  0.89658000  0.12783000  1.0
  H  H86  1  0.80455000  0.90875000  0.21986000  1.0
  H  H87  1  0.79585000  0.89945000  0.16518000  1.0
  H  H88  1  0.77309000  0.86480000  0.21523000  1.0
  H  H89  1  0.67720000  0.99932000  0.31261000  1.0
  H  H90  1  0.62922000  0.02647000  0.28660000  1.0
  H  H91  1  0.68118000  0.05037000  0.27466000  1.0
  H  H92  1  0.60619000  0.98772000  0.13774000  1.0
  H  H93  1  0.65130000  0.95676000  0.10459000  1.0
  H  H94  1  0.65154000  0.01556000  0.10504000  1.0
  H  H95  1  0.51608000  0.99926000  0.30150000  1.0
  H  H96  1  0.44594000  0.05158000  0.32659000  1.0
  H  H97  1  0.43031000  0.13040000  0.28316000  1.0
  H  H98  1  0.55852000  0.10649000  0.19602000  1.0
  H  H99  1  0.71691000  0.93692000  0.31150000  1.0
  H  H100  1  0.77050000  0.91615000  0.28179000  1.0
  H  H101  1  0.75117000  0.91300000  0.36534000  1.0
  H  H102  1  0.77801000  0.98655000  0.46757000  1.0
  H  H103  1  0.79574000  0.05233000  0.40679000  1.0
  H  H104  1  0.78917000  0.04862000  0.32561000  1.0
  H  H105  1  0.62347000  0.06700000  0.21645000  1.0
  H  H106  1  0.60651000  0.04743000  0.16960000  1.0
  H  H107  1  0.82395000  0.23972000  0.63018000  1.0
  H  H108  1  0.89371000  0.23196000  0.57139000  1.0
  H  H109  1  0.26979000  0.88450000  0.92158000  1.0
  H  H110  1  0.27195000  0.92360000  0.98920000  1.0
  H  H111  1  0.34688000  0.93440000  0.00940000  1.0
  H  H112  1  0.41656000  0.86693000  0.89508000  1.0
  H  H113  1  0.47525000  0.85916000  0.94183000  1.0
  H  H114  1  0.46728000  0.91031000  0.90320000  1.0
  H  H115  1  0.46402000  0.02038000  0.92728000  1.0
  H  H116  1  0.50725000  0.00952000  0.88099000  1.0
  H  H117  1  0.46183000  0.97572000  0.89604000  1.0
  H  H118  1  0.53830000  0.81318000  0.99195000  1.0
  H  H119  1  0.52426000  0.83231000  0.04614000  1.0
  H  H120  1  0.48213000  0.83969000  0.00988000  1.0
  H  H121  1  0.60666000  0.98845000  0.02680000  1.0
  H  H122  1  0.64364000  0.93902000  0.01208000  1.0
  H  H123  1  0.63492000  0.98707000  0.97001000  1.0
  H  H124  1  0.63179000  0.87626000  0.03028000  1.0
  H  H125  1  0.58952000  0.83923000  0.04457000  1.0
  H  H126  1  0.63941000  0.81728000  0.09570000  1.0
  H  H127  1  0.54810000  0.92547000  0.15582000  1.0
  H  H128  1  0.56975000  0.03963000  0.97105000  1.0
  H  H129  1  0.52173000  0.04815000  0.94136000  1.0
  H  H130  1  0.63573000  0.05036000  0.82494000  1.0
  H  H131  1  0.61327000  0.19705000  0.82136000  1.0
  H  H132  1  0.56055000  0.18853000  0.89482000  1.0
  H  H133  1  0.54811000  0.11156000  0.93507000  1.0
  H  H134  1  0.08386000  0.72137000  0.84235000  1.0
  H  H135  1  0.01014000  0.75826000  0.97048000  1.0
  H  H136  1  0.93616000  0.75665000  0.94214000  1.0
  H  H137  1  0.93695000  0.73327000  0.86509000  1.0
  H  H138  1  0.14438000  0.73986000  0.87533000  1.0
  H  H139  1  0.12782000  0.68529000  0.89659000  1.0
  H  H140  1  0.21987000  0.80455000  0.90876000  1.0
  H  H141  1  0.16518000  0.79586000  0.89946000  1.0
  H  H142  1  0.21523000  0.77309000  0.86482000  1.0
  H  H143  1  0.31261000  0.67720000  0.99932000  1.0
  H  H144  1  0.28661000  0.62922000  0.02647000  1.0
  H  H145  1  0.27465000  0.68118000  0.05037000  1.0
  H  H146  1  0.13773000  0.60620000  0.98774000  1.0
  H  H147  1  0.10458000  0.65130000  0.95678000  1.0
  H  H148  1  0.10502000  0.65154000  0.01558000  1.0
  H  H149  1  0.30150000  0.51608000  0.99927000  1.0
  H  H150  1  0.32658000  0.44594000  0.05159000  1.0
  H  H151  1  0.28315000  0.43031000  0.13040000  1.0
  H  H152  1  0.19601000  0.55852000  0.10649000  1.0
  H  H153  1  0.31149000  0.71691000  0.93692000  1.0
  H  H154  1  0.28179000  0.77050000  0.91615000  1.0
  H  H155  1  0.36533000  0.75117000  0.91300000  1.0
  H  H156  1  0.46757000  0.77802000  0.98655000  1.0
  H  H157  1  0.40679000  0.79574000  0.05232000  1.0
  H  H158  1  0.32561000  0.78917000  0.04862000  1.0
  H  H159  1  0.21644000  0.62347000  0.06700000  1.0
  H  H160  1  0.16960000  0.60651000  0.04743000  1.0
  H  H161  1  0.63018000  0.82395000  0.23972000  1.0
  H  H162  1  0.57138000  0.89371000  0.23196000  1.0
  H  H163  1  0.23021000  0.57842000  0.61550000  1.0
  H  H164  1  0.22806000  0.51080000  0.57640000  1.0
  H  H165  1  0.15312000  0.49061000  0.56560000  1.0
  H  H166  1  0.08345000  0.60492000  0.63308000  1.0
  H  H167  1  0.02476000  0.55817000  0.64084000  1.0
  H  H168  1  0.03272000  0.59680000  0.58969000  1.0
  H  H169  1  0.03598000  0.57271000  0.47963000  1.0
  H  H170  1  0.99276000  0.61901000  0.49049000  1.0
  H  H171  1  0.03817000  0.60395000  0.52429000  1.0
  H  H172  1  0.96170000  0.50805000  0.68682000  1.0
  H  H173  1  0.97573000  0.45386000  0.66770000  1.0
  H  H174  1  0.01787000  0.49012000  0.66031000  1.0
  H  H175  1  0.89333000  0.47320000  0.51156000  1.0
  H  H176  1  0.85635000  0.48792000  0.56099000  1.0
  H  H177  1  0.86507000  0.52998000  0.51294000  1.0
  H  H178  1  0.86820000  0.46972000  0.62374000  1.0
  H  H179  1  0.91047000  0.45544000  0.66077000  1.0
  H  H180  1  0.86059000  0.40430000  0.68272000  1.0
  H  H181  1  0.95190000  0.34418000  0.57453000  1.0
  H  H182  1  0.93024000  0.52895000  0.46038000  1.0
  H  H183  1  0.97827000  0.55864000  0.45186000  1.0
  H  H184  1  0.86427000  0.67507000  0.44964000  1.0
  H  H185  1  0.88674000  0.67864000  0.30294000  1.0
  H  H186  1  0.93946000  0.60518000  0.31148000  1.0
  H  H187  1  0.95189000  0.56493000  0.38845000  1.0
  H  H188  1  0.41614000  0.65769000  0.77861000  1.0
  H  H189  1  0.48982000  0.52953000  0.74173000  1.0
  H  H190  1  0.56381000  0.55785000  0.74336000  1.0
  H  H191  1  0.56304000  0.63489000  0.76675000  1.0
  H  H192  1  0.35560000  0.62470000  0.76017000  1.0
  H  H193  1  0.37218000  0.60342000  0.81473000  1.0
  H  H194  1  0.28014000  0.59125000  0.69545000  1.0
  H  H195  1  0.33482000  0.60055000  0.70415000  1.0
  H  H196  1  0.28478000  0.63520000  0.72691000  1.0
  H  H197  1  0.18740000  0.50068000  0.82280000  1.0
  H  H198  1  0.21340000  0.47354000  0.87078000  1.0
  H  H199  1  0.22534000  0.44963000  0.81881000  1.0
  H  H200  1  0.36227000  0.51228000  0.89380000  1.0
  H  H201  1  0.39541000  0.54324000  0.84870000  1.0
  H  H202  1  0.39496000  0.48444000  0.84845000  1.0
  H  H203  1  0.19850000  0.50074000  0.98392000  1.0
  H  H204  1  0.17341000  0.44842000  0.05406000  1.0
  H  H205  1  0.21684000  0.36961000  0.06969000  1.0
  H  H206  1  0.30399000  0.39352000  0.94148000  1.0
  H  H207  1  0.18851000  0.56308000  0.78309000  1.0
  H  H208  1  0.21821000  0.58385000  0.72950000  1.0
  H  H209  1  0.13467000  0.58700000  0.74882000  1.0
  H  H210  1  0.03243000  0.51345000  0.72198000  1.0
  H  H211  1  0.09321000  0.44768000  0.70426000  1.0
  H  H212  1  0.17439000  0.45138000  0.71083000  1.0
  H  H213  1  0.28356000  0.43301000  0.87652000  1.0
  H  H214  1  0.33040000  0.45258000  0.89348000  1.0
  H  H215  1  0.86982000  0.26028000  0.67605000  1.0
  H  H216  1  0.92861000  0.26805000  0.60629000  1.0
  H  H217  1  0.57841000  0.61550000  0.23021000  1.0
  H  H218  1  0.51080000  0.57640000  0.22806000  1.0
  H  H219  1  0.49060000  0.56560000  0.15312000  1.0
  H  H220  1  0.60492000  0.63307000  0.08345000  1.0
  H  H221  1  0.55817000  0.64084000  0.02476000  1.0
  H  H222  1  0.59680000  0.58969000  0.03272000  1.0
  H  H223  1  0.57272000  0.47962000  0.03598000  1.0
  H  H224  1  0.61901000  0.49049000  0.99275000  1.0
  H  H225  1  0.60395000  0.52428000  0.03817000  1.0
  H  H226  1  0.50805000  0.68682000  0.96170000  1.0
  H  H227  1  0.45386000  0.66769000  0.97574000  1.0
  H  H228  1  0.49011000  0.66031000  0.01787000  1.0
  H  H229  1  0.47320000  0.51155000  0.89334000  1.0
  H  H230  1  0.48792000  0.56098000  0.85635000  1.0
  H  H231  1  0.52999000  0.51293000  0.86508000  1.0
  H  H232  1  0.46972000  0.62373000  0.86820000  1.0
  H  H233  1  0.45544000  0.66077000  0.91047000  1.0
  H  H234  1  0.40430000  0.68272000  0.86059000  1.0
  H  H235  1  0.34418000  0.57453000  0.95190000  1.0
  H  H236  1  0.52895000  0.46037000  0.93025000  1.0
  H  H237  1  0.55864000  0.45185000  0.97827000  1.0
  H  H238  1  0.67506000  0.44965000  0.86428000  1.0
  H  H239  1  0.67865000  0.30295000  0.88673000  1.0
  H  H240  1  0.60518000  0.31147000  0.93945000  1.0
  H  H241  1  0.56493000  0.38844000  0.95189000  1.0
  H  H242  1  0.65765000  0.77863000  0.41614000  1.0
  H  H243  1  0.52952000  0.74174000  0.48986000  1.0
  H  H244  1  0.55786000  0.74335000  0.56384000  1.0
  H  H245  1  0.63491000  0.76673000  0.56305000  1.0
  H  H246  1  0.62467000  0.76014000  0.35562000  1.0
  H  H247  1  0.60341000  0.81471000  0.37218000  1.0
  H  H248  1  0.59124000  0.69545000  0.28013000  1.0
  H  H249  1  0.60054000  0.70414000  0.33482000  1.0
  H  H250  1  0.63518000  0.72691000  0.28478000  1.0
  H  H251  1  0.50068000  0.82280000  0.18740000  1.0
  H  H252  1  0.47353000  0.87078000  0.21339000  1.0
  H  H253  1  0.44963000  0.81882000  0.22534000  1.0
  H  H254  1  0.51226000  0.89380000  0.36227000  1.0
  H  H255  1  0.54322000  0.84870000  0.39542000  1.0
  H  H256  1  0.48442000  0.84845000  0.39497000  1.0
  H  H257  1  0.50073000  0.98392000  0.19850000  1.0
  H  H258  1  0.44841000  0.05406000  0.17342000  1.0
  H  H259  1  0.36960000  0.06969000  0.21685000  1.0
  H  H260  1  0.39351000  0.94148000  0.30399000  1.0
  H  H261  1  0.56308000  0.78309000  0.18851000  1.0
  H  H262  1  0.58385000  0.72950000  0.21821000  1.0
  H  H263  1  0.58700000  0.74882000  0.13467000  1.0
  H  H264  1  0.51345000  0.72198000  0.03243000  1.0
  H  H265  1  0.44768000  0.70426000  0.09321000  1.0
  H  H266  1  0.45138000  0.71083000  0.17439000  1.0
  H  H267  1  0.43300000  0.87652000  0.28356000  1.0
  H  H268  1  0.45257000  0.89349000  0.33040000  1.0
  H  H269  1  0.26028000  0.67605000  0.86982000  1.0
  H  H270  1  0.26805000  0.60629000  0.92861000  1.0
  H  H271  1  0.61550000  0.23022000  0.57842000  1.0
  H  H272  1  0.57640000  0.22806000  0.51080000  1.0
  H  H273  1  0.56560000  0.15312000  0.49061000  1.0
  H  H274  1  0.63308000  0.08345000  0.60492000  1.0
  H  H275  1  0.64084000  0.02476000  0.55817000  1.0
  H  H276  1  0.58969000  0.03272000  0.59681000  1.0
  H  H277  1  0.47962000  0.03598000  0.57272000  1.0
  H  H278  1  0.49049000  0.99275000  0.61901000  1.0
  H  H279  1  0.52428000  0.03817000  0.60395000  1.0
  H  H280  1  0.68682000  0.96170000  0.50806000  1.0
  H  H281  1  0.66769000  0.97573000  0.45386000  1.0
  H  H282  1  0.66031000  0.01786000  0.49012000  1.0
  H  H283  1  0.51155000  0.89333000  0.47320000  1.0
  H  H284  1  0.56098000  0.85635000  0.48792000  1.0
  H  H285  1  0.51294000  0.86507000  0.52999000  1.0
  H  H286  1  0.62373000  0.86820000  0.46972000  1.0
  H  H287  1  0.66077000  0.91047000  0.45544000  1.0
  H  H288  1  0.68272000  0.86059000  0.40430000  1.0
  H  H289  1  0.57453000  0.95189000  0.34419000  1.0
  H  H290  1  0.46037000  0.93024000  0.52895000  1.0
  H  H291  1  0.45185000  0.97827000  0.55864000  1.0
  H  H292  1  0.44964000  0.86427000  0.67507000  1.0
  H  H293  1  0.30294000  0.88674000  0.67864000  1.0
  H  H294  1  0.31148000  0.93946000  0.60518000  1.0
  H  H295  1  0.38844000  0.95189000  0.56493000  1.0
  H  H296  1  0.77861000  0.41614000  0.65770000  1.0
  H  H297  1  0.74172000  0.48981000  0.52954000  1.0
  H  H298  1  0.74335000  0.56380000  0.55785000  1.0
  H  H299  1  0.76675000  0.56304000  0.63488000  1.0
  H  H300  1  0.76018000  0.35559000  0.62470000  1.0
  H  H301  1  0.81475000  0.37218000  0.60342000  1.0
  H  H302  1  0.69545000  0.28014000  0.59125000  1.0
  H  H303  1  0.70415000  0.33482000  0.60055000  1.0
  H  H304  1  0.72691000  0.28477000  0.63520000  1.0
  H  H305  1  0.82279000  0.18740000  0.50068000  1.0
  H  H306  1  0.87078000  0.21340000  0.47353000  1.0
  H  H307  1  0.81881000  0.22535000  0.44963000  1.0
  H  H308  1  0.89380000  0.36227000  0.51227000  1.0
  H  H309  1  0.84871000  0.39541000  0.54323000  1.0
  H  H310  1  0.84845000  0.39496000  0.48444000  1.0
  H  H311  1  0.98392000  0.19850000  0.50074000  1.0
  H  H312  1  0.05406000  0.17342000  0.44842000  1.0
  H  H313  1  0.06969000  0.21685000  0.36961000  1.0
  H  H314  1  0.94147000  0.30398000  0.39351000  1.0
  H  H315  1  0.78309000  0.18851000  0.56308000  1.0
  H  H316  1  0.72950000  0.21821000  0.58385000  1.0
  H  H317  1  0.74882000  0.13467000  0.58700000  1.0
  H  H318  1  0.72198000  0.03243000  0.51345000  1.0
  H  H319  1  0.70426000  0.09321000  0.44768000  1.0
  H  H320  1  0.71083000  0.17439000  0.45138000  1.0
  H  H321  1  0.87652000  0.28356000  0.43300000  1.0
  H  H322  1  0.89348000  0.33040000  0.45257000  1.0
  H  H323  1  0.67605000  0.86982000  0.26028000  1.0
  H  H324  1  0.60629000  0.92861000  0.26805000  1.0
  H  H325  1  0.07841000  0.73021000  0.11550000  1.0
  H  H326  1  0.01080000  0.72805000  0.07640000  1.0
  H  H327  1  0.99060000  0.65312000  0.06560000  1.0
  H  H328  1  0.10492000  0.58344000  0.13308000  1.0
  H  H329  1  0.05817000  0.52475000  0.14084000  1.0
  H  H330  1  0.09680000  0.53272000  0.08969000  1.0
  H  H331  1  0.07272000  0.53598000  0.97962000  1.0
  H  H332  1  0.11901000  0.49275000  0.99049000  1.0
  H  H333  1  0.10395000  0.53817000  0.02429000  1.0
  H  H334  1  0.00805000  0.46170000  0.18682000  1.0
  H  H335  1  0.95386000  0.47573000  0.16770000  1.0
  H  H336  1  0.99011000  0.51786000  0.16031000  1.0
  H  H337  1  0.97320000  0.39333000  0.01155000  1.0
  H  H338  1  0.98792000  0.35635000  0.06098000  1.0
  H  H339  1  0.02999000  0.36508000  0.01294000  1.0
  H  H340  1  0.96972000  0.36820000  0.12374000  1.0
  H  H341  1  0.95544000  0.41047000  0.16078000  1.0
  H  H342  1  0.90430000  0.36059000  0.18272000  1.0
  H  H343  1  0.84418000  0.45190000  0.07453000  1.0
  H  H344  1  0.02895000  0.43024000  0.96037000  1.0
  H  H345  1  0.05864000  0.47827000  0.95186000  1.0
  H  H346  1  0.17507000  0.36427000  0.94964000  1.0
  H  H347  1  0.17864000  0.38674000  0.80295000  1.0
  H  H348  1  0.10518000  0.43946000  0.81148000  1.0
  H  H349  1  0.06493000  0.45189000  0.88845000  1.0
  H  H350  1  0.15770000  0.91614000  0.27861000  1.0
  H  H351  1  0.02954000  0.98981000  0.24173000  1.0
  H  H352  1  0.05784000  0.06380000  0.24335000  1.0
  H  H353  1  0.13488000  0.06304000  0.26675000  1.0
  H  H354  1  0.12470000  0.85559000  0.26019000  1.0
  H  H355  1  0.10341000  0.87217000  0.31475000  1.0
  H  H356  1  0.09124000  0.78014000  0.19546000  1.0
  H  H357  1  0.10054000  0.83482000  0.20416000  1.0
  H  H358  1  0.13519000  0.78477000  0.22691000  1.0
  H  H359  1  0.00067000  0.68740000  0.32280000  1.0
  H  H360  1  0.97353000  0.71340000  0.37078000  1.0
  H  H361  1  0.94963000  0.72535000  0.31881000  1.0
  H  H362  1  0.01227000  0.86226000  0.39381000  1.0
  H  H363  1  0.04323000  0.89541000  0.34871000  1.0
  H  H364  1  0.98444000  0.89496000  0.34846000  1.0
  H  H365  1  0.00073000  0.69850000  0.48392000  1.0
  H  H366  1  0.94842000  0.67342000  0.55406000  1.0
  H  H367  1  0.86960000  0.71685000  0.56969000  1.0
  H  H368  1  0.89351000  0.80398000  0.44147000  1.0
  H  H369  1  0.06308000  0.68850000  0.28309000  1.0
  H  H370  1  0.08385000  0.71821000  0.22950000  1.0
  H  H371  1  0.08700000  0.63467000  0.24882000  1.0
  H  H372  1  0.01345000  0.53243000  0.22198000  1.0
  H  H373  1  0.94767000  0.59321000  0.20426000  1.0
  H  H374  1  0.95138000  0.67439000  0.21083000  1.0
  H  H375  1  0.93300000  0.78355000  0.37652000  1.0
  H  H376  1  0.95257000  0.83040000  0.39349000  1.0
  H  H377  1  0.76028000  0.36982000  0.17605000  1.0
  H  H378  1  0.76804000  0.42861000  0.10629000  1.0
  H  H379  1  0.11550000  0.07842000  0.73022000  1.0
  H  H380  1  0.07640000  0.01081000  0.72806000  1.0
  H  H381  1  0.06560000  0.99061000  0.65312000  1.0
  H  H382  1  0.13307000  0.10493000  0.58345000  1.0
  H  H383  1  0.14084000  0.05817000  0.52476000  1.0
  H  H384  1  0.08969000  0.09681000  0.53272000  1.0
  H  H385  1  0.97962000  0.07271000  0.53598000  1.0
  H  H386  1  0.99049000  0.11901000  0.49276000  1.0
  H  H387  1  0.02429000  0.10395000  0.53817000  1.0
  H  H388  1  0.18682000  0.00806000  0.46170000  1.0
  H  H389  1  0.16769000  0.95386000  0.47573000  1.0
  H  H390  1  0.16031000  0.99011000  0.51787000  1.0
  H  H391  1  0.01155000  0.97320000  0.39334000  1.0
  H  H392  1  0.06098000  0.98792000  0.35635000  1.0
  H  H393  1  0.01294000  0.02998000  0.36508000  1.0
  H  H394  1  0.12374000  0.96972000  0.36821000  1.0
  H  H395  1  0.16077000  0.95543000  0.41048000  1.0
  H  H396  1  0.18272000  0.90430000  0.36060000  1.0
  H  H397  1  0.07453000  0.84418000  0.45190000  1.0
  H  H398  1  0.96037000  0.02895000  0.43024000  1.0
  H  H399  1  0.95185000  0.05864000  0.47827000  1.0
  H  H400  1  0.94964000  0.17507000  0.36427000  1.0
  H  H401  1  0.80294000  0.17864000  0.38674000  1.0
  H  H402  1  0.81148000  0.10518000  0.43946000  1.0
  H  H403  1  0.88844000  0.06493000  0.45189000  1.0
  H  H404  1  0.27861000  0.15770000  0.91614000  1.0
  H  H405  1  0.24173000  0.02954000  0.98982000  1.0
  H  H406  1  0.24335000  0.05785000  0.06381000  1.0
  H  H407  1  0.26675000  0.13489000  0.06305000  1.0
  H  H408  1  0.26017000  0.12470000  0.85560000  1.0
  H  H409  1  0.31473000  0.10342000  0.87218000  1.0
  H  H410  1  0.19545000  0.09125000  0.78014000  1.0
  H  H411  1  0.20415000  0.10055000  0.83482000  1.0
  H  H412  1  0.22691000  0.13520000  0.78478000  1.0
  H  H413  1  0.32280000  0.00068000  0.68740000  1.0
  H  H414  1  0.37078000  0.97353000  0.71340000  1.0
  H  H415  1  0.31881000  0.94963000  0.72534000  1.0
  H  H416  1  0.39380000  0.01228000  0.86227000  1.0
  H  H417  1  0.34870000  0.04324000  0.89541000  1.0
  H  H418  1  0.34845000  0.98444000  0.89496000  1.0
  H  H419  1  0.48392000  0.00074000  0.69850000  1.0
  H  H420  1  0.55405000  0.94842000  0.67342000  1.0
  H  H421  1  0.56968000  0.86961000  0.71684000  1.0
  H  H422  1  0.44148000  0.89351000  0.80399000  1.0
  H  H423  1  0.28309000  0.06309000  0.68851000  1.0
  H  H424  1  0.22950000  0.08386000  0.71821000  1.0
  H  H425  1  0.24882000  0.08700000  0.63467000  1.0
  H  H426  1  0.22198000  0.01345000  0.53243000  1.0
  H  H427  1  0.20426000  0.94767000  0.59321000  1.0
  H  H428  1  0.21083000  0.95138000  0.67439000  1.0
  H  H429  1  0.37652000  0.93301000  0.78356000  1.0
  H  H430  1  0.39348000  0.95257000  0.83040000  1.0
  H  H431  1  0.17605000  0.76028000  0.36982000  1.0
  H  H432  1  0.10629000  0.76804000  0.42861000  1.0
  H  H433  1  0.73021000  0.11550000  0.07842000  1.0
  H  H434  1  0.72805000  0.07640000  0.01081000  1.0
  H  H435  1  0.65312000  0.06560000  0.99061000  1.0
  H  H436  1  0.58344000  0.13307000  0.10493000  1.0
  H  H437  1  0.52475000  0.14084000  0.05817000  1.0
  H  H438  1  0.53272000  0.08969000  0.09681000  1.0
  H  H439  1  0.53598000  0.97962000  0.07272000  1.0
  H  H440  1  0.49275000  0.99049000  0.11901000  1.0
  H  H441  1  0.53816000  0.02428000  0.10396000  1.0
  H  H442  1  0.46170000  0.18682000  0.00806000  1.0
  H  H443  1  0.47574000  0.16769000  0.95386000  1.0
  H  H444  1  0.51787000  0.16031000  0.99012000  1.0
  H  H445  1  0.39334000  0.01155000  0.97320000  1.0
  H  H446  1  0.35635000  0.06098000  0.98792000  1.0
  H  H447  1  0.36508000  0.01293000  0.02999000  1.0
  H  H448  1  0.36820000  0.12374000  0.96972000  1.0
  H  H449  1  0.41047000  0.16077000  0.95544000  1.0
  H  H450  1  0.36059000  0.18272000  0.90430000  1.0
  H  H451  1  0.45190000  0.07453000  0.84418000  1.0
  H  H452  1  0.43024000  0.96037000  0.02895000  1.0
  H  H453  1  0.47827000  0.95185000  0.05864000  1.0
  H  H454  1  0.36427000  0.94964000  0.17506000  1.0
  H  H455  1  0.38673000  0.80295000  0.17865000  1.0
  H  H456  1  0.43945000  0.81147000  0.10519000  1.0
  H  H457  1  0.45188000  0.88844000  0.06493000  1.0
  H  H458  1  0.91614000  0.27863000  0.15766000  1.0
  H  H459  1  0.98986000  0.24174000  0.02952000  1.0
  H  H460  1  0.06384000  0.24335000  0.05787000  1.0
  H  H461  1  0.06305000  0.26673000  0.13491000  1.0
  H  H462  1  0.85562000  0.26014000  0.12467000  1.0
  H  H463  1  0.87218000  0.31471000  0.10342000  1.0
  H  H464  1  0.78012000  0.19545000  0.09124000  1.0
  H  H465  1  0.83481000  0.20414000  0.10054000  1.0
  H  H466  1  0.78477000  0.22691000  0.13519000  1.0
  H  H467  1  0.68739000  0.32280000  0.00068000  1.0
  H  H468  1  0.71339000  0.37078000  0.97354000  1.0
  H  H469  1  0.72534000  0.31882000  0.94964000  1.0
  H  H470  1  0.86226000  0.39380000  0.01226000  1.0
  H  H471  1  0.89542000  0.34870000  0.04322000  1.0
  H  H472  1  0.89497000  0.34846000  0.98442000  1.0
  H  H473  1  0.69850000  0.48392000  0.00073000  1.0
  H  H474  1  0.67342000  0.55406000  0.94842000  1.0
  H  H475  1  0.71685000  0.56969000  0.86960000  1.0
  H  H476  1  0.80398000  0.44148000  0.89351000  1.0
  H  H477  1  0.68850000  0.28309000  0.06309000  1.0
  H  H478  1  0.71820000  0.22950000  0.08386000  1.0
  H  H479  1  0.63466000  0.24883000  0.08700000  1.0
  H  H480  1  0.53243000  0.22198000  0.01345000  1.0
  H  H481  1  0.59321000  0.20426000  0.94768000  1.0
  H  H482  1  0.67439000  0.21083000  0.95138000  1.0
  H  H483  1  0.78355000  0.37653000  0.93301000  1.0
  H  H484  1  0.83040000  0.39349000  0.95257000  1.0
  H  H485  1  0.36982000  0.17605000  0.76028000  1.0
  H  H486  1  0.42861000  0.10629000  0.76805000  1.0
  H  H487  1  0.76978000  0.42158000  0.38450000  1.0
  H  H488  1  0.77194000  0.48920000  0.42360000  1.0
  H  H489  1  0.84687000  0.50939000  0.43440000  1.0
  H  H490  1  0.91655000  0.39508000  0.36693000  1.0
  H  H491  1  0.97524000  0.44183000  0.35916000  1.0
  H  H492  1  0.96727000  0.40320000  0.41031000  1.0
  H  H493  1  0.96402000  0.42729000  0.52038000  1.0
  H  H494  1  0.00724000  0.38099000  0.50951000  1.0
  H  H495  1  0.96183000  0.39605000  0.47572000  1.0
  H  H496  1  0.03830000  0.49195000  0.31318000  1.0
  H  H497  1  0.02427000  0.54614000  0.33231000  1.0
  H  H498  1  0.98213000  0.50989000  0.33969000  1.0
  H  H499  1  0.10666000  0.52680000  0.48845000  1.0
  H  H500  1  0.14365000  0.51208000  0.43902000  1.0
  H  H501  1  0.13492000  0.47002000  0.48706000  1.0
  H  H502  1  0.13180000  0.53028000  0.37626000  1.0
  H  H503  1  0.08952000  0.54457000  0.33923000  1.0
  H  H504  1  0.13940000  0.59570000  0.31728000  1.0
  H  H505  1  0.04810000  0.65582000  0.42547000  1.0
  H  H506  1  0.06976000  0.47105000  0.53963000  1.0
  H  H507  1  0.02173000  0.44136000  0.54815000  1.0
  H  H508  1  0.13573000  0.32493000  0.55036000  1.0
  H  H509  1  0.11326000  0.32136000  0.69706000  1.0
  H  H510  1  0.06054000  0.39483000  0.68852000  1.0
  H  H511  1  0.04811000  0.43507000  0.61155000  1.0
  H  H512  1  0.58386000  0.34231000  0.22140000  1.0
  H  H513  1  0.51018000  0.47047000  0.25827000  1.0
  H  H514  1  0.43619000  0.44215000  0.25665000  1.0
  H  H515  1  0.43695000  0.36512000  0.23325000  1.0
  H  H516  1  0.64440000  0.37530000  0.23983000  1.0
  H  H517  1  0.62782000  0.39658000  0.18527000  1.0
  H  H518  1  0.71986000  0.40875000  0.30455000  1.0
  H  H519  1  0.66517000  0.39945000  0.29585000  1.0
  H  H520  1  0.71522000  0.36480000  0.27309000  1.0
  H  H521  1  0.81260000  0.49932000  0.17720000  1.0
  H  H522  1  0.78660000  0.52647000  0.12922000  1.0
  H  H523  1  0.77465000  0.55037000  0.18119000  1.0
  H  H524  1  0.63773000  0.48772000  0.10620000  1.0
  H  H525  1  0.60459000  0.45676000  0.15130000  1.0
  H  H526  1  0.60503000  0.51556000  0.15155000  1.0
  H  H527  1  0.80149000  0.49926000  0.01608000  1.0
  H  H528  1  0.82659000  0.55158000  0.94594000  1.0
  H  H529  1  0.78316000  0.63039000  0.93031000  1.0
  H  H530  1  0.69601000  0.60649000  0.05852000  1.0
  H  H531  1  0.81149000  0.43692000  0.21692000  1.0
  H  H532  1  0.78179000  0.41615000  0.27050000  1.0
  H  H533  1  0.86533000  0.41300000  0.25118000  1.0
  H  H534  1  0.96757000  0.48655000  0.27802000  1.0
  H  H535  1  0.90679000  0.55233000  0.29574000  1.0
  H  H536  1  0.82561000  0.54862000  0.28917000  1.0
  H  H537  1  0.71644000  0.56699000  0.12348000  1.0
  H  H538  1  0.66960000  0.54743000  0.10652000  1.0
  H  H539  1  0.13018000  0.73972000  0.32395000  1.0
  H  H540  1  0.07139000  0.73196000  0.39371000  1.0
  H  H541  1  0.42158000  0.38450000  0.76979000  1.0
  H  H542  1  0.48920000  0.42360000  0.77195000  1.0
  H  H543  1  0.50939000  0.43440000  0.84688000  1.0
  H  H544  1  0.39508000  0.36693000  0.91656000  1.0
  H  H545  1  0.44183000  0.35917000  0.97524000  1.0
  H  H546  1  0.40320000  0.41031000  0.96728000  1.0
  H  H547  1  0.42728000  0.52038000  0.96402000  1.0
  H  H548  1  0.38098000  0.50951000  0.00725000  1.0
  H  H549  1  0.39604000  0.47572000  0.96183000  1.0
  H  H550  1  0.49194000  0.31318000  0.03830000  1.0
  H  H551  1  0.54614000  0.33231000  0.02426000  1.0
  H  H552  1  0.50988000  0.33970000  0.98213000  1.0
  H  H553  1  0.52679000  0.48845000  0.10667000  1.0
  H  H554  1  0.51207000  0.43903000  0.14365000  1.0
  H  H555  1  0.47001000  0.48707000  0.13492000  1.0
  H  H556  1  0.53028000  0.37627000  0.13180000  1.0
  H  H557  1  0.54456000  0.33923000  0.08953000  1.0
  H  H558  1  0.59569000  0.31728000  0.13941000  1.0
  H  H559  1  0.65581000  0.42547000  0.04810000  1.0
  H  H560  1  0.47105000  0.53963000  0.06976000  1.0
  H  H561  1  0.44136000  0.54815000  0.02173000  1.0
  H  H562  1  0.32494000  0.55036000  0.13573000  1.0
  H  H563  1  0.32135000  0.69705000  0.11327000  1.0
  H  H564  1  0.39481000  0.68853000  0.06055000  1.0
  H  H565  1  0.43507000  0.61156000  0.04812000  1.0
  H  H566  1  0.34235000  0.22137000  0.58386000  1.0
  H  H567  1  0.47048000  0.25826000  0.51014000  1.0
  H  H568  1  0.44213000  0.25665000  0.43616000  1.0
  H  H569  1  0.36509000  0.23328000  0.43695000  1.0
  H  H570  1  0.37533000  0.23986000  0.64438000  1.0
  H  H571  1  0.39658000  0.18529000  0.62782000  1.0
  H  H572  1  0.40876000  0.30455000  0.71987000  1.0
  H  H573  1  0.39946000  0.29587000  0.66518000  1.0
  H  H574  1  0.36482000  0.27309000  0.71523000  1.0
  H  H575  1  0.49932000  0.17720000  0.81261000  1.0
  H  H576  1  0.52646000  0.12922000  0.78661000  1.0
  H  H577  1  0.55036000  0.18119000  0.77466000  1.0
  H  H578  1  0.48774000  0.10620000  0.63773000  1.0
  H  H579  1  0.45678000  0.15130000  0.60458000  1.0
  H  H580  1  0.51558000  0.15155000  0.60503000  1.0
  H  H581  1  0.49927000  0.01608000  0.80150000  1.0
  H  H582  1  0.55158000  0.94594000  0.82658000  1.0
  H  H583  1  0.63040000  0.93031000  0.78315000  1.0
  H  H584  1  0.60649000  0.05853000  0.69602000  1.0
  H  H585  1  0.43692000  0.21691000  0.81149000  1.0
  H  H586  1  0.41615000  0.27050000  0.78179000  1.0
  H  H587  1  0.41300000  0.25118000  0.86533000  1.0
  H  H588  1  0.48655000  0.27802000  0.96757000  1.0
  H  H589  1  0.55232000  0.29575000  0.90679000  1.0
  H  H590  1  0.54862000  0.28918000  0.82561000  1.0
  H  H591  1  0.56699000  0.12348000  0.71645000  1.0
  H  H592  1  0.54743000  0.10652000  0.66960000  1.0
  H  H593  1  0.73972000  0.32395000  0.13018000  1.0
  H  H594  1  0.73195000  0.39371000  0.07139000  1.0
  H  H595  1  0.38450000  0.76979000  0.42159000  1.0
  H  H596  1  0.42360000  0.77195000  0.48920000  1.0
  H  H597  1  0.43440000  0.84688000  0.50939000  1.0
  H  H598  1  0.36692000  0.91655000  0.39508000  1.0
  H  H599  1  0.35916000  0.97524000  0.44183000  1.0
  H  H600  1  0.41031000  0.96728000  0.40320000  1.0
  H  H601  1  0.52038000  0.96402000  0.42729000  1.0
  H  H602  1  0.50951000  0.00725000  0.38099000  1.0
  H  H603  1  0.47571000  0.96183000  0.39605000  1.0
  H  H604  1  0.31318000  0.03831000  0.49195000  1.0
  H  H605  1  0.33230000  0.02427000  0.54614000  1.0
  H  H606  1  0.33969000  0.98214000  0.50989000  1.0
  H  H607  1  0.48845000  0.10667000  0.52680000  1.0
  H  H608  1  0.43902000  0.14365000  0.51208000  1.0
  H  H609  1  0.48706000  0.13493000  0.47001000  1.0
  H  H610  1  0.37626000  0.13180000  0.53028000  1.0
  H  H611  1  0.33923000  0.08953000  0.54456000  1.0
  H  H612  1  0.31728000  0.13941000  0.59570000  1.0
  H  H613  1  0.42547000  0.04811000  0.65582000  1.0
  H  H614  1  0.53962000  0.06976000  0.47105000  1.0
  H  H615  1  0.54814000  0.02173000  0.44137000  1.0
  H  H616  1  0.55036000  0.13573000  0.32494000  1.0
  H  H617  1  0.69705000  0.11326000  0.32136000  1.0
  H  H618  1  0.68852000  0.06054000  0.39482000  1.0
  H  H619  1  0.61155000  0.04811000  0.43507000  1.0
  H  H620  1  0.22139000  0.58386000  0.34230000  1.0
  H  H621  1  0.25827000  0.51019000  0.47046000  1.0
  H  H622  1  0.25665000  0.43620000  0.44216000  1.0
  H  H623  1  0.23325000  0.43696000  0.36512000  1.0
  H  H624  1  0.23982000  0.64441000  0.37530000  1.0
  H  H625  1  0.18525000  0.62782000  0.39659000  1.0
  H  H626  1  0.30454000  0.71986000  0.40876000  1.0
  H  H627  1  0.29584000  0.66518000  0.39945000  1.0
  H  H628  1  0.27309000  0.71523000  0.36481000  1.0
  H  H629  1  0.17720000  0.81260000  0.49933000  1.0
  H  H630  1  0.12922000  0.78660000  0.52647000  1.0
  H  H631  1  0.18119000  0.77465000  0.55037000  1.0
  H  H632  1  0.10619000  0.63774000  0.48773000  1.0
  H  H633  1  0.15129000  0.60459000  0.45677000  1.0
  H  H634  1  0.15155000  0.60504000  0.51556000  1.0
  H  H635  1  0.01608000  0.80150000  0.49927000  1.0
  H  H636  1  0.94594000  0.82658000  0.55158000  1.0
  H  H637  1  0.93031000  0.78315000  0.63039000  1.0
  H  H638  1  0.05853000  0.69602000  0.60649000  1.0
  H  H639  1  0.21691000  0.81149000  0.43692000  1.0
  H  H640  1  0.27050000  0.78179000  0.41615000  1.0
  H  H641  1  0.25118000  0.86533000  0.41300000  1.0
  H  H642  1  0.27802000  0.96757000  0.48655000  1.0
  H  H643  1  0.29574000  0.90679000  0.55233000  1.0
  H  H644  1  0.28917000  0.82561000  0.54862000  1.0
  H  H645  1  0.12348000  0.71644000  0.56700000  1.0
  H  H646  1  0.10652000  0.66960000  0.54743000  1.0
  H  H647  1  0.32395000  0.13018000  0.73972000  1.0
  H  H648  1  0.39371000  0.07139000  0.73195000  1.0
  C  C1  1  0.90469000  0.34320000  0.87410000  1.0
  C  C2  1  0.93078000  0.30209000  0.88976000  1.0
  C  C3  1  0.96849000  0.30363000  0.91149000  1.0
  C  C4  1  0.97997000  0.34537000  0.91774000  1.0
  C  C5  1  0.95337000  0.38659000  0.90236000  1.0
  C  C6  1  0.91580000  0.38555000  0.88037000  1.0
  C  C7  1  0.86532000  0.34332000  0.84920000  1.0
  C  C8  1  0.98952000  0.53151000  0.88728000  1.0
  C  C9  1  0.00317000  0.56819000  0.90365000  1.0
  C  C10  1  0.98663000  0.57785000  0.94855000  1.0
  C  C11  1  0.95803000  0.54899000  0.97743000  1.0
  C  C12  1  0.93935000  0.46930000  0.89666000  1.0
  C  C13  1  0.90981000  0.48519000  0.99291000  1.0
  C  C14  1  0.01026000  0.51852000  0.84076000  1.0
  C  C15  1  0.99968000  0.61778000  0.96652000  1.0
  C  C16  1  0.03890000  0.59480000  0.87521000  1.0
  C  C17  1  0.94197000  0.51386000  0.96080000  1.0
  C  C18  1  0.16784000  0.63894000  0.81785000  1.0
  C  C19  1  0.12454000  0.62583000  0.83568000  1.0
  C  C20  1  0.15955000  0.57438000  0.89588000  1.0
  C  C21  1  0.17317000  0.66751000  0.77279000  1.0
  C  C22  1  0.94500000  0.55494000  0.02698000  1.0
  C  C23  1  0.88265000  0.59123000  0.07579000  1.0
  C  C24  1  0.84067000  0.62010000  0.08054000  1.0
  C  C25  1  0.81902000  0.62815000  0.12419000  1.0
  C  C26  1  0.83888000  0.60714000  0.16337000  1.0
  C  C27  1  0.88014000  0.57811000  0.15828000  1.0
  C  C28  1  0.90255000  0.57032000  0.11477000  1.0
  C  C29  1  0.77368000  0.65762000  0.12957000  1.0
  C  C30  1  0.80322000  0.01142000  0.71255000  1.0
  C  C31  1  0.84949000  0.01045000  0.72621000  1.0
  C  C32  1  0.86492000  0.05205000  0.72833000  1.0
  C  C33  1  0.90909000  0.05149000  0.73874000  1.0
  C  C34  1  0.93659000  0.00949000  0.74962000  1.0
  C  C35  1  0.92058000  0.96850000  0.74830000  1.0
  C  C36  1  0.87747000  0.96866000  0.73558000  1.0
  C  C37  1  0.12053000  0.59369000  0.87504000  1.0
  C  C38  1  0.90668000  0.13307000  0.71762000  1.0
  C  C39  1  0.93930000  0.16806000  0.70824000  1.0
  C  C40  1  0.93342000  0.20330000  0.73592000  1.0
  C  C41  1  0.89979000  0.20079000  0.77962000  1.0
  C  C42  1  0.95866000  0.24042000  0.72189000  1.0
  C  C43  1  0.99165000  0.24074000  0.68240000  1.0
  C  C44  1  0.01810000  0.28062000  0.66653000  1.0
  C  C45  1  0.97376000  0.16687000  0.66998000  1.0
  C  C46  1  0.98366000  0.12667000  0.64328000  1.0
  C  C47  1  0.04896000  0.24692000  0.54159000  1.0
  C  C48  1  0.03410000  0.28410000  0.50966000  1.0
  C  C49  1  0.06340000  0.29756000  0.47023000  1.0
  C  C50  1  0.10749000  0.27377000  0.46138000  1.0
  C  C51  1  0.12233000  0.23735000  0.49376000  1.0
  C  C52  1  0.09348000  0.22418000  0.53416000  1.0
  C  C53  1  0.94594000  0.28340000  0.74390000  1.0
  C  C54  1  0.98166000  0.33968000  0.76815000  1.0
  C  C55  1  0.94435000  0.37332000  0.75997000  1.0
  C  C56  1  0.98538000  0.43185000  0.77590000  1.0
  C  C57  1  0.02200000  0.39787000  0.78538000  1.0
  C  C58  1  0.94626000  0.41922000  0.76391000  1.0
  C  C59  1  0.02030000  0.35222000  0.78183000  1.0
  C  C60  1  0.00007000  0.20322000  0.65770000  1.0
  C  C61  1  0.90503000  0.45291000  0.75611000  1.0
  C  C62  1  0.03651000  0.20375000  0.61671000  1.0
  C  C63  1  0.95683000  0.50613000  0.91514000  1.0
  C  C64  1  0.20649000  0.62065000  0.83920000  1.0
  C  C65  1  0.20198000  0.58798000  0.87816000  1.0
  C  C66  1  0.16847000  0.21084000  0.48731000  1.0
  C  C67  1  0.87410000  0.90469000  0.34320000  1.0
  C  C68  1  0.88976000  0.93078000  0.30209000  1.0
  C  C69  1  0.91149000  0.96849000  0.30363000  1.0
  C  C70  1  0.91774000  0.97997000  0.34537000  1.0
  C  C71  1  0.90236000  0.95337000  0.38658000  1.0
  C  C72  1  0.88037000  0.91579000  0.38555000  1.0
  C  C73  1  0.84920000  0.86532000  0.34332000  1.0
  C  C74  1  0.88728000  0.98952000  0.53150000  1.0
  C  C75  1  0.90365000  0.00318000  0.56818000  1.0
  C  C76  1  0.94855000  0.98663000  0.57785000  1.0
  C  C77  1  0.97743000  0.95803000  0.54899000  1.0
  C  C78  1  0.89666000  0.93935000  0.46929000  1.0
  C  C79  1  0.99291000  0.90981000  0.48519000  1.0
  C  C80  1  0.84076000  0.01026000  0.51852000  1.0
  C  C81  1  0.96651000  0.99968000  0.61778000  1.0
  C  C82  1  0.87521000  0.03890000  0.59479000  1.0
  C  C83  1  0.96080000  0.94197000  0.51386000  1.0
  C  C84  1  0.81784000  0.16784000  0.63894000  1.0
  C  C85  1  0.83568000  0.12454000  0.62583000  1.0
  C  C86  1  0.89588000  0.15955000  0.57438000  1.0
  C  C87  1  0.77278000  0.17317000  0.66751000  1.0
  C  C88  1  0.02698000  0.94500000  0.55494000  1.0
  C  C89  1  0.07579000  0.88265000  0.59123000  1.0
  C  C90  1  0.08054000  0.84067000  0.62011000  1.0
  C  C91  1  0.12419000  0.81903000  0.62816000  1.0
  C  C92  1  0.16337000  0.83889000  0.60714000  1.0
  C  C93  1  0.15828000  0.88015000  0.57812000  1.0
  C  C94  1  0.11477000  0.90256000  0.57033000  1.0
  C  C95  1  0.12957000  0.77368000  0.65762000  1.0
  C  C96  1  0.71255000  0.80322000  0.01142000  1.0
  C  C97  1  0.72620000  0.84949000  0.01045000  1.0
  C  C98  1  0.72833000  0.86493000  0.05204000  1.0
  C  C99  1  0.73874000  0.90910000  0.05148000  1.0
  C  C100  1  0.74962000  0.93659000  0.00948000  1.0
  C  C101  1  0.74829000  0.92058000  0.96850000  1.0
  C  C102  1  0.73557000  0.87747000  0.96866000  1.0
  C  C103  1  0.87504000  0.12053000  0.59368000  1.0
  C  C104  1  0.71763000  0.90669000  0.13306000  1.0
  C  C105  1  0.70824000  0.93930000  0.16806000  1.0
  C  C106  1  0.73592000  0.93342000  0.20330000  1.0
  C  C107  1  0.77962000  0.89979000  0.20079000  1.0
  C  C108  1  0.72188000  0.95866000  0.24042000  1.0
  C  C109  1  0.68239000  0.99164000  0.24074000  1.0
  C  C110  1  0.66652000  0.01810000  0.28063000  1.0
  C  C111  1  0.66998000  0.97376000  0.16687000  1.0
  C  C112  1  0.64328000  0.98366000  0.12667000  1.0
  C  C113  1  0.54159000  0.04896000  0.24692000  1.0
  C  C114  1  0.50966000  0.03410000  0.28411000  1.0
  C  C115  1  0.47022000  0.06340000  0.29756000  1.0
  C  C116  1  0.46137000  0.10749000  0.27378000  1.0
  C  C117  1  0.49375000  0.12233000  0.23735000  1.0
  C  C118  1  0.53415000  0.09348000  0.22418000  1.0
  C  C119  1  0.74389000  0.94594000  0.28340000  1.0
  C  C120  1  0.76815000  0.98166000  0.33968000  1.0
  C  C121  1  0.75996000  0.94435000  0.37332000  1.0
  C  C122  1  0.77590000  0.98538000  0.43185000  1.0
  C  C123  1  0.78537000  0.02200000  0.39787000  1.0
  C  C124  1  0.76390000  0.94626000  0.41922000  1.0
  C  C125  1  0.78182000  0.02030000  0.35222000  1.0
  C  C126  1  0.65770000  0.00007000  0.20322000  1.0
  C  C127  1  0.75611000  0.90503000  0.45291000  1.0
  C  C128  1  0.61671000  0.03651000  0.20375000  1.0
  C  C129  1  0.91514000  0.95683000  0.50612000  1.0
  C  C130  1  0.83920000  0.20649000  0.62065000  1.0
  C  C131  1  0.87816000  0.20198000  0.58798000  1.0
  C  C132  1  0.48731000  0.16846000  0.21084000  1.0
  C  C133  1  0.34320000  0.87411000  0.90469000  1.0
  C  C134  1  0.30209000  0.88976000  0.93078000  1.0
  C  C135  1  0.30363000  0.91149000  0.96849000  1.0
  C  C136  1  0.34537000  0.91774000  0.97997000  1.0
  C  C137  1  0.38659000  0.90236000  0.95337000  1.0
  C  C138  1  0.38555000  0.88037000  0.91580000  1.0
  C  C139  1  0.34332000  0.84920000  0.86532000  1.0
  C  C140  1  0.53150000  0.88728000  0.98952000  1.0
  C  C141  1  0.56818000  0.90366000  0.00318000  1.0
  C  C142  1  0.57785000  0.94856000  0.98663000  1.0
  C  C143  1  0.54898000  0.97744000  0.95803000  1.0
  C  C144  1  0.46929000  0.89666000  0.93935000  1.0
  C  C145  1  0.48519000  0.99292000  0.90981000  1.0
  C  C146  1  0.51851000  0.84076000  0.01026000  1.0
  C  C147  1  0.61778000  0.96652000  0.99968000  1.0
  C  C148  1  0.59479000  0.87521000  0.03890000  1.0
  C  C149  1  0.51386000  0.96081000  0.94197000  1.0
  C  C150  1  0.63893000  0.81785000  0.16784000  1.0
  C  C151  1  0.62582000  0.83568000  0.12454000  1.0
  C  C152  1  0.57437000  0.89588000  0.15955000  1.0
  C  C153  1  0.66750000  0.77279000  0.17317000  1.0
  C  C154  1  0.55493000  0.02699000  0.94500000  1.0
  C  C155  1  0.59123000  0.07579000  0.88265000  1.0
  C  C156  1  0.62010000  0.08054000  0.84067000  1.0
  C  C157  1  0.62816000  0.12419000  0.81902000  1.0
  C  C158  1  0.60714000  0.16337000  0.83889000  1.0
  C  C159  1  0.57812000  0.15828000  0.88014000  1.0
  C  C160  1  0.57033000  0.11478000  0.90256000  1.0
  C  C161  1  0.65763000  0.12956000  0.77368000  1.0
  C  C162  1  0.01142000  0.71255000  0.80322000  1.0
  C  C163  1  0.01044000  0.72620000  0.84949000  1.0
  C  C164  1  0.05203000  0.72832000  0.86495000  1.0
  C  C165  1  0.05146000  0.73874000  0.90912000  1.0
  C  C166  1  0.00945000  0.74961000  0.93661000  1.0
  C  C167  1  0.96847000  0.74829000  0.92057000  1.0
  C  C168  1  0.96865000  0.73558000  0.87745000  1.0
  C  C169  1  0.59368000  0.87504000  0.12053000  1.0
  C  C170  1  0.13305000  0.71765000  0.90671000  1.0
  C  C171  1  0.16804000  0.70826000  0.93932000  1.0
  C  C172  1  0.20329000  0.73593000  0.93344000  1.0
  C  C173  1  0.20079000  0.77963000  0.89980000  1.0
  C  C174  1  0.24042000  0.72189000  0.95866000  1.0
  C  C175  1  0.24074000  0.68239000  0.99164000  1.0
  C  C176  1  0.28062000  0.66652000  0.01810000  1.0
  C  C177  1  0.16685000  0.67000000  0.97378000  1.0
  C  C178  1  0.12666000  0.64329000  0.98367000  1.0
  C  C179  1  0.24691000  0.54159000  0.04896000  1.0
  C  C180  1  0.28410000  0.50966000  0.03410000  1.0
  C  C181  1  0.29756000  0.47023000  0.06340000  1.0
  C  C182  1  0.27377000  0.46137000  0.10749000  1.0
  C  C183  1  0.23734000  0.49375000  0.12234000  1.0
  C  C184  1  0.22417000  0.53415000  0.09348000  1.0
  C  C185  1  0.28340000  0.74389000  0.94594000  1.0
  C  C186  1  0.33968000  0.76815000  0.98166000  1.0
  C  C187  1  0.37332000  0.75997000  0.94435000  1.0
  C  C188  1  0.43185000  0.77590000  0.98538000  1.0
  C  C189  1  0.39786000  0.78538000  0.02199000  1.0
  C  C190  1  0.41922000  0.76391000  0.94626000  1.0
  C  C191  1  0.35222000  0.78183000  0.02029000  1.0
  C  C192  1  0.20321000  0.65770000  0.00008000  1.0
  C  C193  1  0.45291000  0.75611000  0.90503000  1.0
  C  C194  1  0.20374000  0.61671000  0.03651000  1.0
  C  C195  1  0.50612000  0.91514000  0.95683000  1.0
  C  C196  1  0.62064000  0.83920000  0.20649000  1.0
  C  C197  1  0.58797000  0.87816000  0.20198000  1.0
  C  C198  1  0.21083000  0.48731000  0.16847000  1.0
  C  C199  1  0.15680000  0.59531000  0.62590000  1.0
  C  C200  1  0.19791000  0.56922000  0.61024000  1.0
  C  C201  1  0.19637000  0.53151000  0.58851000  1.0
  C  C202  1  0.15464000  0.52003000  0.58226000  1.0
  C  C203  1  0.11342000  0.54663000  0.59764000  1.0
  C  C204  1  0.11445000  0.58420000  0.61963000  1.0
  C  C205  1  0.15669000  0.63468000  0.65080000  1.0
  C  C206  1  0.96850000  0.51048000  0.61272000  1.0
  C  C207  1  0.93181000  0.49683000  0.59635000  1.0
  C  C208  1  0.92215000  0.51338000  0.55145000  1.0
  C  C209  1  0.95101000  0.54197000  0.52257000  1.0
  C  C210  1  0.03071000  0.56065000  0.60334000  1.0
  C  C211  1  0.01481000  0.59019000  0.50709000  1.0
  C  C212  1  0.98148000  0.48974000  0.65924000  1.0
  C  C213  1  0.88222000  0.50032000  0.53349000  1.0
  C  C214  1  0.90521000  0.46110000  0.62479000  1.0
  C  C215  1  0.98614000  0.55803000  0.53920000  1.0
  C  C216  1  0.86106000  0.33216000  0.68216000  1.0
  C  C217  1  0.87417000  0.37546000  0.66432000  1.0
  C  C218  1  0.92562000  0.34045000  0.60412000  1.0
  C  C219  1  0.83249000  0.32683000  0.72722000  1.0
  C  C220  1  0.94506000  0.55500000  0.47302000  1.0
  C  C221  1  0.90877000  0.61735000  0.42421000  1.0
  C  C222  1  0.87989000  0.65933000  0.41946000  1.0
  C  C223  1  0.87184000  0.68097000  0.37581000  1.0
  C  C224  1  0.89286000  0.66111000  0.33663000  1.0
  C  C225  1  0.92188000  0.61985000  0.34172000  1.0
  C  C226  1  0.92967000  0.59744000  0.38523000  1.0
  C  C227  1  0.84237000  0.72632000  0.37043000  1.0
  C  C228  1  0.48859000  0.69678000  0.78745000  1.0
  C  C229  1  0.48956000  0.65051000  0.77380000  1.0
  C  C230  1  0.44796000  0.63507000  0.77167000  1.0
  C  C231  1  0.44852000  0.59090000  0.76126000  1.0
  C  C232  1  0.49052000  0.56340000  0.75038000  1.0
  C  C233  1  0.53150000  0.57942000  0.75171000  1.0
  C  C234  1  0.53134000  0.62254000  0.76443000  1.0
  C  C235  1  0.90632000  0.37947000  0.62496000  1.0
  C  C236  1  0.36694000  0.59331000  0.78237000  1.0
  C  C237  1  0.33194000  0.56070000  0.79176000  1.0
  C  C238  1  0.29671000  0.56658000  0.76408000  1.0
  C  C239  1  0.29921000  0.60021000  0.72038000  1.0
  C  C240  1  0.25958000  0.54134000  0.77811000  1.0
  C  C241  1  0.25926000  0.50836000  0.81760000  1.0
  C  C242  1  0.21938000  0.48190000  0.83348000  1.0
  C  C243  1  0.33314000  0.52624000  0.83001000  1.0
  C  C244  1  0.37333000  0.51634000  0.85672000  1.0
  C  C245  1  0.25308000  0.45105000  0.95841000  1.0
  C  C246  1  0.21590000  0.46591000  0.99034000  1.0
  C  C247  1  0.20244000  0.43661000  0.02978000  1.0
  C  C248  1  0.22622000  0.39251000  0.03863000  1.0
  C  C249  1  0.26265000  0.37767000  0.00625000  1.0
  C  C250  1  0.27582000  0.40652000  0.96585000  1.0
  C  C251  1  0.21660000  0.55406000  0.75610000  1.0
  C  C252  1  0.16033000  0.51834000  0.73185000  1.0
  C  C253  1  0.12668000  0.55565000  0.74004000  1.0
  C  C254  1  0.06815000  0.51462000  0.72410000  1.0
  C  C255  1  0.10214000  0.47801000  0.71463000  1.0
  C  C256  1  0.08079000  0.55374000  0.73610000  1.0
  C  C257  1  0.14778000  0.47971000  0.71818000  1.0
  C  C258  1  0.29678000  0.49993000  0.84230000  1.0
  C  C259  1  0.04710000  0.59497000  0.74389000  1.0
  C  C260  1  0.29625000  0.46349000  0.88329000  1.0
  C  C261  1  0.99388000  0.54317000  0.58486000  1.0
  C  C262  1  0.87935000  0.29352000  0.66080000  1.0
  C  C263  1  0.91202000  0.29802000  0.62184000  1.0
  C  C264  1  0.28916000  0.33154000  0.01269000  1.0
  C  C265  1  0.59531000  0.62589000  0.15680000  1.0
  C  C266  1  0.56921000  0.61024000  0.19791000  1.0
  C  C267  1  0.53151000  0.58851000  0.19637000  1.0
  C  C268  1  0.52003000  0.58226000  0.15464000  1.0
  C  C269  1  0.54663000  0.59764000  0.11342000  1.0
  C  C270  1  0.58420000  0.61963000  0.11445000  1.0
  C  C271  1  0.63468000  0.65080000  0.15669000  1.0
  C  C272  1  0.51048000  0.61272000  0.96850000  1.0
  C  C273  1  0.49683000  0.59634000  0.93182000  1.0
  C  C274  1  0.51337000  0.55144000  0.92215000  1.0
  C  C275  1  0.54197000  0.52257000  0.95102000  1.0
  C  C276  1  0.56065000  0.60334000  0.03071000  1.0
  C  C277  1  0.59018000  0.50708000  0.01481000  1.0
  C  C278  1  0.48974000  0.65924000  0.98148000  1.0
  C  C279  1  0.50032000  0.53348000  0.88222000  1.0
  C  C280  1  0.46111000  0.62478000  0.90521000  1.0
  C  C281  1  0.55803000  0.53919000  0.98615000  1.0
  C  C282  1  0.33216000  0.68215000  0.86106000  1.0
  C  C283  1  0.37547000  0.66432000  0.87417000  1.0
  C  C284  1  0.34045000  0.60412000  0.92562000  1.0
  C  C285  1  0.32683000  0.72721000  0.83249000  1.0
  C  C286  1  0.55500000  0.47301000  0.94507000  1.0
  C  C287  1  0.61735000  0.42421000  0.90877000  1.0
  C  C288  1  0.65933000  0.41947000  0.87990000  1.0
  C  C289  1  0.68098000  0.37582000  0.87184000  1.0
  C  C290  1  0.66111000  0.33663000  0.89286000  1.0
  C  C291  1  0.61986000  0.34172000  0.92188000  1.0
  C  C292  1  0.59744000  0.38523000  0.92968000  1.0
  C  C293  1  0.72632000  0.37044000  0.84238000  1.0
  C  C294  1  0.69677000  0.78745000  0.48859000  1.0
  C  C295  1  0.65050000  0.77380000  0.48956000  1.0
  C  C296  1  0.63505000  0.77168000  0.44797000  1.0
  C  C297  1  0.59088000  0.76126000  0.44854000  1.0
  C  C298  1  0.56339000  0.75039000  0.49055000  1.0
  C  C299  1  0.57943000  0.75171000  0.53153000  1.0
  C  C300  1  0.62254000  0.76442000  0.53135000  1.0
  C  C301  1  0.37947000  0.62496000  0.90632000  1.0
  C  C302  1  0.59329000  0.78235000  0.36696000  1.0
  C  C303  1  0.56067000  0.79174000  0.33196000  1.0
  C  C304  1  0.56656000  0.76407000  0.29672000  1.0
  C  C305  1  0.60020000  0.72037000  0.29921000  1.0
  C  C306  1  0.54134000  0.77811000  0.25959000  1.0
  C  C307  1  0.50835000  0.81761000  0.25926000  1.0
  C  C308  1  0.48190000  0.83348000  0.21938000  1.0
  C  C309  1  0.52622000  0.83000000  0.33315000  1.0
  C  C310  1  0.51633000  0.85671000  0.37334000  1.0
  C  C311  1  0.45104000  0.95841000  0.25308000  1.0
  C  C312  1  0.46590000  0.99034000  0.21590000  1.0
  C  C313  1  0.43660000  0.02978000  0.20244000  1.0
  C  C314  1  0.39251000  0.03863000  0.22623000  1.0
  C  C315  1  0.37766000  0.00625000  0.26266000  1.0
  C  C316  1  0.40652000  0.96585000  0.27583000  1.0
  C  C317  1  0.55406000  0.75611000  0.21660000  1.0
  C  C318  1  0.51833000  0.73185000  0.16033000  1.0
  C  C319  1  0.55565000  0.74003000  0.12668000  1.0
  C  C320  1  0.51462000  0.72410000  0.06815000  1.0
  C  C321  1  0.47801000  0.71462000  0.10214000  1.0
  C  C322  1  0.55374000  0.73609000  0.08079000  1.0
  C  C323  1  0.47970000  0.71817000  0.14778000  1.0
  C  C324  1  0.49992000  0.84229000  0.29679000  1.0
  C  C325  1  0.59497000  0.74389000  0.04710000  1.0
  C  C326  1  0.46349000  0.88329000  0.29626000  1.0
  C  C327  1  0.54317000  0.58486000  0.99388000  1.0
  C  C328  1  0.29352000  0.66080000  0.87936000  1.0
  C  C329  1  0.29802000  0.62184000  0.91203000  1.0
  C  C330  1  0.33153000  0.01269000  0.28917000  1.0
  C  C331  1  0.62589000  0.15680000  0.59531000  1.0
  C  C332  1  0.61024000  0.19791000  0.56922000  1.0
  C  C333  1  0.58851000  0.19638000  0.53151000  1.0
  C  C334  1  0.58225000  0.15463000  0.52003000  1.0
  C  C335  1  0.59764000  0.11342000  0.54664000  1.0
  C  C336  1  0.61963000  0.11445000  0.58421000  1.0
  C  C337  1  0.65079000  0.15669000  0.63468000  1.0
  C  C338  1  0.61272000  0.96849000  0.51048000  1.0
  C  C339  1  0.59634000  0.93181000  0.49683000  1.0
  C  C340  1  0.55144000  0.92215000  0.51338000  1.0
  C  C341  1  0.52257000  0.95101000  0.54197000  1.0
  C  C342  1  0.60334000  0.03071000  0.56065000  1.0
  C  C343  1  0.50708000  0.01481000  0.59019000  1.0
  C  C344  1  0.65924000  0.98148000  0.48975000  1.0
  C  C345  1  0.53348000  0.88222000  0.50032000  1.0
  C  C346  1  0.62479000  0.90520000  0.46111000  1.0
  C  C347  1  0.53919000  0.98614000  0.55803000  1.0
  C  C348  1  0.68215000  0.86106000  0.33216000  1.0
  C  C349  1  0.66432000  0.87417000  0.37547000  1.0
  C  C350  1  0.60412000  0.92562000  0.34045000  1.0
  C  C351  1  0.72721000  0.83249000  0.32683000  1.0
  C  C352  1  0.47302000  0.94506000  0.55500000  1.0
  C  C353  1  0.42421000  0.90877000  0.61735000  1.0
  C  C354  1  0.41946000  0.87990000  0.65933000  1.0
  C  C355  1  0.37581000  0.87184000  0.68098000  1.0
  C  C356  1  0.33663000  0.89286000  0.66111000  1.0
  C  C357  1  0.34172000  0.92189000  0.61986000  1.0
  C  C358  1  0.38523000  0.92968000  0.59744000  1.0
  C  C359  1  0.37043000  0.84238000  0.72632000  1.0
  C  C360  1  0.78745000  0.48858000  0.69678000  1.0
  C  C361  1  0.77379000  0.48956000  0.65051000  1.0
  C  C362  1  0.77167000  0.44795000  0.63508000  1.0
  C  C363  1  0.76126000  0.44851000  0.59091000  1.0
  C  C364  1  0.75038000  0.49051000  0.56341000  1.0
  C  C365  1  0.75171000  0.53150000  0.57942000  1.0
  C  C366  1  0.76443000  0.53134000  0.62253000  1.0
  C  C367  1  0.62496000  0.90631000  0.37948000  1.0
  C  C368  1  0.78238000  0.36693000  0.59332000  1.0
  C  C369  1  0.79176000  0.33194000  0.56070000  1.0
  C  C370  1  0.76408000  0.29670000  0.56658000  1.0
  C  C371  1  0.72038000  0.29921000  0.60021000  1.0
  C  C372  1  0.77811000  0.25958000  0.54134000  1.0
  C  C373  1  0.81760000  0.25926000  0.50835000  1.0
  C  C374  1  0.83347000  0.21938000  0.48190000  1.0
  C  C375  1  0.83002000  0.33313000  0.52624000  1.0
  C  C376  1  0.85672000  0.37333000  0.51634000  1.0
  C  C377  1  0.95841000  0.25308000  0.45104000  1.0
  C  C378  1  0.99034000  0.21590000  0.46590000  1.0
  C  C379  1  0.02977000  0.20244000  0.43660000  1.0
  C  C380  1  0.03863000  0.22623000  0.39251000  1.0
  C  C381  1  0.00624000  0.26265000  0.37767000  1.0
  C  C382  1  0.96584000  0.27582000  0.40652000  1.0
  C  C383  1  0.75610000  0.21660000  0.55406000  1.0
  C  C384  1  0.73185000  0.16033000  0.51834000  1.0
  C  C385  1  0.74003000  0.12668000  0.55565000  1.0
  C  C386  1  0.72410000  0.06815000  0.51462000  1.0
  C  C387  1  0.71462000  0.10214000  0.47801000  1.0
  C  C388  1  0.73609000  0.08079000  0.55374000  1.0
  C  C389  1  0.71817000  0.14778000  0.47971000  1.0
  C  C390  1  0.84230000  0.29678000  0.49993000  1.0
  C  C391  1  0.74389000  0.04709000  0.59497000  1.0
  C  C392  1  0.88328000  0.29625000  0.46349000  1.0
  C  C393  1  0.58486000  0.99387000  0.54317000  1.0
  C  C394  1  0.66080000  0.87935000  0.29352000  1.0
  C  C395  1  0.62184000  0.91202000  0.29802000  1.0
  C  C396  1  0.01269000  0.28916000  0.33154000  1.0
  C  C397  1  0.09531000  0.65680000  0.12590000  1.0
  C  C398  1  0.06921000  0.69791000  0.11024000  1.0
  C  C399  1  0.03151000  0.69637000  0.08851000  1.0
  C  C400  1  0.02003000  0.65463000  0.08226000  1.0
  C  C401  1  0.04663000  0.61341000  0.09764000  1.0
  C  C402  1  0.08420000  0.61445000  0.11963000  1.0
  C  C403  1  0.13468000  0.65668000  0.15080000  1.0
  C  C404  1  0.01048000  0.46849000  0.11273000  1.0
  C  C405  1  0.99682000  0.43181000  0.09635000  1.0
  C  C406  1  0.01337000  0.42215000  0.05145000  1.0
  C  C407  1  0.04197000  0.45101000  0.02257000  1.0
  C  C408  1  0.06065000  0.53071000  0.10334000  1.0
  C  C409  1  0.09018000  0.51481000  0.00709000  1.0
  C  C410  1  0.98974000  0.48148000  0.15924000  1.0
  C  C411  1  0.00032000  0.38222000  0.03349000  1.0
  C  C412  1  0.96110000  0.40521000  0.12479000  1.0
  C  C413  1  0.05803000  0.48614000  0.03920000  1.0
  C  C414  1  0.83216000  0.36106000  0.18216000  1.0
  C  C415  1  0.87546000  0.37417000  0.16432000  1.0
  C  C416  1  0.84045000  0.42562000  0.10412000  1.0
  C  C417  1  0.82682000  0.33249000  0.22721000  1.0
  C  C418  1  0.05500000  0.44507000  0.97302000  1.0
  C  C419  1  0.11735000  0.40877000  0.92421000  1.0
  C  C420  1  0.15933000  0.37990000  0.91946000  1.0
  C  C421  1  0.18098000  0.37185000  0.87581000  1.0
  C  C422  1  0.16111000  0.39286000  0.83663000  1.0
  C  C423  1  0.11986000  0.42189000  0.84172000  1.0
  C  C424  1  0.09744000  0.42968000  0.88523000  1.0
  C  C425  1  0.22632000  0.34238000  0.87043000  1.0
  C  C426  1  0.19678000  0.98858000  0.28745000  1.0
  C  C427  1  0.15051000  0.98955000  0.27380000  1.0
  C  C428  1  0.13507000  0.94795000  0.27167000  1.0
  C  C429  1  0.09090000  0.94851000  0.26126000  1.0
  C  C430  1  0.06341000  0.99051000  0.25038000  1.0
  C  C431  1  0.07942000  0.03150000  0.25171000  1.0
  C  C432  1  0.12253000  0.03134000  0.26443000  1.0
  C  C433  1  0.87947000  0.40631000  0.12496000  1.0
  C  C434  1  0.09331000  0.86693000  0.28238000  1.0
  C  C435  1  0.06070000  0.83194000  0.29177000  1.0
  C  C436  1  0.06658000  0.79670000  0.26409000  1.0
  C  C437  1  0.10021000  0.79921000  0.22038000  1.0
  C  C438  1  0.04134000  0.75958000  0.27812000  1.0
  C  C439  1  0.00835000  0.75926000  0.31761000  1.0
  C  C440  1  0.98189000  0.71938000  0.33348000  1.0
  C  C441  1  0.02623000  0.83313000  0.33002000  1.0
  C  C442  1  0.01634000  0.87333000  0.35672000  1.0
  C  C443  1  0.95104000  0.75308000  0.45841000  1.0
  C  C444  1  0.96590000  0.71590000  0.49034000  1.0
  C  C445  1  0.93660000  0.70244000  0.52977000  1.0
  C  C446  1  0.89251000  0.72623000  0.53863000  1.0
  C  C447  1  0.87766000  0.76265000  0.50625000  1.0
  C  C448  1  0.90651000  0.77582000  0.46585000  1.0
  C  C449  1  0.05406000  0.71660000  0.25611000  1.0
  C  C450  1  0.01833000  0.66032000  0.23185000  1.0
  C  C451  1  0.05565000  0.62668000  0.24003000  1.0
  C  C452  1  0.01462000  0.56815000  0.22410000  1.0
  C  C453  1  0.97800000  0.60213000  0.21462000  1.0
  C  C454  1  0.05374000  0.58078000  0.23609000  1.0
  C  C455  1  0.97970000  0.64778000  0.21817000  1.0
  C  C456  1  0.99992000  0.79678000  0.34230000  1.0
  C  C457  1  0.09497000  0.54709000  0.24389000  1.0
  C  C458  1  0.96348000  0.79625000  0.38329000  1.0
  C  C459  1  0.04317000  0.49388000  0.08486000  1.0
  C  C460  1  0.79351000  0.37936000  0.16080000  1.0
  C  C461  1  0.79802000  0.41203000  0.12185000  1.0
  C  C462  1  0.83153000  0.78916000  0.51269000  1.0
  C  C463  1  0.12589000  0.09531000  0.65680000  1.0
  C  C464  1  0.11024000  0.06922000  0.69791000  1.0
  C  C465  1  0.08851000  0.03151000  0.69638000  1.0
  C  C466  1  0.08225000  0.02003000  0.65464000  1.0
  C  C467  1  0.09764000  0.04664000  0.61342000  1.0
  C  C468  1  0.11963000  0.08421000  0.61445000  1.0
  C  C469  1  0.15080000  0.13468000  0.65669000  1.0
  C  C470  1  0.11272000  0.01048000  0.46850000  1.0
  C  C471  1  0.09635000  0.99683000  0.43182000  1.0
  C  C472  1  0.05145000  0.01338000  0.42215000  1.0
  C  C473  1  0.02257000  0.04197000  0.45101000  1.0
  C  C474  1  0.10334000  0.06065000  0.53071000  1.0
  C  C475  1  0.00708000  0.09019000  0.51482000  1.0
  C  C476  1  0.15924000  0.98974000  0.48148000  1.0
  C  C477  1  0.03349000  0.00032000  0.38222000  1.0
  C  C478  1  0.12479000  0.96110000  0.40521000  1.0
  C  C479  1  0.03919000  0.05803000  0.48615000  1.0
  C  C480  1  0.18215000  0.83216000  0.36107000  1.0
  C  C481  1  0.16432000  0.87546000  0.37418000  1.0
  C  C482  1  0.10412000  0.84045000  0.42562000  1.0
  C  C483  1  0.22721000  0.82683000  0.33250000  1.0
  C  C484  1  0.97302000  0.05500000  0.44507000  1.0
  C  C485  1  0.92421000  0.11735000  0.40877000  1.0
  C  C486  1  0.91946000  0.15933000  0.37990000  1.0
  C  C487  1  0.87581000  0.18097000  0.37185000  1.0
  C  C488  1  0.83663000  0.16111000  0.39286000  1.0
  C  C489  1  0.84172000  0.11985000  0.42188000  1.0
  C  C490  1  0.88523000  0.09744000  0.42968000  1.0
  C  C491  1  0.87043000  0.22632000  0.34238000  1.0
  C  C492  1  0.28745000  0.19678000  0.98859000  1.0
  C  C493  1  0.27380000  0.15051000  0.98956000  1.0
  C  C494  1  0.27167000  0.13507000  0.94796000  1.0
  C  C495  1  0.26126000  0.09090000  0.94852000  1.0
  C  C496  1  0.25038000  0.06341000  0.99052000  1.0
  C  C497  1  0.25171000  0.07942000  0.03150000  1.0
  C  C498  1  0.26442000  0.12254000  0.03134000  1.0
  C  C499  1  0.12496000  0.87947000  0.40632000  1.0
  C  C500  1  0.28237000  0.09332000  0.86694000  1.0
  C  C501  1  0.29176000  0.06070000  0.83194000  1.0
  C  C502  1  0.26408000  0.06658000  0.79671000  1.0
  C  C503  1  0.22038000  0.10021000  0.79921000  1.0
  C  C504  1  0.27811000  0.04135000  0.75958000  1.0
  C  C505  1  0.31760000  0.00836000  0.75926000  1.0
  C  C506  1  0.33348000  0.98190000  0.71938000  1.0
  C  C507  1  0.33001000  0.02624000  0.83314000  1.0
  C  C508  1  0.35672000  0.01635000  0.87333000  1.0
  C  C509  1  0.45841000  0.95105000  0.75308000  1.0
  C  C510  1  0.49034000  0.96591000  0.71590000  1.0
  C  C511  1  0.52977000  0.93660000  0.70244000  1.0
  C  C512  1  0.53863000  0.89251000  0.72623000  1.0
  C  C513  1  0.50625000  0.87767000  0.76265000  1.0
  C  C514  1  0.46585000  0.90652000  0.77582000  1.0
  C  C515  1  0.25610000  0.05406000  0.71660000  1.0
  C  C516  1  0.23185000  0.01834000  0.66033000  1.0
  C  C517  1  0.24003000  0.05566000  0.62668000  1.0
  C  C518  1  0.22410000  0.01462000  0.56815000  1.0
  C  C519  1  0.21463000  0.97801000  0.60214000  1.0
  C  C520  1  0.23609000  0.05374000  0.58079000  1.0
  C  C521  1  0.21817000  0.97971000  0.64778000  1.0
  C  C522  1  0.34230000  0.99993000  0.79678000  1.0
  C  C523  1  0.24389000  0.09497000  0.54710000  1.0
  C  C524  1  0.38329000  0.96349000  0.79625000  1.0
  C  C525  1  0.08486000  0.04317000  0.49388000  1.0
  C  C526  1  0.16080000  0.79351000  0.37936000  1.0
  C  C527  1  0.12184000  0.79802000  0.41203000  1.0
  C  C528  1  0.51269000  0.83154000  0.78917000  1.0
  C  C529  1  0.65680000  0.12590000  0.09531000  1.0
  C  C530  1  0.69791000  0.11024000  0.06922000  1.0
  C  C531  1  0.69637000  0.08851000  0.03151000  1.0
  C  C532  1  0.65463000  0.08226000  0.02003000  1.0
  C  C533  1  0.61341000  0.09764000  0.04664000  1.0
  C  C534  1  0.61445000  0.11963000  0.08421000  1.0
  C  C535  1  0.65668000  0.15080000  0.13468000  1.0
  C  C536  1  0.46850000  0.11272000  0.01048000  1.0
  C  C537  1  0.43182000  0.09634000  0.99683000  1.0
  C  C538  1  0.42215000  0.05144000  0.01338000  1.0
  C  C539  1  0.45101000  0.02257000  0.04197000  1.0
  C  C540  1  0.53070000  0.10334000  0.06065000  1.0
  C  C541  1  0.51481000  0.00708000  0.09019000  1.0
  C  C542  1  0.48148000  0.15924000  0.98974000  1.0
  C  C543  1  0.38222000  0.03348000  0.00032000  1.0
  C  C544  1  0.40521000  0.12479000  0.96111000  1.0
  C  C545  1  0.48614000  0.03919000  0.05803000  1.0
  C  C546  1  0.36106000  0.18215000  0.83216000  1.0
  C  C547  1  0.37417000  0.16432000  0.87547000  1.0
  C  C548  1  0.42562000  0.10412000  0.84045000  1.0
  C  C549  1  0.33249000  0.22721000  0.82683000  1.0
  C  C550  1  0.44507000  0.97301000  0.05500000  1.0
  C  C551  1  0.40877000  0.92421000  0.11735000  1.0
  C  C552  1  0.37989000  0.91946000  0.15933000  1.0
  C  C553  1  0.37184000  0.87582000  0.18098000  1.0
  C  C554  1  0.39285000  0.83663000  0.16112000  1.0
  C  C555  1  0.42188000  0.84172000  0.11986000  1.0
  C  C556  1  0.42967000  0.88522000  0.09744000  1.0
  C  C557  1  0.34237000  0.87044000  0.22632000  1.0
  C  C558  1  0.98858000  0.28745000  0.19678000  1.0
  C  C559  1  0.98956000  0.27380000  0.15051000  1.0
  C  C560  1  0.94797000  0.27168000  0.13505000  1.0
  C  C561  1  0.94854000  0.26126000  0.09088000  1.0
  C  C562  1  0.99055000  0.25039000  0.06340000  1.0
  C  C563  1  0.03153000  0.25171000  0.07943000  1.0
  C  C564  1  0.03135000  0.26442000  0.12255000  1.0
  C  C565  1  0.40632000  0.12496000  0.87947000  1.0
  C  C566  1  0.86695000  0.28235000  0.09330000  1.0
  C  C567  1  0.83196000  0.29174000  0.06068000  1.0
  C  C568  1  0.79671000  0.26407000  0.06656000  1.0
  C  C569  1  0.79921000  0.22037000  0.10020000  1.0
  C  C570  1  0.75958000  0.27811000  0.04134000  1.0
  C  C571  1  0.75926000  0.31761000  0.00836000  1.0
  C  C572  1  0.71937000  0.33348000  0.98190000  1.0
  C  C573  1  0.83314000  0.33000000  0.02623000  1.0
  C  C574  1  0.87334000  0.35671000  0.01633000  1.0
  C  C575  1  0.75308000  0.45841000  0.95104000  1.0
  C  C576  1  0.71590000  0.49034000  0.96590000  1.0
  C  C577  1  0.70244000  0.52978000  0.93660000  1.0
  C  C578  1  0.72623000  0.53863000  0.89251000  1.0
  C  C579  1  0.76266000  0.50625000  0.87767000  1.0
  C  C580  1  0.77582000  0.46585000  0.90652000  1.0
  C  C581  1  0.71660000  0.25611000  0.05406000  1.0
  C  C582  1  0.66032000  0.23185000  0.01834000  1.0
  C  C583  1  0.62668000  0.24004000  0.05566000  1.0
  C  C584  1  0.56815000  0.22410000  0.01463000  1.0
  C  C585  1  0.60214000  0.21462000  0.97801000  1.0
  C  C586  1  0.58078000  0.23609000  0.05375000  1.0
  C  C587  1  0.64778000  0.21817000  0.97971000  1.0
  C  C588  1  0.79678000  0.34230000  0.99993000  1.0
  C  C589  1  0.54709000  0.24389000  0.09498000  1.0
  C  C590  1  0.79625000  0.38329000  0.96349000  1.0
  C  C591  1  0.49388000  0.08486000  0.04317000  1.0
  C  C592  1  0.37936000  0.16080000  0.79352000  1.0
  C  C593  1  0.41203000  0.12184000  0.79802000  1.0
  C  C594  1  0.78916000  0.51269000  0.83153000  1.0
  C  C595  1  0.84320000  0.40469000  0.37411000  1.0
  C  C596  1  0.80209000  0.43079000  0.38976000  1.0
  C  C597  1  0.80362000  0.46849000  0.41149000  1.0
  C  C598  1  0.84536000  0.47997000  0.41775000  1.0
  C  C599  1  0.88658000  0.45337000  0.40237000  1.0
  C  C600  1  0.88555000  0.41580000  0.38037000  1.0
  C  C601  1  0.84331000  0.36532000  0.34921000  1.0
  C  C602  1  0.03150000  0.48952000  0.38728000  1.0
  C  C603  1  0.06818000  0.50317000  0.40366000  1.0
  C  C604  1  0.07785000  0.48663000  0.44855000  1.0
  C  C605  1  0.04899000  0.45803000  0.47743000  1.0
  C  C606  1  0.96929000  0.43935000  0.39666000  1.0
  C  C607  1  0.98518000  0.40982000  0.49292000  1.0
  C  C608  1  0.01852000  0.51026000  0.34076000  1.0
  C  C609  1  0.11778000  0.49968000  0.46651000  1.0
  C  C610  1  0.09479000  0.53890000  0.37521000  1.0
  C  C611  1  0.01386000  0.44197000  0.46081000  1.0
  C  C612  1  0.13893000  0.66784000  0.31785000  1.0
  C  C613  1  0.12582000  0.62454000  0.33568000  1.0
  C  C614  1  0.07438000  0.65955000  0.39588000  1.0
  C  C615  1  0.16750000  0.67317000  0.27279000  1.0
  C  C616  1  0.05494000  0.44500000  0.52698000  1.0
  C  C617  1  0.09123000  0.38265000  0.57579000  1.0
  C  C618  1  0.12010000  0.34067000  0.58054000  1.0
  C  C619  1  0.12816000  0.31903000  0.62419000  1.0
  C  C620  1  0.10714000  0.33889000  0.66337000  1.0
  C  C621  1  0.07812000  0.38015000  0.65828000  1.0
  C  C622  1  0.07032000  0.40256000  0.61477000  1.0
  C  C623  1  0.15762000  0.27368000  0.62957000  1.0
  C  C624  1  0.51141000  0.30322000  0.21256000  1.0
  C  C625  1  0.51044000  0.34949000  0.22620000  1.0
  C  C626  1  0.55204000  0.36493000  0.22833000  1.0
  C  C627  1  0.55148000  0.40910000  0.23875000  1.0
  C  C628  1  0.50948000  0.43660000  0.24962000  1.0
  C  C629  1  0.46850000  0.42058000  0.24829000  1.0
  C  C630  1  0.46866000  0.37747000  0.23557000  1.0
  C  C631  1  0.09368000  0.62053000  0.37504000  1.0
  C  C632  1  0.63306000  0.40669000  0.21763000  1.0
  C  C633  1  0.66805000  0.43931000  0.20824000  1.0
  C  C634  1  0.70329000  0.43342000  0.23592000  1.0
  C  C635  1  0.70079000  0.39979000  0.27962000  1.0
  C  C636  1  0.74041000  0.45866000  0.22189000  1.0
  C  C637  1  0.74074000  0.49164000  0.18240000  1.0
  C  C638  1  0.78062000  0.51810000  0.16653000  1.0
  C  C639  1  0.66686000  0.47376000  0.16999000  1.0
  C  C640  1  0.62666000  0.48366000  0.14329000  1.0
  C  C641  1  0.74691000  0.54895000  0.04159000  1.0
  C  C642  1  0.78410000  0.53409000  0.00966000  1.0
  C  C643  1  0.79756000  0.56340000  0.97023000  1.0
  C  C644  1  0.77377000  0.60749000  0.96137000  1.0
  C  C645  1  0.73735000  0.62233000  0.99375000  1.0
  C  C646  1  0.72417000  0.59348000  0.03415000  1.0
  C  C647  1  0.78340000  0.44594000  0.24390000  1.0
  C  C648  1  0.83967000  0.48166000  0.26815000  1.0
  C  C649  1  0.87331000  0.44435000  0.25997000  1.0
  C  C650  1  0.93185000  0.48538000  0.27590000  1.0
  C  C651  1  0.89786000  0.52199000  0.28538000  1.0
  C  C652  1  0.91921000  0.44626000  0.26391000  1.0
  C  C653  1  0.85222000  0.52029000  0.28183000  1.0
  C  C654  1  0.70322000  0.50007000  0.15771000  1.0
  C  C655  1  0.95290000  0.40503000  0.25611000  1.0
  C  C656  1  0.70374000  0.53651000  0.11672000  1.0
  C  C657  1  0.00612000  0.45683000  0.41514000  1.0
  C  C658  1  0.12064000  0.70649000  0.33920000  1.0
  C  C659  1  0.08797000  0.70198000  0.37816000  1.0
  C  C660  1  0.71084000  0.66846000  0.98731000  1.0
  C  C661  1  0.40469000  0.37411000  0.84320000  1.0
  C  C662  1  0.43078000  0.38976000  0.80209000  1.0
  C  C663  1  0.46849000  0.41149000  0.80363000  1.0
  C  C664  1  0.47997000  0.41775000  0.84537000  1.0
  C  C665  1  0.45337000  0.40237000  0.88658000  1.0
  C  C666  1  0.41580000  0.38037000  0.88555000  1.0
  C  C667  1  0.36532000  0.34921000  0.84332000  1.0
  C  C668  1  0.48952000  0.38728000  0.03150000  1.0
  C  C669  1  0.50317000  0.40366000  0.06818000  1.0
  C  C670  1  0.48662000  0.44856000  0.07785000  1.0
  C  C671  1  0.45803000  0.47744000  0.04899000  1.0
  C  C672  1  0.43935000  0.39666000  0.96929000  1.0
  C  C673  1  0.40981000  0.49292000  0.98519000  1.0
  C  C674  1  0.51025000  0.34076000  0.01852000  1.0
  C  C675  1  0.49968000  0.46652000  0.11778000  1.0
  C  C676  1  0.53889000  0.37522000  0.09479000  1.0
  C  C677  1  0.44197000  0.46081000  0.01386000  1.0
  C  C678  1  0.66784000  0.31785000  0.13894000  1.0
  C  C679  1  0.62453000  0.33568000  0.12583000  1.0
  C  C680  1  0.65955000  0.39588000  0.07438000  1.0
  C  C681  1  0.67317000  0.27279000  0.16751000  1.0
  C  C682  1  0.44500000  0.52699000  0.05493000  1.0
  C  C683  1  0.38265000  0.57579000  0.09123000  1.0
  C  C684  1  0.34067000  0.58053000  0.12011000  1.0
  C  C685  1  0.31902000  0.62418000  0.12816000  1.0
  C  C686  1  0.33888000  0.66337000  0.10715000  1.0
  C  C687  1  0.38014000  0.65828000  0.07812000  1.0
  C  C688  1  0.40256000  0.61478000  0.07033000  1.0
  C  C689  1  0.27368000  0.62956000  0.15763000  1.0
  C  C690  1  0.30322000  0.21255000  0.51142000  1.0
  C  C691  1  0.34949000  0.22620000  0.51044000  1.0
  C  C692  1  0.36495000  0.22832000  0.55203000  1.0
  C  C693  1  0.40912000  0.23874000  0.55146000  1.0
  C  C694  1  0.43661000  0.24962000  0.50945000  1.0
  C  C695  1  0.42057000  0.24829000  0.46847000  1.0
  C  C696  1  0.37745000  0.23558000  0.46865000  1.0
  C  C697  1  0.62052000  0.37504000  0.09369000  1.0
  C  C698  1  0.40670000  0.21765000  0.63305000  1.0
  C  C699  1  0.43932000  0.20826000  0.66804000  1.0
  C  C700  1  0.43344000  0.23593000  0.70329000  1.0
  C  C701  1  0.39980000  0.27963000  0.70079000  1.0
  C  C702  1  0.45866000  0.22189000  0.74042000  1.0
  C  C703  1  0.49164000  0.18240000  0.74074000  1.0
  C  C704  1  0.51810000  0.16652000  0.78063000  1.0
  C  C705  1  0.47378000  0.17000000  0.66685000  1.0
  C  C706  1  0.48367000  0.14329000  0.62666000  1.0
  C  C707  1  0.54896000  0.04159000  0.74692000  1.0
  C  C708  1  0.53410000  0.00966000  0.78410000  1.0
  C  C709  1  0.56340000  0.97023000  0.79756000  1.0
  C  C710  1  0.60749000  0.96137000  0.77377000  1.0
  C  C711  1  0.62233000  0.99375000  0.73735000  1.0
  C  C712  1  0.59348000  0.03416000  0.72418000  1.0
  C  C713  1  0.44594000  0.24390000  0.78340000  1.0
  C  C714  1  0.48166000  0.26815000  0.83968000  1.0
  C  C715  1  0.44435000  0.25997000  0.87332000  1.0
  C  C716  1  0.48538000  0.27590000  0.93185000  1.0
  C  C717  1  0.52199000  0.28538000  0.89786000  1.0
  C  C718  1  0.44626000  0.26391000  0.91922000  1.0
  C  C719  1  0.52029000  0.28183000  0.85222000  1.0
  C  C720  1  0.50007000  0.15771000  0.70322000  1.0
  C  C721  1  0.40503000  0.25611000  0.95291000  1.0
  C  C722  1  0.53651000  0.11671000  0.70375000  1.0
  C  C723  1  0.45683000  0.41514000  0.00612000  1.0
  C  C724  1  0.70648000  0.33920000  0.12065000  1.0
  C  C725  1  0.70198000  0.37816000  0.08798000  1.0
  C  C726  1  0.66847000  0.98731000  0.71084000  1.0
  C  C727  1  0.37410000  0.84320000  0.40469000  1.0
  C  C728  1  0.38976000  0.80209000  0.43079000  1.0
  C  C729  1  0.41149000  0.80363000  0.46849000  1.0
  C  C730  1  0.41774000  0.84537000  0.47997000  1.0
  C  C731  1  0.40236000  0.88658000  0.45337000  1.0
  C  C732  1  0.38037000  0.88555000  0.41580000  1.0
  C  C733  1  0.34920000  0.84331000  0.36532000  1.0
  C  C734  1  0.38727000  0.03151000  0.48952000  1.0
  C  C735  1  0.40365000  0.06819000  0.50317000  1.0
  C  C736  1  0.44855000  0.07786000  0.48663000  1.0
  C  C737  1  0.47743000  0.04899000  0.45803000  1.0
  C  C738  1  0.39666000  0.96929000  0.43935000  1.0
  C  C739  1  0.49291000  0.98519000  0.40982000  1.0
  C  C740  1  0.34076000  0.01853000  0.51026000  1.0
  C  C741  1  0.46651000  0.11779000  0.49968000  1.0
  C  C742  1  0.37521000  0.09480000  0.53890000  1.0
  C  C743  1  0.46080000  0.01386000  0.44197000  1.0
  C  C744  1  0.31785000  0.13894000  0.66784000  1.0
  C  C745  1  0.33568000  0.12583000  0.62454000  1.0
  C  C746  1  0.39588000  0.07438000  0.65955000  1.0
  C  C747  1  0.27279000  0.16751000  0.67317000  1.0
  C  C748  1  0.52698000  0.05494000  0.44500000  1.0
  C  C749  1  0.57579000  0.09123000  0.38265000  1.0
  C  C750  1  0.58053000  0.12011000  0.34068000  1.0
  C  C751  1  0.62418000  0.12816000  0.31903000  1.0
  C  C752  1  0.66337000  0.10714000  0.33889000  1.0
  C  C753  1  0.65828000  0.07812000  0.38014000  1.0
  C  C754  1  0.61477000  0.07032000  0.40256000  1.0
  C  C755  1  0.62956000  0.15762000  0.27368000  1.0
  C  C756  1  0.21255000  0.51142000  0.30322000  1.0
  C  C757  1  0.22620000  0.51045000  0.34949000  1.0
  C  C758  1  0.22833000  0.55205000  0.36493000  1.0
  C  C759  1  0.23874000  0.55149000  0.40910000  1.0
  C  C760  1  0.24962000  0.50949000  0.43659000  1.0
  C  C761  1  0.24829000  0.46851000  0.42058000  1.0
  C  C762  1  0.23557000  0.46866000  0.37747000  1.0
  C  C763  1  0.37504000  0.09369000  0.62053000  1.0
  C  C764  1  0.21762000  0.63307000  0.40669000  1.0
  C  C765  1  0.20823000  0.66806000  0.43930000  1.0
  C  C766  1  0.23591000  0.70330000  0.43342000  1.0
  C  C767  1  0.27962000  0.70079000  0.39979000  1.0
  C  C768  1  0.22188000  0.74042000  0.45866000  1.0
  C  C769  1  0.18240000  0.74074000  0.49165000  1.0
  C  C770  1  0.16653000  0.78062000  0.51811000  1.0
  C  C771  1  0.16998000  0.66687000  0.47377000  1.0
  C  C772  1  0.14328000  0.62667000  0.48366000  1.0
  C  C773  1  0.04159000  0.74692000  0.54896000  1.0
  C  C774  1  0.00966000  0.78410000  0.53410000  1.0
  C  C775  1  0.97022000  0.79756000  0.56340000  1.0
  C  C776  1  0.96137000  0.77377000  0.60749000  1.0
  C  C777  1  0.99375000  0.73735000  0.62234000  1.0
  C  C778  1  0.03415000  0.72418000  0.59348000  1.0
  C  C779  1  0.24389000  0.78340000  0.44594000  1.0
  C  C780  1  0.26815000  0.83967000  0.48166000  1.0
  C  C781  1  0.25997000  0.87332000  0.44435000  1.0
  C  C782  1  0.27590000  0.93185000  0.48538000  1.0
  C  C783  1  0.28538000  0.89786000  0.52200000  1.0
  C  C784  1  0.26391000  0.91921000  0.44626000  1.0
  C  C785  1  0.28183000  0.85222000  0.52030000  1.0
  C  C786  1  0.15770000  0.70322000  0.50008000  1.0
  C  C787  1  0.25611000  0.95291000  0.40503000  1.0
  C  C788  1  0.11671000  0.70375000  0.53651000  1.0
  C  C789  1  0.41514000  0.00613000  0.45683000  1.0
  C  C790  1  0.33920000  0.12065000  0.70649000  1.0
  C  C791  1  0.37816000  0.08798000  0.70198000  1.0
  C  C792  1  0.98731000  0.71084000  0.66847000  1.0
  O  O1  1  0.87031000  0.43922000  0.74550000  1.0
  O  O2  1  0.90440000  0.49574000  0.75954000  1.0
  O  O3  1  0.98376000  0.29452000  0.76355000  1.0
  O  O4  1  0.01777000  0.23460000  0.57875000  1.0
  O  O5  1  0.18468000  0.18778000  0.52357000  1.0
  O  O6  1  0.84169000  0.38133000  0.83700000  1.0
  O  O7  1  0.85723000  0.30407000  0.84140000  1.0
  O  O8  1  0.92884000  0.08976000  0.73906000  1.0
  O  O9  1  0.77248000  0.04459000  0.72145000  1.0
  O  O10  1  0.79885000  0.97768000  0.69194000  1.0
  O  O11  1  0.96682000  0.42593000  0.91077000  1.0
  O  O12  1  0.08075000  0.57784000  0.89551000  1.0
  O  O13  1  0.90152000  0.58500000  0.03187000  1.0
  O  O14  1  0.75466000  0.65863000  0.17174000  1.0
  O  O15  1  0.75691000  0.67862000  0.09430000  1.0
  O  O16  1  0.13828000  0.68129000  0.75123000  1.0
  O  O17  1  0.21267000  0.67629000  0.75232000  1.0
  O  O18  1  0.19239000  0.20740000  0.44849000  1.0
  O  O19  1  0.74550000  0.87031000  0.43921000  1.0
  O  O20  1  0.75954000  0.90440000  0.49573000  1.0
  O  O21  1  0.76355000  0.98376000  0.29452000  1.0
  O  O22  1  0.57874000  0.01777000  0.23460000  1.0
  O  O23  1  0.52357000  0.18467000  0.18778000  1.0
  O  O24  1  0.83700000  0.84169000  0.38133000  1.0
  O  O25  1  0.84140000  0.85723000  0.30407000  1.0
  O  O26  1  0.73906000  0.92885000  0.08975000  1.0
  O  O27  1  0.72145000  0.77248000  0.04459000  1.0
  O  O28  1  0.69194000  0.79885000  0.97768000  1.0
  O  O29  1  0.91077000  0.96682000  0.42593000  1.0
  O  O30  1  0.89551000  0.08075000  0.57784000  1.0
  O  O31  1  0.03187000  0.90152000  0.58500000  1.0
  O  O32  1  0.17174000  0.75466000  0.65863000  1.0
  O  O33  1  0.09430000  0.75692000  0.67863000  1.0
  O  O34  1  0.75122000  0.13828000  0.68129000  1.0
  O  O35  1  0.75231000  0.21267000  0.67629000  1.0
  O  O36  1  0.44849000  0.19239000  0.20740000  1.0
  O  O37  1  0.43921000  0.74550000  0.87031000  1.0
  O  O38  1  0.49574000  0.75954000  0.90440000  1.0
  O  O39  1  0.29452000  0.76354000  0.98376000  1.0
  O  O40  1  0.23459000  0.57874000  0.01777000  1.0
  O  O41  1  0.18778000  0.52358000  0.18467000  1.0
  O  O42  1  0.38133000  0.83700000  0.84169000  1.0
  O  O43  1  0.30407000  0.84140000  0.85723000  1.0
  O  O44  1  0.08972000  0.73906000  0.92886000  1.0
  O  O45  1  0.04459000  0.72145000  0.77248000  1.0
  O  O46  1  0.97768000  0.69194000  0.79885000  1.0
  O  O47  1  0.42593000  0.91077000  0.96683000  1.0
  O  O48  1  0.57784000  0.89551000  0.08075000  1.0
  O  O49  1  0.58500000  0.03187000  0.90153000  1.0
  O  O50  1  0.65863000  0.17174000  0.75466000  1.0
  O  O51  1  0.67863000  0.09430000  0.75692000  1.0
  O  O52  1  0.68129000  0.75123000  0.13828000  1.0
  O  O53  1  0.67629000  0.75231000  0.21267000  1.0
  O  O54  1  0.20739000  0.44850000  0.19240000  1.0
  O  O55  1  0.06079000  0.62969000  0.75450000  1.0
  O  O56  1  0.00427000  0.59560000  0.74046000  1.0
  O  O57  1  0.20548000  0.51624000  0.73645000  1.0
  O  O58  1  0.26541000  0.48223000  0.92125000  1.0
  O  O59  1  0.31222000  0.31533000  0.97642000  1.0
  O  O60  1  0.11868000  0.65831000  0.66300000  1.0
  O  O61  1  0.19593000  0.64277000  0.65860000  1.0
  O  O62  1  0.41025000  0.57115000  0.76094000  1.0
  O  O63  1  0.45541000  0.72752000  0.77855000  1.0
  O  O64  1  0.52232000  0.70115000  0.80806000  1.0
  O  O65  1  0.07407000  0.53318000  0.58923000  1.0
  O  O66  1  0.92216000  0.41925000  0.60449000  1.0
  O  O67  1  0.91500000  0.59848000  0.46813000  1.0
  O  O68  1  0.84137000  0.74534000  0.32826000  1.0
  O  O69  1  0.82137000  0.74308000  0.40570000  1.0
  O  O70  1  0.81871000  0.36172000  0.74878000  1.0
  O  O71  1  0.82371000  0.28734000  0.74769000  1.0
  O  O72  1  0.29260000  0.30761000  0.05151000  1.0
  O  O73  1  0.62969000  0.75450000  0.06079000  1.0
  O  O74  1  0.59560000  0.74046000  0.00427000  1.0
  O  O75  1  0.51624000  0.73646000  0.20548000  1.0
  O  O76  1  0.48223000  0.92126000  0.26541000  1.0
  O  O77  1  0.31533000  0.97642000  0.31222000  1.0
  O  O78  1  0.65831000  0.66300000  0.11867000  1.0
  O  O79  1  0.64277000  0.65860000  0.19593000  1.0
  O  O80  1  0.57113000  0.76094000  0.41028000  1.0
  O  O81  1  0.72751000  0.77855000  0.45542000  1.0
  O  O82  1  0.70115000  0.80806000  0.52232000  1.0
  O  O83  1  0.53317000  0.58923000  0.07407000  1.0
  O  O84  1  0.41925000  0.60449000  0.92216000  1.0
  O  O85  1  0.59847000  0.46813000  0.91500000  1.0
  O  O86  1  0.74534000  0.32827000  0.84137000  1.0
  O  O87  1  0.74308000  0.40570000  0.82138000  1.0
  O  O88  1  0.36173000  0.74876000  0.81871000  1.0
  O  O89  1  0.28734000  0.74769000  0.82371000  1.0
  O  O90  1  0.30761000  0.05151000  0.29261000  1.0
  O  O91  1  0.75450000  0.06079000  0.62969000  1.0
  O  O92  1  0.74046000  0.00427000  0.59560000  1.0
  O  O93  1  0.73645000  0.20548000  0.51624000  1.0
  O  O94  1  0.92125000  0.26541000  0.48223000  1.0
  O  O95  1  0.97642000  0.31222000  0.31532000  1.0
  O  O96  1  0.66300000  0.11868000  0.65831000  1.0
  O  O97  1  0.65860000  0.19593000  0.64277000  1.0
  O  O98  1  0.76094000  0.41025000  0.57116000  1.0
  O  O99  1  0.77855000  0.45541000  0.72752000  1.0
  O  O100  1  0.80806000  0.52232000  0.70115000  1.0
  O  O101  1  0.58923000  0.07407000  0.53318000  1.0
  O  O102  1  0.60449000  0.92216000  0.41926000  1.0
  O  O103  1  0.46813000  0.91500000  0.59848000  1.0
  O  O104  1  0.32826000  0.84137000  0.74534000  1.0
  O  O105  1  0.40570000  0.82137000  0.74308000  1.0
  O  O106  1  0.74877000  0.81871000  0.36172000  1.0
  O  O107  1  0.74768000  0.82371000  0.28734000  1.0
  O  O108  1  0.05151000  0.29261000  0.30761000  1.0
  O  O109  1  0.12968000  0.56078000  0.25450000  1.0
  O  O110  1  0.09560000  0.50426000  0.24046000  1.0
  O  O111  1  0.01624000  0.70548000  0.23646000  1.0
  O  O112  1  0.98223000  0.76540000  0.42126000  1.0
  O  O113  1  0.81532000  0.81222000  0.47643000  1.0
  O  O114  1  0.15831000  0.61867000  0.16300000  1.0
  O  O115  1  0.14277000  0.69593000  0.15860000  1.0
  O  O116  1  0.07115000  0.91024000  0.26094000  1.0
  O  O117  1  0.22751000  0.95541000  0.27856000  1.0
  O  O118  1  0.20114000  0.02232000  0.30806000  1.0
  O  O119  1  0.03317000  0.57407000  0.08923000  1.0
  O  O120  1  0.91925000  0.42216000  0.10449000  1.0
  O  O121  1  0.09848000  0.41500000  0.96813000  1.0
  O  O122  1  0.24534000  0.34137000  0.82826000  1.0
  O  O123  1  0.24308000  0.32138000  0.90570000  1.0
  O  O124  1  0.86172000  0.31871000  0.24878000  1.0
  O  O125  1  0.78733000  0.32371000  0.24769000  1.0
  O  O126  1  0.80761000  0.79261000  0.55151000  1.0
  O  O127  1  0.25450000  0.12969000  0.56079000  1.0
  O  O128  1  0.24046000  0.09560000  0.50427000  1.0
  O  O129  1  0.23645000  0.01624000  0.70548000  1.0
  O  O130  1  0.42125000  0.98223000  0.76541000  1.0
  O  O131  1  0.47642000  0.81533000  0.81222000  1.0
  O  O132  1  0.16300000  0.15831000  0.61868000  1.0
  O  O133  1  0.15860000  0.14277000  0.69593000  1.0
  O  O134  1  0.26094000  0.07116000  0.91025000  1.0
  O  O135  1  0.27855000  0.22752000  0.95541000  1.0
  O  O136  1  0.30806000  0.20115000  0.02232000  1.0
  O  O137  1  0.08923000  0.03318000  0.57407000  1.0
  O  O138  1  0.10449000  0.91925000  0.42216000  1.0
  O  O139  1  0.96813000  0.09848000  0.41500000  1.0
  O  O140  1  0.82826000  0.24534000  0.34138000  1.0
  O  O141  1  0.90570000  0.24308000  0.32137000  1.0
  O  O142  1  0.24878000  0.86172000  0.31872000  1.0
  O  O143  1  0.24768000  0.78733000  0.32371000  1.0
  O  O144  1  0.55151000  0.80761000  0.79261000  1.0
  O  O145  1  0.56078000  0.25450000  0.12969000  1.0
  O  O146  1  0.50426000  0.24046000  0.09561000  1.0
  O  O147  1  0.70548000  0.23646000  0.01624000  1.0
  O  O148  1  0.76541000  0.42126000  0.98223000  1.0
  O  O149  1  0.81222000  0.47642000  0.81533000  1.0
  O  O150  1  0.61867000  0.16300000  0.15831000  1.0
  O  O151  1  0.69592000  0.15860000  0.14277000  1.0
  O  O152  1  0.91027000  0.26094000  0.07114000  1.0
  O  O153  1  0.95541000  0.27855000  0.22752000  1.0
  O  O154  1  0.02232000  0.30806000  0.20115000  1.0
  O  O155  1  0.57407000  0.08923000  0.03318000  1.0
  O  O156  1  0.42216000  0.10449000  0.91925000  1.0
  O  O157  1  0.41500000  0.96813000  0.09848000  1.0
  O  O158  1  0.34137000  0.82826000  0.24534000  1.0
  O  O159  1  0.32137000  0.90570000  0.24309000  1.0
  O  O160  1  0.31871000  0.24877000  0.86173000  1.0
  O  O161  1  0.32371000  0.24769000  0.78734000  1.0
  O  O162  1  0.79260000  0.55151000  0.80761000  1.0
  O  O163  1  0.93921000  0.37031000  0.24550000  1.0
  O  O164  1  0.99573000  0.40440000  0.25954000  1.0
  O  O165  1  0.79451000  0.48376000  0.26355000  1.0
  O  O166  1  0.73459000  0.51777000  0.07875000  1.0
  O  O167  1  0.68778000  0.68467000  0.02358000  1.0
  O  O168  1  0.88132000  0.34169000  0.33700000  1.0
  O  O169  1  0.80407000  0.35723000  0.34140000  1.0
  O  O170  1  0.58974000  0.42885000  0.23907000  1.0
  O  O171  1  0.54458000  0.27248000  0.22145000  1.0
  O  O172  1  0.47768000  0.29885000  0.19194000  1.0
  O  O173  1  0.92592000  0.46683000  0.41077000  1.0
  O  O174  1  0.07784000  0.58075000  0.39551000  1.0
  O  O175  1  0.08500000  0.40152000  0.53187000  1.0
  O  O176  1  0.15863000  0.25466000  0.67174000  1.0
  O  O177  1  0.17863000  0.25692000  0.59430000  1.0
  O  O178  1  0.18128000  0.63828000  0.25122000  1.0
  O  O179  1  0.17629000  0.71267000  0.25232000  1.0
  O  O180  1  0.70739000  0.69239000  0.94849000  1.0
  O  O181  1  0.37031000  0.24550000  0.93921000  1.0
  O  O182  1  0.40440000  0.25954000  0.99573000  1.0
  O  O183  1  0.48376000  0.26355000  0.79452000  1.0
  O  O184  1  0.51777000  0.07874000  0.73459000  1.0
  O  O185  1  0.68467000  0.02358000  0.68778000  1.0
  O  O186  1  0.34169000  0.33700000  0.88133000  1.0
  O  O187  1  0.35723000  0.34140000  0.80407000  1.0
  O  O188  1  0.42886000  0.23906000  0.58972000  1.0
  O  O189  1  0.27248000  0.22145000  0.54459000  1.0
  O  O190  1  0.29885000  0.19194000  0.47768000  1.0
  O  O191  1  0.46683000  0.41077000  0.92593000  1.0
  O  O192  1  0.58074000  0.39551000  0.07784000  1.0
  O  O193  1  0.40152000  0.53187000  0.08500000  1.0
  O  O194  1  0.25466000  0.67174000  0.15863000  1.0
  O  O195  1  0.25691000  0.59430000  0.17863000  1.0
  O  O196  1  0.63827000  0.25123000  0.18129000  1.0
  O  O197  1  0.71266000  0.25232000  0.17629000  1.0
  O  O198  1  0.69239000  0.94850000  0.70740000  1.0
  O  O199  1  0.24550000  0.93922000  0.37032000  1.0
  O  O200  1  0.25954000  0.99574000  0.40440000  1.0
  O  O201  1  0.26354000  0.79452000  0.48376000  1.0
  O  O202  1  0.07874000  0.73459000  0.51777000  1.0
  O  O203  1  0.02357000  0.68778000  0.68468000  1.0
  O  O204  1  0.33700000  0.88133000  0.34169000  1.0
  O  O205  1  0.34140000  0.80407000  0.35723000  1.0
  O  O206  1  0.23906000  0.58975000  0.42885000  1.0
  O  O207  1  0.22144000  0.54459000  0.27249000  1.0
  O  O208  1  0.19194000  0.47768000  0.29886000  1.0
  O  O209  1  0.41077000  0.92593000  0.46683000  1.0
  O  O210  1  0.39551000  0.07785000  0.58075000  1.0
  O  O211  1  0.53187000  0.08500000  0.40153000  1.0
  O  O212  1  0.67173000  0.15863000  0.25466000  1.0
  O  O213  1  0.59430000  0.17863000  0.25692000  1.0
  O  O214  1  0.25123000  0.18129000  0.63828000  1.0
  O  O215  1  0.25232000  0.17630000  0.71267000  1.0
  O  O216  1  0.94849000  0.70740000  0.69239000  1.0
