# generated using pymatgen
data_H24C41(N4O)2
_symmetry_space_group_name_H-M   'P 1'
_cell_length_a   32.23370000
_cell_length_b   70.10870000
_cell_length_c   70.10910000
_cell_angle_alpha   89.99970000
_cell_angle_beta   90.00000000
_cell_angle_gamma   89.99680000
_symmetry_Int_Tables_number   1
_chemical_formula_structural   H24C41(N4O)2
_chemical_formula_sum   'H384 C656 N128 O32'
_cell_volume   158436.94700585
_cell_formula_units_Z   16
loop_
 _symmetry_equiv_pos_site_id
 _symmetry_equiv_pos_as_xyz
  1  'x, y, z'
loop_
 _atom_site_type_symbol
 _atom_site_label
 _atom_site_symmetry_multiplicity
 _atom_site_fract_x
 _atom_site_fract_y
 _atom_site_fract_z
 _atom_site_occupancy
  H  25  1  0.00622100  0.72448100  0.05850300  1
  H  26  1  0.00291400  0.74277800  0.08713000  1
  H  27  1  0.00675800  0.75681600  0.11820000  1
  H  28  1  0.01088300  0.76611600  0.15078300  1
  H  29  1  0.01241900  0.70822200  0.16770400  1
  H  30  1  0.01450600  0.67373600  0.09080900  1
  H  31  1  0.91887100  0.69774900  0.13248200  1
  H  32  1  0.90107900  0.64081100  0.15093200  1
  H  33  1  0.97375500  0.63494300  0.14831500  1
  H  34  1  0.09992500  0.69839700  0.13225400  1
  H  35  1  0.04727500  0.63517000  0.14808200  1
  H  36  1  0.11977500  0.64153500  0.15054700  1
  H  66  1  0.00621500  0.27301500  0.94400900  1
  H  67  1  0.00283600  0.25472300  0.91537500  1
  H  68  1  0.00669200  0.24068800  0.88430400  1
  H  69  1  0.01079500  0.23139100  0.85172000  1
  H  70  1  0.01234700  0.28928800  0.83480600  1
  H  71  1  0.01446200  0.32376700  0.91170500  1
  H  72  1  0.91883100  0.29974600  0.87000900  1
  H  73  1  0.90100500  0.35668800  0.85157400  1
  H  74  1  0.97367400  0.36257100  0.85423000  1
  H  75  1  0.09987900  0.29911200  0.87024000  1
  H  76  1  0.04719400  0.36234700  0.85446000  1
  H  77  1  0.11970200  0.35598700  0.85198600  1
  H  107  1  0.00615900  0.94152000  0.72701000  1
  H  108  1  0.00282100  0.91287500  0.74528700  1
  H  109  1  0.00668300  0.88178000  0.75930700  1
  H  110  1  0.01074300  0.84918400  0.76857700  1
  H  111  1  0.01237000  0.83232400  0.71066900  1
  H  112  1  0.01441300  0.90924400  0.67623900  1
  H  113  1  0.91885600  0.86749200  0.70024900  1
  H  114  1  0.90103900  0.84912300  0.64328500  1
  H  115  1  0.97369300  0.85182900  0.63739300  1
  H  116  1  0.09987300  0.86773500  0.70087800  1
  H  117  1  0.04719800  0.85200200  0.63763200  1
  H  118  1  0.11969300  0.84949100  0.64400000  1
  H  148  1  0.00588900  0.05603600  0.27540700  1
  H  149  1  0.00255100  0.08470200  0.25715700  1
  H  150  1  0.00636400  0.11582300  0.24316400  1
  H  151  1  0.01041900  0.14843100  0.23393000  1
  H  152  1  0.01235900  0.16521800  0.29185600  1
  H  153  1  0.01444300  0.08826500  0.32619600  1
  H  154  1  0.91880000  0.13003500  0.30225000  1
  H  155  1  0.90102300  0.14834400  0.35923700  1
  H  156  1  0.97369300  0.14566500  0.36510200  1
  H  157  1  0.09979700  0.12980800  0.30157400  1
  H  158  1  0.04720100  0.14551500  0.36484000  1
  H  159  1  0.11967700  0.14804300  0.35845000  1
  H  189  1  0.00430400  0.72535400  0.94357600  1
  H  190  1  0.00588000  0.74343600  0.91483500  1
  H  191  1  0.00843900  0.75718700  0.88375800  1
  H  192  1  0.00946900  0.76629100  0.85097200  1
  H  193  1  0.01115600  0.70820000  0.83451800  1
  H  194  1  0.00818800  0.67412700  0.91180900  1
  H  195  1  0.10016900  0.69819600  0.87031500  1
  H  196  1  0.11892300  0.64125100  0.85205300  1
  H  197  1  0.04627500  0.63522800  0.85439300  1
  H  198  1  0.91911300  0.69838300  0.86985400  1
  H  199  1  0.97278400  0.63531700  0.85414200  1
  H  200  1  0.90023200  0.64149500  0.85145600  1
  H  230  1  0.00414800  0.27220300  0.05885800  1
  H  231  1  0.00569700  0.25409400  0.08758200  1
  H  232  1  0.00828100  0.24031100  0.11864600  1
  H  233  1  0.00933900  0.23117700  0.15142500  1
  H  234  1  0.01111500  0.28925200  0.16792900  1
  H  235  1  0.00817800  0.32339900  0.09067000  1
  H  236  1  0.10011700  0.29930200  0.13212600  1
  H  237  1  0.11885200  0.35625000  0.15038200  1
  H  238  1  0.04620200  0.36227400  0.14804300  1
  H  239  1  0.91903600  0.29911500  0.13258700  1
  H  240  1  0.97270300  0.36217300  0.14832200  1
  H  241  1  0.90015500  0.35600700  0.15098500  1
  H  271  1  0.00435600  0.94108400  0.27462100  1
  H  272  1  0.00592300  0.91233000  0.25656200  1
  H  273  1  0.00847900  0.88124200  0.24282800  1
  H  274  1  0.00950500  0.84844800  0.23374800  1
  H  275  1  0.01116000  0.83203600  0.29184900  1
  H  276  1  0.00818200  0.90935500  0.32587100  1
  H  277  1  0.10018400  0.86787700  0.30185600  1
  H  278  1  0.11888000  0.84963300  0.35881000  1
  H  279  1  0.04622200  0.85195600  0.36481300  1
  H  280  1  0.91911000  0.86740200  0.30161900  1
  H  281  1  0.97269700  0.85167400  0.36469600  1
  H  282  1  0.90016400  0.84896700  0.35849300  1
  H  312  1  0.00420400  0.05643900  0.72783300  1
  H  313  1  0.00573700  0.08518100  0.74591200  1
  H  314  1  0.00834300  0.11626700  0.75966400  1
  H  315  1  0.00938200  0.14905900  0.76875700  1
  H  316  1  0.01115000  0.16549200  0.71066200  1
  H  317  1  0.00820000  0.08819600  0.67660700  1
  H  318  1  0.10016100  0.12963400  0.70068100  1
  H  319  1  0.11898100  0.14793600  0.64375600  1
  H  320  1  0.04633700  0.14563500  0.63772000  1
  H  321  1  0.91906400  0.13010200  0.70082300  1
  H  322  1  0.97281800  0.14585000  0.63777700  1
  H  323  1  0.90025400  0.14852200  0.64393500  1
  H  353  1  0.50607600  0.22609200  0.55863000  1
  H  354  1  0.50282200  0.24403600  0.58751400  1
  H  355  1  0.50667500  0.25759600  0.61878600  1
  H  356  1  0.51076100  0.26642900  0.65150500  1
  H  357  1  0.51253800  0.20828500  0.66760900  1
  H  358  1  0.51454300  0.17496100  0.59027100  1
  H  359  1  0.42039900  0.19858300  0.63606200  1
  H  360  1  0.40213500  0.13995700  0.64748900  1
  H  361  1  0.47356700  0.13384300  0.64156300  1
  H  362  1  0.59860100  0.19902000  0.63600000  1
  H  363  1  0.54685300  0.13398800  0.64128900  1
  H  364  1  0.61815200  0.14040400  0.64719000  1
  H  394  1  0.50625900  0.77141100  0.44388100  1
  H  395  1  0.50296500  0.75347400  0.41499100  1
  H  396  1  0.50686700  0.73991800  0.38372300  1
  H  397  1  0.51091000  0.73108500  0.35100600  1
  H  398  1  0.51252900  0.78922900  0.33489600  1
  H  399  1  0.51457700  0.82255500  0.41224700  1
  H  400  1  0.42049200  0.79896000  0.36637400  1
  H  401  1  0.40234900  0.85760000  0.35494000  1
  H  402  1  0.47377200  0.86368900  0.36095700  1
  H  403  1  0.59868700  0.79846100  0.36657400  1
  H  404  1  0.54705800  0.86350800  0.36123500  1
  H  405  1  0.61838700  0.85706300  0.35539500  1
  H  435  1  0.50605800  0.44137300  0.22864500  1
  H  436  1  0.50276300  0.41247400  0.24656700  1
  H  437  1  0.50667200  0.38119000  0.26010600  1
  H  438  1  0.51069300  0.34846500  0.26891700  1
  H  439  1  0.51242400  0.33240000  0.21076500  1
  H  440  1  0.51444000  0.40976500  0.17748800  1
  H  441  1  0.42045500  0.36372900  0.20105100  1
  H  442  1  0.40227500  0.35263500  0.14234600  1
  H  443  1  0.47363800  0.35879800  0.13626300  1
  H  444  1  0.59845200  0.36385300  0.20154100  1
  H  445  1  0.54689400  0.35896500  0.13645700  1
  H  446  1  0.61813000  0.35292100  0.14289600  1
  H  476  1  0.50628400  0.55605800  0.77389900  1
  H  477  1  0.50305800  0.58493900  0.75594800  1
  H  478  1  0.50704700  0.61619500  0.74238300  1
  H  479  1  0.51099000  0.64890800  0.73353400  1
  H  480  1  0.51239000  0.66505100  0.79166700  1
  H  481  1  0.51453000  0.58771400  0.82503400  1
  H  482  1  0.42058200  0.63377700  0.80139700  1
  H  483  1  0.40232800  0.64493700  0.86008200  1
  H  484  1  0.47368800  0.63879500  0.86618600  1
  H  485  1  0.59855700  0.63361700  0.80095500  1
  H  486  1  0.54691900  0.63862900  0.86601200  1
  H  487  1  0.61813900  0.64466300  0.85958200  1
  H  517  1  0.50451300  0.22674300  0.44354400  1
  H  518  1  0.50626200  0.24456100  0.41459500  1
  H  519  1  0.50869800  0.25791000  0.38333100  1
  H  520  1  0.50977400  0.26661300  0.35043300  1
  H  521  1  0.51101500  0.20831000  0.33467100  1
  H  522  1  0.50754100  0.17522000  0.41228000  1
  H  523  1  0.59854800  0.19894500  0.36664800  1
  H  524  1  0.61746600  0.14032200  0.35535500  1
  H  525  1  0.54599400  0.13410500  0.36105900  1
  H  526  1  0.42038600  0.19906100  0.36616800  1
  H  527  1  0.47273500  0.13415000  0.36083100  1
  H  528  1  0.40140600  0.14045600  0.35479800  1
  H  558  1  0.50470500  0.77074000  0.55902200  1
  H  559  1  0.50641400  0.75294500  0.58798500  1
  H  560  1  0.50879100  0.73961400  0.61926300  1
  H  561  1  0.50979900  0.73093600  0.65216900  1
  H  562  1  0.51093800  0.78925100  0.66788700  1
  H  563  1  0.50763400  0.82228600  0.59025200  1
  H  564  1  0.59863500  0.79858900  0.63573400  1
  H  565  1  0.61754700  0.85719600  0.64713200  1
  H  566  1  0.54603800  0.86342100  0.64150900  1
  H  567  1  0.42037700  0.79846500  0.63628900  1
  H  568  1  0.47272000  0.86335600  0.64179600  1
  H  569  1  0.40137500  0.85705000  0.64775400  1
  H  599  1  0.50449700  0.44101800  0.77327200  1
  H  600  1  0.50629000  0.41207300  0.75545500  1
  H  601  1  0.50874100  0.38081700  0.74210200  1
  H  602  1  0.50980800  0.34792000  0.73339400  1
  H  603  1  0.51101200  0.33214900  0.79169600  1
  H  604  1  0.50748800  0.40975200  0.82479600  1
  H  605  1  0.59861600  0.36427200  0.80107400  1
  H  606  1  0.61755000  0.35296100  0.85969700  1
  H  607  1  0.54605000  0.35857400  0.86591000  1
  H  608  1  0.42032100  0.36374500  0.80095600  1
  H  609  1  0.47269800  0.35832900  0.86586500  1
  H  610  1  0.40136000  0.35233000  0.85956500  1
  H  640  1  0.50462700  0.55648700  0.22920400  1
  H  641  1  0.50639000  0.58542800  0.24702600  1
  H  642  1  0.50883400  0.61668500  0.26038600  1
  H  643  1  0.50988600  0.64958000  0.26910100  1
  H  644  1  0.51107100  0.66536200  0.21080300  1
  H  645  1  0.50755300  0.58776300  0.17768700  1
  H  646  1  0.59869400  0.63320300  0.20140900  1
  H  647  1  0.61758400  0.64460300  0.14280600  1
  H  648  1  0.54608400  0.63903700  0.13659800  1
  H  649  1  0.42034300  0.63372800  0.20153500  1
  H  650  1  0.47276900  0.63924100  0.13663400  1
  H  651  1  0.40140900  0.64520900  0.14293600  1
  H  663  1  0.99637700  0.79598400  0.19315300  1
  H  666  1  0.98928800  0.75319100  0.28259100  1
  H  667  1  0.96459000  0.74184100  0.26299000  1
  H  668  1  0.95731900  0.76657200  0.26713300  1
  H  671  1  0.01791400  0.79591100  0.26854200  1
  H  673  1  0.97016500  0.76443800  0.18038000  1
  H  680  1  0.99628100  0.20153300  0.80935500  1
  H  683  1  0.98924800  0.24424600  0.71989600  1
  H  684  1  0.96456600  0.25568600  0.73945000  1
  H  685  1  0.95721900  0.23094400  0.73539600  1
  H  688  1  0.01785500  0.20160100  0.73396700  1
  H  690  1  0.97006900  0.23308200  0.82212400  1
  H  697  1  0.99611000  0.80686000  0.79839000  1
  H  700  1  0.98917700  0.71776400  0.75413400  1
  H  701  1  0.96348000  0.73814200  0.74477600  1
  H  702  1  0.95839200  0.73209300  0.76923500  1
  H  705  1  0.01794000  0.73148700  0.79845200  1
  H  707  1  0.96997000  0.81955800  0.76683100  1
  H  714  1  0.99566000  0.19067900  0.20418900  1
  H  717  1  0.98746400  0.27855400  0.25095400  1
  H  718  1  0.96129300  0.25700800  0.25665400  1
  H  719  1  0.95969500  0.26626400  0.23309200  1
  H  722  1  0.01814400  0.26601000  0.20393200  1
  H  724  1  0.96958800  0.17810800  0.23582700  1
  H  731  1  0.49556600  0.29551000  0.69343400  1
  H  734  1  0.48738800  0.24907400  0.78149000  1
  H  735  1  0.46101500  0.24318200  0.76004600  1
  H  736  1  0.45961900  0.26683900  0.76905800  1
  H  739  1  0.51828100  0.29578900  0.76874200  1
  H  741  1  0.46879200  0.26373600  0.68106600  1
  H  748  1  0.49527400  0.70197500  0.30906100  1
  H  751  1  0.48781900  0.74859700  0.22108500  1
  H  752  1  0.46135900  0.75438800  0.24253300  1
  H  753  1  0.45995400  0.73077900  0.23339500  1
  H  756  1  0.51834000  0.70172900  0.23377600  1
  H  758  1  0.46883600  0.73375300  0.32149900  1
  H  765  1  0.49522700  0.30656200  0.29800200  1
  H  768  1  0.48759600  0.21857900  0.25139600  1
  H  769  1  0.46114500  0.24004600  0.24567000  1
  H  770  1  0.45981700  0.23086300  0.26926100  1
  H  773  1  0.51830300  0.23127200  0.29830000  1
  H  775  1  0.46865900  0.31893700  0.26623100  1
  H  782  1  0.49584500  0.69087200  0.70438500  1
  H  785  1  0.48931700  0.78047800  0.74678700  1
  H  786  1  0.46437800  0.76106100  0.75833700  1
  H  787  1  0.45718300  0.76495600  0.73356300  1
  H  790  1  0.51798900  0.76622300  0.70434000  1
  H  792  1  0.46892600  0.67838200  0.73606400  1
  H  799  1  0.76490500  0.62644900  0.16182000  1
  H  802  1  0.78908800  0.70657000  0.17862600  1
  H  803  1  0.74090500  0.71867800  0.17862300  1
  H  804  1  0.77987100  0.72490200  0.16182800  1
  H  807  1  0.82912300  0.69412400  0.14374000  1
  H  809  1  0.68448300  0.62826700  0.15760800  1
  H  816  1  0.76482400  0.37105300  0.84071000  1
  H  819  1  0.78908500  0.29092300  0.82388300  1
  H  820  1  0.74090800  0.27881100  0.82387200  1
  H  821  1  0.77984600  0.27259900  0.84068400  1
  H  824  1  0.82905500  0.30337400  0.85876900  1
  H  826  1  0.68442700  0.36923400  0.84488200  1
  H  833  1  0.76485500  0.83812800  0.62896200  1
  H  836  1  0.78908500  0.82150700  0.70917200  1
  H  837  1  0.74052000  0.82128600  0.72095100  1
  H  838  1  0.77908300  0.83812700  0.72757200  1
  H  841  1  0.82913300  0.85622200  0.69662600  1
  H  843  1  0.68443600  0.84242900  0.63081900  1
  H  850  1  0.76468500  0.15947600  0.37344400  1
  H  853  1  0.78950000  0.17587000  0.29336700  1
  H  854  1  0.74009200  0.17682300  0.28237800  1
  H  855  1  0.77760000  0.15998200  0.27458200  1
  H  858  1  0.82924100  0.14129600  0.30585200  1
  H  860  1  0.68443300  0.15519100  0.37162500  1
  H  867  1  0.25494300  0.62706300  0.84140400  1
  H  870  1  0.22927900  0.70687700  0.82416800  1
  H  871  1  0.27827900  0.71823100  0.82313100  1
  H  872  1  0.24061400  0.72577800  0.84000900  1
  H  875  1  0.19021700  0.69473400  0.85912500  1
  H  877  1  0.33507200  0.62888500  0.84525600  1
  H  884  1  0.25478900  0.37049300  0.16103400  1
  H  887  1  0.22931900  0.29068000  0.17830100  1
  H  888  1  0.27834700  0.27934800  0.17933700  1
  H  889  1  0.24068200  0.27177100  0.16247200  1
  H  892  1  0.19021600  0.30278400  0.14333200  1
  H  894  1  0.33504100  0.36863900  0.15714000  1
  H  901  1  0.25484500  0.83894600  0.37305500  1
  H  904  1  0.22942700  0.82172000  0.29323700  1
  H  905  1  0.27850300  0.82067600  0.28195000  1
  H  906  1  0.24085500  0.83752500  0.27431700  1
  H  909  1  0.19024500  0.85665500  0.30534200  1
  H  911  1  0.33514900  0.84294400  0.37113400  1
  H  918  1  0.25463200  0.15851800  0.62938600  1
  H  921  1  0.22984200  0.17601100  0.70927300  1
  H  922  1  0.27780100  0.17621000  0.72156100  1
  H  923  1  0.23892700  0.15935800  0.72775100  1
  H  926  1  0.19047100  0.14081000  0.69717300  1
  H  928  1  0.33493200  0.15468600  0.63118900  1
  H  935  1  0.25404900  0.37035000  0.84081900  1
  H  938  1  0.23019700  0.29025700  0.82385900  1
  H  939  1  0.27835300  0.27813000  0.82368500  1
  H  940  1  0.23967900  0.27192500  0.84062700  1
  H  943  1  0.19090600  0.30250300  0.85904300  1
  H  945  1  0.33447900  0.36874500  0.84457400  1
  H  952  1  0.25413600  0.62716700  0.16164400  1
  H  955  1  0.23021100  0.70727000  0.17862700  1
  H  956  1  0.27835600  0.71940400  0.17880700  1
  H  957  1  0.23969500  0.72559400  0.16185200  1
  H  960  1  0.19095100  0.69501700  0.14345900  1
  H  962  1  0.33455700  0.62879400  0.15789600  1
  H  969  1  0.25408200  0.15925800  0.37273800  1
  H  972  1  0.23006600  0.17603600  0.29256000  1
  H  973  1  0.27854800  0.17640800  0.28071700  1
  H  974  1  0.24022400  0.15942300  0.27417000  1
  H  977  1  0.19074700  0.14103200  0.30492500  1
  H  979  1  0.33438900  0.15544100  0.37111400  1
  H  986  1  0.25411600  0.83819300  0.62972500  1
  H  989  1  0.22986100  0.82161400  0.70976700  1
  H  990  1  0.27912400  0.82058300  0.72088300  1
  H  991  1  0.24173300  0.83755000  0.72851800  1
  H  994  1  0.19078800  0.85654500  0.69751200  1
  H  996  1  0.33437700  0.84201500  0.63129200  1
  H  1003  1  0.76513400  0.37038400  0.16208300  1
  H  1006  1  0.78915600  0.29026900  0.17854700  1
  H  1007  1  0.73996200  0.27907900  0.17941000  1
  H  1008  1  0.77756200  0.27160400  0.16246800  1
  H  1011  1  0.82858700  0.30261800  0.14377400  1
  H  1013  1  0.68494800  0.36884900  0.15804400  1
  H  1020  1  0.76526800  0.62710000  0.84035200  1
  H  1023  1  0.78907200  0.70723500  0.82395100  1
  H  1024  1  0.73983200  0.71838700  0.82311700  1
  H  1025  1  0.77744800  0.72589300  0.84003500  1
  H  1028  1  0.82863000  0.69487400  0.85869800  1
  H  1030  1  0.68497000  0.62865600  0.84446500  1
  H  1037  1  0.76524900  0.15959200  0.62950100  1
  H  1040  1  0.78903500  0.17602800  0.70962100  1
  H  1041  1  0.73976700  0.17689400  0.72074500  1
  H  1042  1  0.77735200  0.15998200  0.72830300  1
  H  1045  1  0.82859600  0.14127300  0.69729700  1
  H  1047  1  0.68487100  0.15548300  0.63107500  1
  H  1054  1  0.76547600  0.83797500  0.37305300  1
  H  1057  1  0.78863800  0.82125900  0.29286900  1
  H  1058  1  0.74043700  0.82122000  0.28078200  1
  H  1059  1  0.77923200  0.83811700  0.27461300  1
  H  1062  1  0.82836600  0.85628900  0.30518100  1
  H  1064  1  0.68510300  0.84200200  0.37152700  1
  H  1071  1  0.94613500  0.67579100  0.00979400  1
  H  1074  1  0.12491500  0.72553000  0.98716400  1
  H  1075  1  0.09280000  0.72616300  0.00773000  1
  H  1076  1  0.07059300  0.72748600  0.98460100  1
  H  1079  1  0.05493500  0.70057800  0.95942000  1
  H  1081  1  0.96453800  0.69560400  0.04095500  1
  H  1088  1  0.94606000  0.32167100  0.99269600  1
  H  1091  1  0.12489000  0.27202100  0.01534600  1
  H  1092  1  0.09278200  0.27136800  0.99477900  1
  H  1093  1  0.07056700  0.27007500  0.01790600  1
  H  1096  1  0.05494100  0.29697600  0.04306600  1
  H  1098  1  0.96455600  0.30183100  0.96155400  1
  H  1105  1  0.94596100  0.99024800  0.67839500  1
  H  1108  1  0.12517200  0.01293700  0.72789200  1
  H  1109  1  0.09323000  0.99231000  0.72867800  1
  H  1110  1  0.07085100  0.01539300  0.72996400  1
  H  1113  1  0.05485300  0.04054200  0.70312600  1
  H  1115  1  0.96441700  0.95905400  0.69815500  1
  H  1122  1  0.94588000  0.00729400  0.32398100  1
  H  1125  1  0.12498900  0.98482800  0.27456300  1
  H  1126  1  0.09260600  0.00530300  0.27395700  1
  H  1127  1  0.07071600  0.98211500  0.27265600  1
  H  1130  1  0.05498300  0.95696000  0.29940600  1
  H  1132  1  0.96413100  0.03853200  0.30448000  1
  H  1139  1  0.44546600  0.17779600  0.50966500  1
  H  1142  1  0.62625800  0.22582700  0.48680200  1
  H  1143  1  0.59371100  0.22701700  0.50719800  1
  H  1144  1  0.57207900  0.22803900  0.48394500  1
  H  1147  1  0.55574200  0.20117100  0.45923700  1
  H  1149  1  0.46401500  0.19692700  0.54096100  1
  H  1156  1  0.44546900  0.81970700  0.49286300  1
  H  1159  1  0.62630800  0.77165400  0.51563200  1
  H  1160  1  0.59375500  0.77050100  0.49523600  1
  H  1161  1  0.57213100  0.76942900  0.51848900  1
  H  1164  1  0.55575400  0.79625500  0.54326100  1
  H  1166  1  0.46419500  0.80047200  0.46155000  1
  H  1173  1  0.44533200  0.49033500  0.18024500  1
  H  1176  1  0.62611200  0.51311900  0.22836400  1
  H  1177  1  0.59352500  0.49273700  0.22952200  1
  H  1178  1  0.57193900  0.51599900  0.23057900  1
  H  1181  1  0.55568900  0.54073600  0.20366200  1
  H  1183  1  0.46399000  0.45904100  0.19954500  1
  H  1190  1  0.44548400  0.50718100  0.82241000  1
  H  1193  1  0.62616200  0.48407400  0.77413300  1
  H  1194  1  0.59409300  0.50462700  0.77283800  1
  H  1195  1  0.57192700  0.48147700  0.77178700  1
  H  1198  1  0.55562100  0.45671400  0.79883200  1
  H  1200  1  0.46400200  0.53846800  0.80304900  1
  C  1  1  0.04569300  0.68117800  0.13336200  1
  C  2  1  0.03142600  0.66294900  0.13831700  1
  C  3  1  0.98858100  0.66276100  0.13833800  1
  C  4  1  0.97368000  0.68090100  0.13349000  1
  C  5  1  0.93033400  0.68444100  0.13522700  1
  C  6  1  0.90335000  0.66972700  0.14177100  1
  C  7  1  0.91978000  0.65153200  0.14592400  1
  C  8  1  0.96232300  0.64794100  0.14433700  1
  C  9  1  0.05822800  0.64826600  0.14414100  1
  C  10  1  0.10065800  0.65214400  0.14562600  1
  C  11  1  0.11640300  0.67046800  0.14149400  1
  C  12  1  0.08892800  0.68500600  0.13498400  1
  C  13  1  0.00866900  0.69907200  0.10726500  1
  C  14  1  0.00594800  0.71894100  0.10576600  1
  C  15  1  0.00659900  0.72706400  0.12383500  1
  C  16  1  0.00878600  0.71280200  0.13780300  1
  C  17  1  0.00708600  0.74652800  0.12852400  1
  C  18  1  0.00928300  0.75185400  0.14775200  1
  C  19  1  0.00979300  0.73815400  0.16266500  1
  C  20  1  0.01052200  0.71845600  0.15736500  1
  C  21  1  0.01097500  0.68819600  0.09001600  1
  C  22  1  0.00894500  0.69721200  0.07171100  1
  C  23  1  0.00593200  0.71736700  0.07126300  1
  C  24  1  0.00429100  0.72824500  0.08802600  1
  C  37  1  0.00941800  0.69360400  0.12812800  1
  C  42  1  0.04564000  0.31633100  0.86914800  1
  C  43  1  0.03136300  0.33456200  0.86420200  1
  C  44  1  0.98851600  0.33474500  0.86417900  1
  C  45  1  0.97362800  0.31660100  0.86901700  1
  C  46  1  0.93027500  0.31306200  0.86729700  1
  C  47  1  0.90330700  0.32776100  0.86070200  1
  C  48  1  0.91971200  0.34596700  0.85657900  1
  C  49  1  0.96225100  0.34955900  0.85816700  1
  C  50  1  0.05815400  0.34924100  0.85836500  1
  C  51  1  0.10059000  0.34537300  0.85689700  1
  C  52  1  0.11635000  0.32705000  0.86102400  1
  C  53  1  0.08887600  0.31250600  0.86752000  1
  C  54  1  0.00863800  0.29843300  0.89524600  1
  C  55  1  0.00592900  0.27856100  0.89674400  1
  C  56  1  0.00655900  0.27044200  0.87867400  1
  C  57  1  0.00875500  0.28470400  0.86470700  1
  C  58  1  0.00703700  0.25097800  0.87398300  1
  C  59  1  0.00920800  0.24565300  0.85475300  1
  C  60  1  0.00971700  0.25935600  0.83984200  1
  C  61  1  0.01045700  0.27905300  0.84514500  1
  C  62  1  0.01095900  0.30930700  0.91249500  1
  C  63  1  0.00907200  0.30027700  0.93079700  1
  C  64  1  0.00594200  0.28012700  0.93124900  1
  C  65  1  0.00428800  0.26925500  0.91448200  1
  C  78  1  0.00937000  0.30390100  0.87438300  1
  C  83  1  0.04564900  0.86669400  0.68364600  1
  C  84  1  0.03138300  0.86181700  0.66539500  1
  C  85  1  0.98853400  0.86174000  0.66523400  1
  C  86  1  0.97364000  0.86655600  0.68338200  1
  C  87  1  0.93030000  0.86478400  0.68693300  1
  C  88  1  0.90333500  0.85820300  0.67222700  1
  C  89  1  0.91974000  0.85411000  0.65401500  1
  C  90  1  0.96227300  0.85573100  0.65041700  1
  C  91  1  0.05815900  0.85591200  0.65073600  1
  C  92  1  0.10058900  0.85441900  0.65460900  1
  C  93  1  0.11635000  0.85854500  0.67293200  1
  C  94  1  0.08887700  0.86503800  0.68747700  1
  C  95  1  0.00866500  0.89277000  0.70156800  1
  C  96  1  0.00594200  0.89425500  0.72144000  1
  C  97  1  0.00657100  0.87617800  0.72954900  1
  C  98  1  0.00877100  0.86222200  0.71527600  1
  C  99  1  0.00703100  0.87146700  0.74900700  1
  C  100  1  0.00917400  0.85223100  0.75431600  1
  C  101  1  0.00967000  0.83733000  0.74060300  1
  C  102  1  0.01046800  0.84265400  0.72091300  1
  C  103  1  0.01093600  0.91002700  0.69070200  1
  C  104  1  0.00903200  0.92832300  0.69973900  1
  C  105  1  0.00592000  0.92876300  0.71989100  1
  C  106  1  0.00429100  0.91199000  0.73075500  1
  C  119  1  0.00938200  0.87191200  0.69608500  1
  C  124  1  0.04560200  0.13081900  0.31882600  1
  C  125  1  0.03135800  0.13568800  0.33708300  1
  C  126  1  0.98850600  0.13575900  0.33725900  1
  C  127  1  0.97358700  0.13093200  0.31911700  1
  C  128  1  0.93025400  0.13272800  0.31557000  1
  C  129  1  0.90328800  0.13926500  0.33029200  1
  C  130  1  0.91971800  0.14336600  0.34849800  1
  C  131  1  0.96225700  0.14176000  0.35208300  1
  C  132  1  0.05815000  0.14158100  0.35174200  1
  C  133  1  0.10056700  0.14310400  0.34784800  1
  C  134  1  0.11630400  0.13899200  0.32951800  1
  C  135  1  0.08882000  0.13249400  0.31497900  1
  C  136  1  0.00857900  0.10476300  0.30088800  1
  C  137  1  0.00581400  0.10330000  0.28101500  1
  C  138  1  0.00639500  0.12138800  0.27292800  1
  C  139  1  0.00865900  0.13532700  0.28721500  1
  C  140  1  0.00676400  0.12612500  0.25347400  1
  C  141  1  0.00891100  0.14536700  0.24818800  1
  C  142  1  0.00951300  0.16025100  0.26191700  1
  C  143  1  0.01037800  0.15490300  0.28160100  1
  C  144  1  0.01089900  0.08749700  0.31173700  1
  C  145  1  0.00886400  0.06921100  0.30268700  1
  C  146  1  0.00570600  0.06878800  0.28253700  1
  C  147  1  0.00407400  0.08557300  0.27168800  1
  C  160  1  0.00932300  0.12561400  0.30639400  1
  C  165  1  0.97357500  0.68129900  0.86892000  1
  C  166  1  0.98812800  0.66309400  0.86407300  1
  C  167  1  0.03097500  0.66304600  0.86422400  1
  C  168  1  0.04560300  0.68119400  0.86923500  1
  C  169  1  0.08891500  0.68484700  0.86759300  1
  C  170  1  0.11615100  0.67018400  0.86114900  1
  C  171  1  0.10003200  0.65193000  0.85700600  1
  C  172  1  0.05749600  0.64825900  0.85838900  1
  C  173  1  0.96161200  0.64838700  0.85803500  1
  C  174  1  0.91913800  0.65214400  0.85645900  1
  C  175  1  0.90308000  0.67041000  0.86059700  1
  C  176  1  0.93032200  0.68502700  0.86713300  1
  C  177  1  0.00893200  0.69946500  0.89512000  1
  C  178  1  0.00847900  0.71938900  0.89645100  1
  C  179  1  0.00913700  0.72737300  0.87834300  1
  C  180  1  0.00990400  0.71296700  0.86448100  1
  C  181  1  0.00903500  0.74682200  0.87351700  1
  C  182  1  0.00965600  0.75203500  0.85423500  1
  C  183  1  0.01059900  0.73815900  0.83963400  1
  C  184  1  0.01072000  0.71845700  0.84486600  1
  C  185  1  0.00818800  0.68868500  0.91246600  1
  C  186  1  0.00784300  0.69792600  0.93068500  1
  C  187  1  0.00615300  0.71813500  0.93090300  1
  C  188  1  0.00688800  0.72889000  0.91407200  1
  C  201  1  0.00956300  0.69383800  0.87429800  1
  C  206  1  0.97349700  0.31619400  0.13354100  1
  C  207  1  0.98805700  0.33439700  0.13839400  1
  C  208  1  0.03089900  0.33444200  0.13825100  1
  C  209  1  0.04552400  0.31628200  0.13327300  1
  C  210  1  0.08885200  0.31264600  0.13486400  1
  C  211  1  0.11608300  0.32731100  0.14130800  1
  C  212  1  0.09994800  0.34555700  0.14547400  1
  C  213  1  0.05741400  0.34923100  0.14408000  1
  C  214  1  0.96152200  0.34911600  0.14438700  1
  C  215  1  0.91905700  0.34535500  0.14598700  1
  C  216  1  0.90300000  0.32708900  0.14185000  1
  C  217  1  0.93024400  0.31247000  0.13532500  1
  C  218  1  0.00887300  0.29804700  0.10733600  1
  C  219  1  0.00837400  0.27812400  0.10598800  1
  C  220  1  0.00901900  0.27012200  0.12408700  1
  C  221  1  0.00981100  0.28451300  0.13796400  1
  C  222  1  0.00889800  0.25066800  0.12889700  1
  C  223  1  0.00953300  0.24543800  0.14817600  1
  C  224  1  0.01051800  0.25929900  0.16279000  1
  C  225  1  0.01064600  0.27900400  0.15757400  1
  C  226  1  0.00814400  0.30884300  0.09000000  1
  C  227  1  0.00776300  0.29961600  0.07177300  1
  C  228  1  0.00601900  0.27940900  0.07153800  1
  C  229  1  0.00674200  0.26864000  0.08835900  1
  C  242  1  0.00949200  0.30365300  0.12816500  1
  C  247  1  0.97355600  0.86642300  0.31870800  1
  C  248  1  0.98809100  0.86158700  0.33692000  1
  C  249  1  0.03093100  0.86173900  0.33697700  1
  C  250  1  0.04557800  0.86673300  0.31882600  1
  C  251  1  0.08891100  0.86514300  0.31519900  1
  C  252  1  0.11613500  0.85870600  0.32986900  1
  C  253  1  0.09999000  0.85455300  0.34811700  1
  C  254  1  0.05744600  0.85592500  0.35177500  1
  C  255  1  0.96154400  0.85556500  0.35162300  1
  C  256  1  0.91908200  0.85396800  0.34784800  1
  C  257  1  0.90305500  0.85809300  0.32957400  1
  C  258  1  0.93029400  0.86468400  0.31498100  1
  C  259  1  0.00894500  0.89264600  0.30054800  1
  C  260  1  0.00850700  0.89396300  0.28062200  1
  C  261  1  0.00915600  0.87585000  0.27264700  1
  C  262  1  0.00991100  0.86199600  0.28705900  1
  C  263  1  0.00906600  0.87100900  0.25320200  1
  C  264  1  0.00968200  0.85172200  0.24800100  1
  C  265  1  0.01060100  0.83713000  0.26188800  1
  C  266  1  0.01072500  0.84237600  0.28158500  1
  C  267  1  0.00819100  0.91000200  0.31131500  1
  C  268  1  0.00786800  0.92821600  0.30205900  1
  C  269  1  0.00619900  0.92841700  0.28185100  1
  C  270  1  0.00694700  0.91157700  0.27110900  1
  C  283  1  0.00955700  0.87182300  0.30618300  1
  C  288  1  0.97357200  0.13112500  0.68377700  1
  C  289  1  0.98814700  0.13598500  0.66558100  1
  C  290  1  0.03098900  0.13580200  0.66553100  1
  C  291  1  0.04559400  0.13079500  0.68368600  1
  C  292  1  0.08891900  0.13237300  0.68733300  1
  C  293  1  0.11617300  0.13882100  0.67268000  1
  C  294  1  0.10007400  0.14298000  0.65442700  1
  C  295  1  0.05754300  0.14159500  0.65074000  1
  C  296  1  0.96163400  0.14195300  0.65084400  1
  C  297  1  0.91916600  0.14356100  0.65460100  1
  C  298  1  0.90308600  0.13942700  0.67286400  1
  C  299  1  0.93029700  0.13285500  0.68747700  1
  C  300  1  0.00890400  0.10488900  0.70194000  1
  C  301  1  0.00841700  0.10356100  0.72186500  1
  C  302  1  0.00907200  0.12167000  0.72984800  1
  C  303  1  0.00986800  0.13553100  0.71544200  1
  C  304  1  0.00895400  0.12650500  0.74929500  1
  C  305  1  0.00958100  0.14579000  0.75450200  1
  C  306  1  0.01053300  0.16038700  0.74062100  1
  C  307  1  0.01068700  0.15514800  0.72092300  1
  C  308  1  0.00817500  0.08754000  0.69116300  1
  C  309  1  0.00785000  0.06932000  0.70040600  1
  C  310  1  0.00608100  0.06910900  0.72061300  1
  C  311  1  0.00680700  0.08594100  0.73136600  1
  C  324  1  0.00954400  0.12571200  0.69631300  1
  C  329  1  0.54559100  0.18142200  0.63234000  1
  C  330  1  0.53133900  0.16264300  0.63441000  1
  C  331  1  0.48840200  0.16249100  0.63436500  1
  C  332  1  0.47378100  0.18121300  0.63242300  1
  C  333  1  0.43113300  0.18486900  0.63626700  1
  C  334  1  0.40393200  0.16969500  0.64144400  1
  C  335  1  0.42026800  0.15097800  0.64274800  1
  C  336  1  0.46219700  0.14724300  0.63921500  1
  C  337  1  0.55789800  0.14746400  0.63905200  1
  C  338  1  0.59974800  0.15137400  0.64254400  1
  C  339  1  0.61562300  0.17018200  0.64135300  1
  C  340  1  0.58816400  0.18525900  0.63616000  1
  C  341  1  0.50874700  0.20007700  0.60707500  1
  C  342  1  0.50597400  0.21995300  0.60583700  1
  C  343  1  0.50663800  0.22776500  0.62402300  1
  C  344  1  0.50887100  0.21328200  0.63778000  1
  C  345  1  0.50706600  0.24716400  0.62896300  1
  C  346  1  0.50925900  0.25221000  0.64825700  1
  C  347  1  0.50982700  0.23828200  0.66295200  1
  C  348  1  0.51061200  0.21865600  0.65740800  1
  C  349  1  0.51101800  0.18943200  0.58968900  1
  C  350  1  0.50893700  0.19868200  0.57152600  1
  C  351  1  0.50586200  0.21883600  0.57130900  1
  C  352  1  0.50425200  0.22949400  0.58821800  1
  C  365  1  0.50948600  0.19421700  0.62784000  1
  C  370  1  0.54569300  0.81607900  0.37018200  1
  C  371  1  0.53147500  0.83486100  0.36809700  1
  C  372  1  0.48853900  0.83502900  0.36812400  1
  C  373  1  0.47388600  0.81631200  0.37005700  1
  C  374  1  0.43122900  0.81267100  0.36621000  1
  C  375  1  0.40411800  0.82785300  0.36094000  1
  C  376  1  0.42043900  0.84657600  0.35971100  1
  C  377  1  0.46237700  0.85028200  0.36323600  1
  C  378  1  0.55806800  0.85001900  0.36343700  1
  C  379  1  0.59994400  0.84609900  0.36001800  1
  C  380  1  0.61580900  0.82729000  0.36124900  1
  C  381  1  0.58827600  0.81222700  0.36639800  1
  C  382  1  0.50881900  0.79744000  0.39543700  1
  C  383  1  0.50610700  0.77756100  0.39667400  1
  C  384  1  0.50676500  0.76975000  0.37848700  1
  C  385  1  0.50897100  0.78423200  0.36472800  1
  C  386  1  0.50723700  0.75035200  0.37354600  1
  C  387  1  0.50939600  0.74530400  0.35425200  1
  C  388  1  0.50988900  0.75923100  0.33955500  1
  C  389  1  0.51065800  0.77885800  0.34509900  1
  C  390  1  0.51109600  0.80808400  0.41282600  1
  C  391  1  0.50917900  0.79881900  0.43098600  1
  C  392  1  0.50603600  0.77866800  0.43120200  1
  C  393  1  0.50442600  0.76801600  0.41429100  1
  C  406  1  0.50956000  0.80329700  0.37467000  1
  C  411  1  0.54556000  0.36773100  0.18391500  1
  C  412  1  0.53137600  0.36585700  0.16510300  1
  C  413  1  0.48842400  0.36579700  0.16496300  1
  C  414  1  0.47377800  0.36761000  0.18369500  1
  C  415  1  0.43117300  0.36363900  0.18733400  1
  C  416  1  0.40406500  0.35843100  0.17213500  1
  C  417  1  0.42037100  0.35732300  0.15340300  1
  C  418  1  0.46226500  0.36096100  0.14969300  1
  C  419  1  0.55791300  0.36111000  0.14995200  1
  C  420  1  0.59973900  0.35756300  0.15387100  1
  C  421  1  0.61559200  0.35867200  0.17268800  1
  C  422  1  0.58808100  0.36380300  0.18776800  1
  C  423  1  0.50871900  0.39294300  0.20259700  1
  C  424  1  0.50597100  0.39416800  0.22247300  1
  C  425  1  0.50662200  0.37597600  0.23027100  1
  C  426  1  0.50884700  0.36222800  0.21578000  1
  C  427  1  0.50705700  0.37102100  0.24966500  1
  C  428  1  0.50920000  0.35172300  0.25470100  1
  C  429  1  0.50969400  0.33703400  0.24076500  1
  C  430  1  0.51052800  0.34259400  0.22114300  1
  C  431  1  0.51096900  0.41033600  0.19196000  1
  C  432  1  0.50902700  0.42848900  0.20123200  1
  C  433  1  0.50587100  0.42869900  0.22138200  1
  C  434  1  0.50426800  0.41178100  0.23202700  1
  C  447  1  0.50944500  0.37218100  0.19672100  1
  C  452  1  0.54564400  0.62975500  0.81856900  1
  C  453  1  0.53144100  0.63166000  0.83737500  1
  C  454  1  0.48848900  0.63171100  0.83750600  1
  C  455  1  0.47384300  0.62982700  0.81878000  1
  C  456  1  0.43127900  0.63386600  0.81511700  1
  C  457  1  0.40413900  0.63906900  0.83030400  1
  C  458  1  0.42043000  0.64022200  0.84903800  1
  C  459  1  0.46232100  0.63659300  0.85276100  1
  C  460  1  0.55796000  0.63641200  0.85253300  1
  C  461  1  0.59977300  0.63999100  0.84861200  1
  C  462  1  0.61565400  0.63885100  0.82980200  1
  C  463  1  0.58816700  0.63369000  0.81472500  1
  C  464  1  0.50886800  0.60451600  0.79990600  1
  C  465  1  0.50621900  0.60326800  0.78002700  1
  C  466  1  0.50683300  0.62144900  0.77221100  1
  C  467  1  0.50895500  0.63521500  0.78669000  1
  C  468  1  0.50734200  0.62637700  0.75281100  1
  C  469  1  0.50944200  0.64567000  0.74775300  1
  C  470  1  0.50980200  0.66037600  0.76167100  1
  C  471  1  0.51057800  0.65484200  0.78130200  1
  C  472  1  0.51111400  0.58713300  0.81055800  1
  C  473  1  0.50914100  0.56897200  0.80130300  1
  C  474  1  0.50609200  0.56874000  0.78115000  1
  C  475  1  0.50452500  0.58564600  0.77048900  1
  C  488  1  0.50954800  0.62528500  0.80576300  1
  C  493  1  0.47349200  0.18153900  0.36993300  1
  C  494  1  0.48789700  0.16277900  0.36796100  1
  C  495  1  0.53084500  0.16275300  0.36811800  1
  C  496  1  0.54534000  0.18147200  0.37031400  1
  C  497  1  0.58795000  0.18520900  0.36646900  1
  C  498  1  0.61530400  0.17007600  0.36132800  1
  C  499  1  0.59920900  0.15131300  0.36006900  1
  C  500  1  0.55723400  0.14752700  0.36340800  1
  C  501  1  0.46155400  0.14760500  0.36304600  1
  C  502  1  0.41966400  0.15143500  0.35954100  1
  C  503  1  0.40358400  0.17020300  0.36080600  1
  C  504  1  0.43094100  0.18531700  0.36599200  1
  C  505  1  0.50865700  0.20038600  0.39532500  1
  C  506  1  0.50843400  0.22031200  0.39645200  1
  C  507  1  0.50916000  0.22803000  0.37824900  1
  C  508  1  0.50978700  0.21343600  0.36456400  1
  C  509  1  0.50921600  0.24742300  0.37321200  1
  C  510  1  0.50986100  0.25239800  0.35387400  1
  C  511  1  0.51069600  0.23832600  0.33946200  1
  C  512  1  0.51066500  0.21868500  0.34489900  1
  C  513  1  0.50772400  0.18978300  0.41276900  1
  C  514  1  0.50744400  0.19921100  0.43086400  1
  C  515  1  0.50616300  0.21942000  0.43092500  1
  C  516  1  0.50702200  0.23000300  0.41398000  1
  C  529  1  0.50935500  0.19441600  0.37459400  1
  C  534  1  0.47349200  0.81598900  0.63259500  1
  C  535  1  0.48790900  0.83474400  0.63462400  1
  C  536  1  0.53084500  0.83476700  0.63447900  1
  C  537  1  0.54532700  0.81604600  0.63229900  1
  C  538  1  0.58800900  0.81231900  0.63598500  1
  C  539  1  0.61537200  0.82744800  0.64112000  1
  C  540  1  0.59923700  0.84619800  0.64248100  1
  C  541  1  0.55724600  0.84998900  0.63918100  1
  C  542  1  0.46151700  0.84992100  0.63948200  1
  C  543  1  0.41963900  0.84607500  0.64300800  1
  C  544  1  0.40356500  0.82731200  0.64170300  1
  C  545  1  0.43093400  0.81220600  0.63650900  1
  C  546  1  0.50875000  0.79713200  0.60722300  1
  C  547  1  0.50853300  0.77720400  0.60611000  1
  C  548  1  0.50920300  0.76949600  0.62432100  1
  C  549  1  0.50977400  0.78410100  0.63799600  1
  C  550  1  0.50926900  0.75010900  0.62937400  1
  C  551  1  0.50987000  0.74514900  0.64871600  1
  C  552  1  0.51065500  0.75923100  0.66311700  1
  C  553  1  0.51060900  0.77886800  0.65766600  1
  C  554  1  0.50783500  0.80772300  0.58977100  1
  C  555  1  0.50760300  0.79828300  0.57168000  1
  C  556  1  0.50634000  0.77807300  0.57163600  1
  C  557  1  0.50717400  0.76750200  0.58858800  1
  C  570  1  0.50937400  0.80311100  0.62795200  1
  C  575  1  0.47349200  0.36736300  0.81846400  1
  C  576  1  0.48790300  0.36539600  0.83722500  1
  C  577  1  0.53083000  0.36555800  0.83725100  1
  C  578  1  0.54532100  0.36774700  0.81853000  1
  C  579  1  0.58800000  0.36404700  0.81480600  1
  C  580  1  0.61536900  0.35893400  0.82994100  1
  C  581  1  0.59925500  0.35762300  0.84869700  1
  C  582  1  0.55725600  0.36089900  0.85247700  1
  C  583  1  0.46152700  0.36053900  0.85240600  1
  C  584  1  0.41963300  0.35704400  0.84857900  1
  C  585  1  0.40358100  0.35829600  0.82981000  1
  C  586  1  0.43088800  0.36354200  0.81469700  1
  C  587  1  0.50865100  0.39280200  0.79962900  1
  C  588  1  0.50845000  0.39393000  0.77970300  1
  C  589  1  0.50917500  0.37573000  0.77198100  1
  C  590  1  0.50978700  0.36204400  0.78657400  1
  C  591  1  0.50924400  0.37069600  0.75258700  1
  C  592  1  0.50988000  0.35136000  0.74761100  1
  C  593  1  0.51068600  0.33694700  0.76168200  1
  C  594  1  0.51065800  0.34238000  0.78132200  1
  C  595  1  0.50768600  0.41024300  0.81023400  1
  C  596  1  0.50741300  0.42833800  0.80080400  1
  C  597  1  0.50615700  0.42839900  0.78059500  1
  C  598  1  0.50705700  0.41145800  0.77001100  1
  C  611  1  0.50934600  0.37206800  0.80559400  1
  C  616  1  0.47355400  0.63017100  0.18403800  1
  C  617  1  0.48795900  0.63219500  0.16528600  1
  C  618  1  0.53088900  0.63197800  0.16524000  1
  C  619  1  0.54538600  0.62976100  0.18395700  1
  C  620  1  0.58807100  0.63343900  0.18767900  1
  C  621  1  0.61543100  0.63856700  0.17254700  1
  C  622  1  0.59931400  0.63989100  0.15379200  1
  C  623  1  0.55732100  0.63659600  0.15000400  1
  C  624  1  0.46159200  0.63699600  0.15008500  1
  C  625  1  0.41971300  0.64052300  0.15392300  1
  C  626  1  0.40363700  0.63923400  0.17268800  1
  C  627  1  0.43094400  0.63398000  0.18780100  1
  C  628  1  0.50872300  0.60471100  0.20285600  1
  C  629  1  0.50853300  0.60357700  0.22278200  1
  C  630  1  0.50926200  0.62177700  0.23050800  1
  C  631  1  0.50986700  0.63546700  0.21592000  1
  C  632  1  0.50933400  0.62680800  0.24990200  1
  C  633  1  0.50996300  0.64614400  0.25488400  1
  C  634  1  0.51075800  0.66056000  0.24081800  1
  C  635  1  0.51073300  0.65513100  0.22117600  1
  C  636  1  0.50777600  0.58727000  0.19225000  1
  C  637  1  0.50756200  0.56916800  0.20167100  1
  C  638  1  0.50628100  0.56910600  0.22188100  1
  C  639  1  0.50715900  0.58604700  0.23246800  1
  C  652  1  0.50941400  0.62544400  0.19689800  1
  C  657  1  0.01041200  0.78960400  0.23948900  1
  C  659  1  0.00078900  0.78832900  0.20540700  1
  C  660  1  0.00120700  0.76815600  0.20531400  1
  C  662  1  0.01148400  0.76925100  0.23949200  1
  C  664  1  0.01598600  0.75879100  0.25609800  1
  C  665  1  0.97979200  0.75493100  0.26773000  1
  C  670  1  0.01351900  0.80145500  0.25568700  1
  C  672  1  0.99213000  0.75845300  0.18840300  1
  C  674  1  0.01034400  0.20791200  0.76302000  1
  C  676  1  0.00073600  0.20918700  0.79710400  1
  C  677  1  0.00112700  0.22936100  0.79719300  1
  C  679  1  0.01141000  0.22826400  0.76301600  1
  C  681  1  0.01590600  0.23872500  0.74641200  1
  C  682  1  0.97973000  0.24256600  0.73476000  1
  C  687  1  0.01345400  0.19605900  0.74682400  1
  C  689  1  0.99203700  0.23906500  0.81410200  1
  C  691  1  0.01039200  0.76052900  0.79209200  1
  C  693  1  0.00064900  0.79460300  0.79075700  1
  C  694  1  0.00110500  0.79466500  0.77058400  1
  C  696  1  0.01153500  0.76049200  0.77174100  1
  C  698  1  0.01618000  0.74386200  0.76135900  1
  C  699  1  0.97981700  0.73243900  0.75717700  1
  C  704  1  0.01350800  0.74435000  0.80397200  1
  C  706  1  0.99197500  0.81155400  0.76084500  1
  C  708  1  0.01041400  0.23699900  0.21037000  1
  C  710  1  0.00036400  0.20294200  0.21179100  1
  C  711  1  0.00098100  0.20291700  0.23196100  1
  C  713  1  0.01168100  0.23707800  0.23072100  1
  C  715  1  0.01652000  0.25372200  0.24110500  1
  C  716  1  0.97922400  0.26437200  0.24567900  1
  C  721  1  0.01357600  0.25314100  0.19844500  1
  C  723  1  0.99174500  0.18606800  0.24175000  1
  C  725  1  0.51043800  0.28932100  0.73974200  1
  C  727  1  0.50023100  0.28791600  0.70570600  1
  C  728  1  0.50066300  0.26775200  0.70573300  1
  C  730  1  0.51150200  0.26897400  0.73985900  1
  C  732  1  0.51631700  0.25861300  0.75651400  1
  C  733  1  0.47906400  0.25420900  0.76726800  1
  C  738  1  0.51371100  0.30123900  0.75585800  1
  C  740  1  0.49131500  0.25797300  0.68893400  1
  C  742  1  0.51043500  0.70818400  0.26277500  1
  C  744  1  0.50003000  0.70957300  0.29679900  1
  C  745  1  0.50052300  0.72973700  0.29678600  1
  C  747  1  0.51162900  0.72853000  0.26267900  1
  C  749  1  0.51660600  0.73890200  0.24604100  1
  C  750  1  0.47941800  0.74338900  0.23527200  1
  C  755  1  0.51374800  0.69627000  0.24665600  1
  C  757  1  0.49130300  0.73951900  0.31360100  1
  C  759  1  0.51034200  0.26026500  0.29182700  1
  C  761  1  0.49994000  0.29428900  0.29041400  1
  C  762  1  0.50040500  0.29426100  0.27024900  1
  C  764  1  0.51150800  0.26015200  0.27148200  1
  C  766  1  0.51645000  0.24350600  0.26111700  1
  C  767  1  0.47923500  0.23275800  0.25663800  1
  C  772  1  0.51368300  0.24415200  0.30375000  1
  C  774  1  0.49113200  0.31105600  0.26044300  1
  C  776  1  0.51024000  0.73719400  0.71070500  1
  C  778  1  0.50030900  0.70314000  0.71201000  1
  C  779  1  0.50051700  0.70312800  0.73217700  1
  C  781  1  0.51116400  0.73725200  0.73105200  1
  C  783  1  0.51572800  0.75386800  0.74148400  1
  C  784  1  0.47965400  0.76562500  0.74520100  1
  C  789  1  0.51351900  0.75335300  0.69884000  1
  C  791  1  0.49123800  0.68629800  0.74192300  1
  C  793  1  0.79340900  0.67115500  0.15366100  1
  C  795  1  0.76167500  0.64095200  0.16142900  1
  C  796  1  0.72336500  0.64982500  0.16537700  1
  C  798  1  0.75492800  0.68022300  0.15778700  1
  C  800  1  0.74845000  0.69964200  0.15589300  1
  C  801  1  0.76553500  0.71305600  0.16951300  1
  C  806  1  0.82926300  0.68038100  0.14709200  1
  C  808  1  0.68699300  0.63929100  0.16651800  1
  C  810  1  0.79335000  0.32634300  0.84883600  1
  C  812  1  0.76163200  0.35654600  0.84104100  1
  C  813  1  0.72331200  0.34767300  0.83711000  1
  C  815  1  0.75487800  0.31727500  0.84470100  1
  C  817  1  0.74839700  0.29785700  0.84659700  1
  C  818  1  0.76551600  0.28443900  0.83298800  1
  C  823  1  0.82919200  0.31712000  0.85542800  1
  C  825  1  0.68693700  0.35820800  0.83597300  1
  C  827  1  0.79337800  0.84632400  0.67365900  1
  C  829  1  0.76165100  0.83849600  0.64346800  1
  C  830  1  0.72330900  0.83461700  0.65234100  1
  C  832  1  0.75487800  0.84224700  0.68272900  1
  C  834  1  0.74842200  0.84419400  0.70213800  1
  C  835  1  0.76520900  0.83050500  0.71556900  1
  C  840  1  0.82924100  0.85290400  0.68287600  1
  C  842  1  0.68693700  0.83347000  0.64180300  1
  C  844  1  0.79334400  0.15116800  0.32878600  1
  C  846  1  0.76151700  0.15906400  0.35893800  1
  C  847  1  0.72319700  0.16290000  0.35001900  1
  C  849  1  0.75487500  0.15522300  0.31967300  1
  C  851  1  0.74860200  0.15319300  0.30024900  1
  C  852  1  0.76484900  0.16726300  0.28705400  1
  C  857  1  0.82926300  0.14459500  0.31960900  1
  C  859  1  0.68686900  0.16409200  0.36058900  1
  C  861  1  0.22607000  0.67176400  0.84930000  1
  C  863  1  0.25802700  0.64157700  0.84166700  1
  C  864  1  0.29622600  0.65051400  0.83761900  1
  C  866  1  0.26441200  0.68089000  0.84503700  1
  C  868  1  0.27056500  0.70034600  0.84680400  1
  C  869  1  0.25375300  0.71339000  0.83273500  1
  C  874  1  0.19018500  0.68096600  0.85587000  1
  C  876  1  0.33263300  0.64000200  0.83644500  1
  C  878  1  0.22601100  0.32577400  0.15314900  1
  C  880  1  0.25789400  0.35598000  0.16077400  1
  C  881  1  0.29611300  0.34705800  0.16479200  1
  C  883  1  0.26438000  0.31666500  0.15740800  1
  C  885  1  0.27056900  0.29721100  0.15565200  1
  C  886  1  0.25380000  0.28417000  0.16973500  1
  C  891  1  0.19015000  0.31655300  0.14658100  1
  C  893  1  0.33255900  0.35754100  0.16596900  1
  C  895  1  0.22607400  0.84687600  0.32833900  1
  C  897  1  0.25796300  0.83925000  0.35854300  1
  C  898  1  0.29617500  0.83522100  0.34962100  1
  C  900  1  0.26444400  0.84261800  0.31923000  1
  C  902  1  0.27063100  0.84438200  0.29977600  1
  C  903  1  0.25392900  0.83028000  0.28673800  1
  C  908  1  0.19019600  0.85342400  0.31911500  1
  C  910  1  0.33262400  0.83403100  0.36010700  1
  C  912  1  0.22609500  0.15066500  0.67414600  1
  C  914  1  0.25782100  0.15824400  0.64389500  1
  C  915  1  0.29605800  0.16232500  0.65277100  1
  C  917  1  0.26448700  0.15498200  0.68320600  1
  C  919  1  0.27087500  0.15333500  0.70265200  1
  C  920  1  0.25338400  0.16700200  0.71590800  1
  C  925  1  0.19029400  0.14410200  0.68341600  1
  C  927  1  0.33244100  0.16357200  0.64223700  1
  C  929  1  0.22611100  0.32556900  0.84897100  1
  C  931  1  0.25740800  0.35585300  0.84115200  1
  C  932  1  0.29571700  0.34706000  0.83701300  1
  C  934  1  0.26457300  0.31658500  0.84464500  1
  C  936  1  0.27125600  0.29717300  0.84643500  1
  C  937  1  0.25390000  0.28376300  0.83288500  1
  C  942  1  0.19050800  0.31623700  0.85566400  1
  C  944  1  0.33199400  0.35764900  0.83574900  1
  C  946  1  0.22616800  0.67195000  0.15352500  1
  C  948  1  0.25745400  0.64166900  0.16137200  1
  C  949  1  0.29577100  0.65046100  0.16548800  1
  C  951  1  0.26462000  0.68093600  0.15785800  1
  C  953  1  0.27130000  0.70034700  0.15606400  1
  C  954  1  0.25391700  0.71376200  0.16960400  1
  C  959  1  0.19057200  0.68127900  0.14681800  1
  C  961  1  0.33205600  0.63987400  0.16673900  1
  C  963  1  0.22604300  0.15108200  0.32797500  1
  C  965  1  0.25738800  0.15895100  0.35823600  1
  C  966  1  0.29572200  0.16300800  0.34942800  1
  C  968  1  0.26451700  0.15535000  0.31897400  1
  C  970  1  0.27114600  0.15349900  0.29957000  1
  C  971  1  0.25404600  0.16711000  0.28614400  1
  C  976  1  0.19041600  0.14437700  0.31866800  1
  C  978  1  0.33203200  0.16425000  0.35999600  1
  C  980  1  0.22611700  0.84649600  0.67447100  1
  C  982  1  0.25744400  0.83855000  0.64422500  1
  C  983  1  0.29578300  0.83452500  0.65304700  1
  C  985  1  0.26458900  0.84224400  0.68348400  1
  C  987  1  0.27111700  0.84415900  0.70289900  1
  C  988  1  0.25453800  0.83018700  0.71610700  1
  C  993  1  0.19046800  0.85319000  0.68377000  1
  C  995  1  0.33199700  0.83320600  0.64240400  1
  C  997  1  0.79315800  0.32563900  0.15379900  1
  C  999  1  0.76177500  0.35588700  0.16169600  1
  C  1000  1  0.72340200  0.34706900  0.16564200  1
  C  1002  1  0.75462100  0.31663200  0.15794300  1
  C  1004  1  0.74806200  0.29722400  0.15596500  1
  C  1005  1  0.76460700  0.28395000  0.16988500  1
  C  1010  1  0.82886600  0.31635500  0.14715100  1
  C  1012  1  0.68718500  0.35770700  0.16683300  1
  C  1014  1  0.79322600  0.67185100  0.84866400  1
  C  1016  1  0.76189300  0.64159600  0.84075800  1
  C  1017  1  0.72348900  0.65040600  0.83687600  1
  C  1019  1  0.75465200  0.68084800  0.84456200  1
  C  1021  1  0.74807200  0.70025200  0.84656000  1
  C  1022  1  0.76452000  0.71353700  0.83262800  1
  C  1027  1  0.82893700  0.68114300  0.85530100  1
  C  1029  1  0.68723100  0.63979600  0.83567500  1
  C  1031  1  0.79318000  0.15126500  0.67425900  1
  C  1033  1  0.76185800  0.15915700  0.64399600  1
  C  1034  1  0.72347300  0.16308200  0.65280200  1
  C  1036  1  0.75461800  0.15539600  0.68325100  1
  C  1038  1  0.74803100  0.15341600  0.70265700  1
  C  1039  1  0.76445800  0.16737000  0.71592500  1
  C  1044  1  0.82889400  0.14464700  0.68356200  1
  C  1046  1  0.68722500  0.16429800  0.64218700  1
  C  1048  1  0.79317300  0.84621400  0.32825000  1
  C  1050  1  0.76201700  0.83837400  0.35856200  1
  C  1051  1  0.72360300  0.83439700  0.34980300  1
  C  1053  1  0.75458700  0.84202300  0.31931000  1
  C  1055  1  0.74780200  0.84388200  0.29991000  1
  C  1056  1  0.76499200  0.83035400  0.28643100  1
  C  1061  1  0.82880700  0.85284700  0.31889900  1
  C  1063  1  0.68740500  0.83312700  0.36046000  1
  C  1065  1  0.02485800  0.68725200  0.98152400  1
  C  1067  1  0.97599200  0.67947000  0.00654400  1
  C  1068  1  0.00428800  0.68464600  0.02111300  1
  C  1070  1  0.05382200  0.69215300  0.99618600  1
  C  1072  1  0.09221900  0.70031200  0.99260700  1
  C  1073  1  0.09515500  0.72094500  0.99309900  1
  C  1078  1  0.03106800  0.69199300  0.96212400  1
  C  1080  1  0.99167400  0.68890300  0.03978100  1
  C  1082  1  0.02487700  0.31031600  0.02096000  1
  C  1084  1  0.97597300  0.31808600  0.99593600  1
  C  1085  1  0.00424800  0.31287700  0.98136900  1
  C  1087  1  0.05381000  0.30539900  0.00629200  1
  C  1089  1  0.09220700  0.29723800  0.00986900  1
  C  1090  1  0.09513400  0.27660300  0.00940200  1
  C  1095  1  0.03107400  0.30555400  0.04035500  1
  C  1097  1  0.99160600  0.30860100  0.96270700  1
  C  1099  1  0.02483500  0.01846700  0.68976000  1
  C  1101  1  0.97588600  0.99347600  0.68197300  1
  C  1102  1  0.00415200  0.97889000  0.68714700  1
  C  1104  1  0.05377400  0.00378500  0.69461900  1
  C  1106  1  0.09214100  0.00732800  0.70275500  1
  C  1107  1  0.09541400  0.00692000  0.72339300  1
  C  1112  1  0.03102900  0.03787000  0.69450900  1
  C  1114  1  0.99148500  0.96022500  0.69140500  1
  C  1116  1  0.02479800  0.97907500  0.31267100  1
  C  1118  1  0.97580500  0.00406200  0.32040900  1
  C  1119  1  0.00410800  0.01863400  0.31522800  1
  C  1121  1  0.05377100  0.99375200  0.30783800  1
  C  1123  1  0.09233200  0.99018400  0.29986100  1
  C  1124  1  0.09517400  0.99068600  0.27918900  1
  C  1129  1  0.03107900  0.95966700  0.30796300  1
  C  1131  1  0.99135700  0.03732100  0.31108900  1
  C  1133  1  0.52484200  0.18847600  0.48149400  1
  C  1135  1  0.47549600  0.18119400  0.50644600  1
  C  1136  1  0.50395100  0.18622700  0.52099500  1
  C  1138  1  0.55394200  0.19317600  0.49615100  1
  C  1140  1  0.59279000  0.20084600  0.49255500  1
  C  1141  1  0.59625200  0.22150400  0.49268200  1
  C  1146  1  0.53126100  0.19301300  0.46208200  1
  C  1148  1  0.49135900  0.19042800  0.53965900  1
  C  1150  1  0.52487600  0.80900600  0.52101700  1
  C  1152  1  0.47550600  0.81631600  0.49607800  1
  C  1153  1  0.50394200  0.81127900  0.48153200  1
  C  1155  1  0.55396400  0.80431100  0.50634900  1
  C  1157  1  0.59281500  0.79664200  0.50993300  1
  C  1158  1  0.59629600  0.77598600  0.50976400  1
  C  1163  1  0.53130100  0.80443400  0.54042000  1
  C  1165  1  0.49145500  0.80704100  0.46285600  1
  C  1167  1  0.52470000  0.51850700  0.19096900  1
  C  1169  1  0.47532900  0.49356600  0.18369500  1
  C  1170  1  0.50375600  0.47902200  0.18875000  1
  C  1172  1  0.55377800  0.50384200  0.19570200  1
  C  1174  1  0.59262900  0.50742100  0.20337400  1
  C  1175  1  0.59609400  0.50726000  0.22403000  1
  C  1180  1  0.53121100  0.53791700  0.19548800  1
  C  1182  1  0.49126900  0.46035000  0.19299200  1
  C  1184  1  0.52469000  0.47898700  0.81151500  1
  C  1186  1  0.47544100  0.50393800  0.81889600  1
  C  1187  1  0.50383900  0.51847100  0.81377800  1
  C  1189  1  0.55378700  0.49363400  0.80676500  1
  C  1191  1  0.59253200  0.49002000  0.79897100  1
  C  1192  1  0.59624000  0.49010000  0.77835900  1
  C  1197  1  0.53113400  0.45957900  0.80698600  1
  C  1199  1  0.49129000  0.53714600  0.80958300  1
  N  38  1  0.01356600  0.74473500  0.18081400  1
  N  39  1  0.15638000  0.67206100  0.14542600  1
  N  40  1  0.86331100  0.67103200  0.14574600  1
  N  41  1  0.01573000  0.68869300  0.05463200  1
  N  79  1  0.01348400  0.25277600  0.82169300  1
  N  80  1  0.15631900  0.32545700  0.85707300  1
  N  81  1  0.86325500  0.32646000  0.85675100  1
  N  82  1  0.01570800  0.30882900  0.94787100  1
  N  120  1  0.01348300  0.81917800  0.74717200  1
  N  121  1  0.15632100  0.85459300  0.67451900  1
  N  122  1  0.86328300  0.85424300  0.67352200  1
  N  123  1  0.01563700  0.94540600  0.69119700  1
  N  161  1  0.01339200  0.17839900  0.25535200  1
  N  162  1  0.15626600  0.14295500  0.32791500  1
  N  163  1  0.86324300  0.14324300  0.32900600  1
  N  164  1  0.01559100  0.05211200  0.31117600  1
  N  202  1  0.01072100  0.74585300  0.82221200  1
  N  203  1  0.86307900  0.67187500  0.85664800  1
  N  204  1  0.15618600  0.67158900  0.85722700  1
  N  205  1  0.00556600  0.68927800  0.94802200  1
  N  243  1  0.01066700  0.25159400  0.18021200  1
  N  244  1  0.86299800  0.32563000  0.14580000  1
  N  245  1  0.15612300  0.32591000  0.14522300  1
  N  246  1  0.00552600  0.30827400  0.05443900  1
  N  284  1  0.01074600  0.81969800  0.25421300  1
  N  285  1  0.86304100  0.85417300  0.32809800  1
  N  286  1  0.15617800  0.85479300  0.32847700  1
  N  287  1  0.00556300  0.94556900  0.31068300  1
  N  325  1  0.01067600  0.17781600  0.74830000  1
  N  326  1  0.86306000  0.14333100  0.67430600  1
  N  327  1  0.15620700  0.14273800  0.67410600  1
  N  328  1  0.00556300  0.05198000  0.69175900  1
  N  366  1  0.51359000  0.24467600  0.68113500  1
  N  367  1  0.65406700  0.17270400  0.64824100  1
  N  368  1  0.36543100  0.17209700  0.64830900  1
  N  369  1  0.51567200  0.19031300  0.55440600  1
  N  407  1  0.51357800  0.75283400  0.32136700  1
  N  408  1  0.65425000  0.82474700  0.35437700  1
  N  409  1  0.36559600  0.82544300  0.35409500  1
  N  410  1  0.51577100  0.80721500  0.44810900  1
  N  448  1  0.51342900  0.31884600  0.24715100  1
  N  449  1  0.65396200  0.35170200  0.17521600  1
  N  450  1  0.36557700  0.35153200  0.17452100  1
  N  451  1  0.51561000  0.44561200  0.19283800  1
  N  489  1  0.51345100  0.67856300  0.75527800  1
  N  490  1  0.65403000  0.64581100  0.82727900  1
  N  491  1  0.36568600  0.64600800  0.82792000  1
  N  492  1  0.51573100  0.55184700  0.80969100  1
  N  530  1  0.51081700  0.24578100  0.32196800  1
  N  531  1  0.36514000  0.17266900  0.35390800  1
  N  532  1  0.65381000  0.17254600  0.35449300  1
  N  533  1  0.50503400  0.19070000  0.44821700  1
  N  571  1  0.51076700  0.75178800  0.68061600  1
  N  572  1  0.36510300  0.82484800  0.64857700  1
  N  573  1  0.65392800  0.82496800  0.64789100  1
  N  574  1  0.50517000  0.80678900  0.55432000  1
  N  612  1  0.51084500  0.31945600  0.75422600  1
  N  613  1  0.36505600  0.35149200  0.82734100  1
  N  614  1  0.65391200  0.35213700  0.82747200  1
  N  615  1  0.50496300  0.44569200  0.80931100  1
  N  653  1  0.51088800  0.67805300  0.24827600  1
  N  654  1  0.36510600  0.64602500  0.17516200  1
  N  655  1  0.65396800  0.64536600  0.17501900  1
  N  656  1  0.50506800  0.55181600  0.19316300  1
  N  658  1  0.00517800  0.79793200  0.22209300  1
  N  661  1  0.00641600  0.75960200  0.22260100  1
  N  675  1  0.00511000  0.19958300  0.78041700  1
  N  678  1  0.00633300  0.23791400  0.77990500  1
  N  692  1  0.00505400  0.77793300  0.80038900  1
  N  695  1  0.00641300  0.77736700  0.76206300  1
  N  709  1  0.00485600  0.21958500  0.20212000  1
  N  712  1  0.00647800  0.22022300  0.24043200  1
  N  726  1  0.50488800  0.29758200  0.72233300  1
  N  729  1  0.50614500  0.25926300  0.72302400  1
  N  743  1  0.50473900  0.69991500  0.28017200  1
  N  746  1  0.50622800  0.73823500  0.27951600  1
  N  760  1  0.50467700  0.27766900  0.30008400  1
  N  763  1  0.50608600  0.27698200  0.26176600  1
  N  777  1  0.50492800  0.71979400  0.70238800  1
  N  780  1  0.50584700  0.72040100  0.74072500  1
  N  794  1  0.79429000  0.65180600  0.15579000  1
  N  797  1  0.72195600  0.66909800  0.16295300  1
  N  811  1  0.79422500  0.34569200  0.84671200  1
  N  814  1  0.72190300  0.32840200  0.83953300  1
  N  828  1  0.79425900  0.84415700  0.65431500  1
  N  831  1  0.72189400  0.83708200  0.67160800  1
  N  845  1  0.79416300  0.15338500  0.34812600  1
  N  848  1  0.72183800  0.16040900  0.33075700  1
  N  862  1  0.22536200  0.65240000  0.84730600  1
  N  865  1  0.29746500  0.66980400  0.83988200  1
  N  879  1  0.22525200  0.34513900  0.15514300  1
  N  882  1  0.29742000  0.32776500  0.16254900  1
  N  896  1  0.22530900  0.84486800  0.34770300  1
  N  899  1  0.29748200  0.83747200  0.33033000  1
  N  913  1  0.22523800  0.15262300  0.65477900  1
  N  916  1  0.29745300  0.16013100  0.67206800  1
  N  930  1  0.22500300  0.34492200  0.84690300  1
  N  933  1  0.29733400  0.32778200  0.83936800  1
  N  947  1  0.22506800  0.65259700  0.15559100  1
  N  950  1  0.29738500  0.66973800  0.16313300  1
  N  964  1  0.22496800  0.15318400  0.34732400  1
  N  967  1  0.29731400  0.16061200  0.33015700  1
  N  981  1  0.22502800  0.84433900  0.65512700  1
  N  984  1  0.29739200  0.83694900  0.67231300  1
  N  998  1  0.79424100  0.34498000  0.15597500  1
  N  1001  1  0.72177900  0.32780900  0.16317900  1
  N  1015  1  0.79434900  0.65251200  0.84646500  1
  N  1018  1  0.72180700  0.66966500  0.83934300  1
  N  1032  1  0.79431500  0.15345800  0.65491900  1
  N  1035  1  0.72178900  0.16062700  0.67206400  1
  N  1049  1  0.79440200  0.84407600  0.34759600  1
  N  1052  1  0.72183200  0.83679200  0.33053600  1
  N  1066  1  0.98693700  0.68126800  0.98779600  1
  N  1069  1  0.04164800  0.69111200  0.01484800  1
  N  1083  1  0.98693000  0.31626800  0.01468200  1
  N  1086  1  0.04161500  0.30641900  0.98763100  1
  N  1100  1  0.98686800  0.01221800  0.68380900  1
  N  1103  1  0.04155400  0.98513200  0.69358400  1
  N  1117  1  0.98680600  0.98532000  0.31859600  1
  N  1120  1  0.04158700  0.01241200  0.30888400  1
  N  1134  1  0.48663100  0.18284300  0.48771800  1
  N  1137  1  0.54167300  0.19228200  0.51479900  1
  N  1151  1  0.48665900  0.81464800  0.51480400  1
  N  1154  1  0.54168200  0.80521600  0.48770200  1
  N  1168  1  0.48650000  0.51229100  0.18531200  1
  N  1171  1  0.54148600  0.48519600  0.19481800  1
  N  1185  1  0.48655600  0.48520900  0.81725100  1
  N  1188  1  0.54151400  0.51228500  0.80763900  1
  O  669  1  0.04303400  0.74653800  0.25593900  1
  O  686  1  0.04295600  0.25097500  0.74656100  1
  O  703  1  0.04272600  0.74412400  0.74886700  1
  O  720  1  0.04271100  0.25325900  0.25373400  1
  O  737  1  0.54232100  0.24590000  0.75604700  1
  O  754  1  0.54269000  0.75157500  0.24655700  1
  O  771  1  0.54252000  0.24401300  0.24843700  1
  O  788  1  0.54267500  0.75369700  0.75378300  1
  O  805  1  0.71892500  0.70490600  0.14625800  1
  O  822  1  0.71885700  0.29259500  0.85622300  1
  O  839  1  0.71866800  0.85367900  0.70741400  1
  O  856  1  0.71844100  0.14399700  0.29496500  1
  O  873  1  0.30072400  0.70580900  0.85589600  1
  O  890  1  0.30072900  0.29175300  0.14655700  1
  O  907  1  0.30078800  0.85348300  0.29432500  1
  O  924  1  0.30044200  0.14381500  0.70807300  1
  O  941  1  0.30095800  0.29191800  0.85596100  1
  O  958  1  0.30100700  0.70560200  0.14654300  1
  O  975  1  0.30105700  0.14411900  0.29429600  1
  O  992  1  0.30143100  0.85325700  0.70816700  1
  O  1009  1  0.71782400  0.29198900  0.14679500  1
  O  1026  1  0.71784500  0.70547100  0.85575200  1
  O  1043  1  0.71779600  0.14423700  0.70787900  1
  O  1060  1  0.71814900  0.85347500  0.29471800  1
  O  1077  1  0.12154800  0.69161300  0.99948300  1
  O  1094  1  0.12153400  0.30592200  0.00297800  1
  O  1111  1  0.12167600  0.00035400  0.69427000  1
  O  1128  1  0.12180700  0.99723200  0.30829900  1
  O  1145  1  0.62193600  0.19235300  0.49982800  1
  O  1162  1  0.62195200  0.80515400  0.50267900  1
  O  1179  1  0.62176600  0.50015800  0.19486900  1
  O  1196  1  0.62147400  0.49712400  0.80775800  1
