# generated using pymatgen
data_H48C55N8
_symmetry_space_group_name_H-M   'P 1'
_cell_length_a   39.50610000
_cell_length_b   39.50610000
_cell_length_c   39.50610000
_cell_angle_alpha   90.00000000
_cell_angle_beta   90.00000000
_cell_angle_gamma   90.00000000
_symmetry_Int_Tables_number   1
_chemical_formula_structural   H48C55N8
_chemical_formula_sum   'H384 C440 N64'
_cell_volume   61658.43198461
_cell_formula_units_Z   8
loop_
 _symmetry_equiv_pos_site_id
 _symmetry_equiv_pos_as_xyz
  1  'x, y, z'
loop_
 _atom_site_type_symbol
 _atom_site_label
 _atom_site_symmetry_multiplicity
 _atom_site_fract_x
 _atom_site_fract_y
 _atom_site_fract_z
 _atom_site_occupancy
  H  25  1  0.07983400  0.89330700  0.00400300  1
  H  26  1  0.04188100  0.90049500  0.95753000  1
  H  27  1  0.95040200  0.96191600  0.89899400  1
  H  28  1  0.91381700  0.00985100  0.89293200  1
  H  29  1  0.95169000  0.05093300  0.98329300  1
  H  30  1  0.04237000  0.98174400  0.04936600  1
  H  31  1  0.95168500  0.95092000  0.01855400  1
  H  32  1  0.91382000  0.99199300  0.10892500  1
  H  33  1  0.95041200  0.03992100  0.10287000  1
  H  34  1  0.04237300  0.02010300  0.95249000  1
  H  35  1  0.04189500  0.10134300  0.04433400  1
  H  36  1  0.07984500  0.10853400  0.99786000  1
  H  39  1  0.01120700  0.94830600  0.92321800  1
  H  40  1  0.98031800  0.92532700  0.94631100  1
  H  42  1  0.98032900  0.07651900  0.05555400  1
  H  43  1  0.01121600  0.05353100  0.07863900  1
  H  45  1  0.89436500  0.06779100  0.95239100  1
  H  47  1  0.09439700  0.95194600  0.06985900  1
  H  49  1  0.89436000  0.93406000  0.04945800  1
  H  51  1  0.09439600  0.04989300  0.93200200  1
  H  76  1  0.42200300  0.10853700  0.50400000  1
  H  77  1  0.45996100  0.10135600  0.45753100  1
  H  78  1  0.55144800  0.03994400  0.39899400  1
  H  79  1  0.58803800  0.99201300  0.39293100  1
  H  80  1  0.55016300  0.95092600  0.48329200  1
  H  81  1  0.45947000  0.02010000  0.54936000  1
  H  82  1  0.55016000  0.05093600  0.51856000  1
  H  83  1  0.58802200  0.00985300  0.60892800  1
  H  84  1  0.55143600  0.96192600  0.60286600  1
  H  85  1  0.45947800  0.98174900  0.45248400  1
  H  86  1  0.45996100  0.90050000  0.54432000  1
  H  87  1  0.42201500  0.89330900  0.49784200  1
  H  90  1  0.49063800  0.05355000  0.42321800  1
  H  91  1  0.52152900  0.07653000  0.44631000  1
  H  93  1  0.52152400  0.92533200  0.55555200  1
  H  94  1  0.49062700  0.94831800  0.57863200  1
  H  96  1  0.60749500  0.93407500  0.45239000  1
  H  98  1  0.40744500  0.04989000  0.56985600  1
  H  100  1  0.60748800  0.06779200  0.54946400  1
  H  102  1  0.40746600  0.95194800  0.43198100  1
  H  127  1  0.35739000  0.83424500  0.25813700  1
  H  128  1  0.35242400  0.79607400  0.21134700  1
  H  129  1  0.29440500  0.70383200  0.15059700  1
  H  130  1  0.24677700  0.66736200  0.14215300  1
  H  131  1  0.20163000  0.70484000  0.23074500  1
  H  132  1  0.26810800  0.79509200  0.30036600  1
  H  133  1  0.30021700  0.70484500  0.27111200  1
  H  134  1  0.25507700  0.66736000  0.35970600  1
  H  135  1  0.20744700  0.70382700  0.35126700  1
  H  136  1  0.23371900  0.79507900  0.20148900  1
  H  137  1  0.14942100  0.79606900  0.29052400  1
  H  138  1  0.14443800  0.83422700  0.24372600  1
  H  141  1  0.30656800  0.76458700  0.17538700  1
  H  142  1  0.32883000  0.73391600  0.19945100  1
  H  144  1  0.17301400  0.73391100  0.30242100  1
  H  145  1  0.19528200  0.76458700  0.32647600  1
  H  147  1  0.18523800  0.64857500  0.19887100  1
  H  149  1  0.29723700  0.85149300  0.31858300  1
  H  151  1  0.31661400  0.64857800  0.30298100  1
  H  153  1  0.20459000  0.85148300  0.18328900  1
  H  178  1  0.14445300  0.16762100  0.75814000  1
  H  179  1  0.14941700  0.20579700  0.71135000  1
  H  180  1  0.20743200  0.29804200  0.65060000  1
  H  181  1  0.25506700  0.33450700  0.64215300  1
  H  182  1  0.30021400  0.29702000  0.73074000  1
  H  183  1  0.23374100  0.20677100  0.80036200  1
  H  184  1  0.20162900  0.29701700  0.77111300  1
  H  185  1  0.24676700  0.33450500  0.85970400  1
  H  186  1  0.29440200  0.29803700  0.85126000  1
  H  187  1  0.26810800  0.20676700  0.70149800  1
  H  188  1  0.35242600  0.20579800  0.79051300  1
  H  189  1  0.35739500  0.16762300  0.74372200  1
  H  192  1  0.19526100  0.23728700  0.67539100  1
  H  193  1  0.17300900  0.26796300  0.69946100  1
  H  195  1  0.32883200  0.26796100  0.80240400  1
  H  196  1  0.30657500  0.23728400  0.82646900  1
  H  198  1  0.31660600  0.35328400  0.69886300  1
  H  200  1  0.20462700  0.15035200  0.81854400  1
  H  202  1  0.18523400  0.35328400  0.80298400  1
  H  204  1  0.29722500  0.15035100  0.68331700  1
  H  229  1  0.64268000  0.17194200  0.73957600  1
  H  230  1  0.64834700  0.20783100  0.78805200  1
  H  231  1  0.70710800  0.29791600  0.85180200  1
  H  232  1  0.75417600  0.33517300  0.86027900  1
  H  233  1  0.79914700  0.29962900  0.77083700  1
  H  234  1  0.73374400  0.20977400  0.70012400  1
  H  235  1  0.70271600  0.29963900  0.73102800  1
  H  236  1  0.74769900  0.33518600  0.64159100  1
  H  237  1  0.79476200  0.29792300  0.65007100  1
  H  238  1  0.76811100  0.20977500  0.80173900  1
  H  239  1  0.85350300  0.20782100  0.71380800  1
  H  240  1  0.85916800  0.17193100  0.76228400  1
  H  243  1  0.69535500  0.23716700  0.82566700  1
  H  244  1  0.67272300  0.26841100  0.80272300  1
  H  246  1  0.82913700  0.26841100  0.69914900  1
  H  247  1  0.80650700  0.23717500  0.67619600  1
  H  249  1  0.81325100  0.35710900  0.80306000  1
  H  251  1  0.70314400  0.15559900  0.67877800  1
  H  253  1  0.68861700  0.35711700  0.69880500  1
  H  255  1  0.79870600  0.15559000  0.82308500  1
  H  280  1  0.85918500  0.82989900  0.23955500  1
  H  281  1  0.85352800  0.79400100  0.28802400  1
  H  282  1  0.79477800  0.70390600  0.35176600  1
  H  283  1  0.74770900  0.66666667  0.36024500  1
  H  284  1  0.70271600  0.70221700  0.27082400  1
  H  285  1  0.76810600  0.79208400  0.20011900  1
  H  286  1  0.79914400  0.70221700  0.23102100  1
  H  287  1  0.75417400  0.66666667  0.14157400  1
  H  288  1  0.70711000  0.70394400  0.15004800  1
  H  289  1  0.73374700  0.79207700  0.30173000  1
  H  290  1  0.64835200  0.79403100  0.21379700  1
  H  291  1  0.64268500  0.82991400  0.26227800  1
  H  294  1  0.80653800  0.76465600  0.32565100  1
  H  295  1  0.82914400  0.73341800  0.30267400  1
  H  297  1  0.67272600  0.73344800  0.19912600  1
  H  298  1  0.69536000  0.76468900  0.17618300  1
  H  300  1  0.68862200  0.64473500  0.30304100  1
  H  302  1  0.79870600  0.84625800  0.17876900  1
  H  304  1  0.81324600  0.64474300  0.19879800  1
  H  306  1  0.70315100  0.84625600  0.32306600  1
  H  331  1  0.58076500  0.39281500  0.51284400  1
  H  332  1  0.54431800  0.39781900  0.46473800  1
  H  333  1  0.45462300  0.45623800  0.40043600  1
  H  334  1  0.41831500  0.50378200  0.39079700  1
  H  335  1  0.45365100  0.54955500  0.47992500  1
  H  336  1  0.54329300  0.48435800  0.55156000  1
  H  337  1  0.45364300  0.45230400  0.52192900  1
  H  338  1  0.41831200  0.49808000  0.61105700  1
  H  339  1  0.45462500  0.54561900  0.60141800  1
  H  340  1  0.54330500  0.51748200  0.45030500  1
  H  341  1  0.54433300  0.60402300  0.53712400  1
  H  342  1  0.58079100  0.60901900  0.48902000  1
  H  345  1  0.51483600  0.44414900  0.42681700  1
  H  346  1  0.48352200  0.42221800  0.45033800  1
  H  348  1  0.48352700  0.57963400  0.55151400  1
  H  349  1  0.51483900  0.55770300  0.57504000  1
  H  351  1  0.39733100  0.56520100  0.44641700  1
  H  353  1  0.59747900  0.45425300  0.57292900  1
  H  355  1  0.39732600  0.43665900  0.55544000  1
  H  357  1  0.59751000  0.54757300  0.42895100  1
  H  382  1  0.92105400  0.60901400  0.01280800  1
  H  383  1  0.95751200  0.60401200  0.96471100  1
  H  384  1  0.04722400  0.54560400  0.90042700  1
  H  385  1  0.08353900  0.49806900  0.89079600  1
  H  386  1  0.04820400  0.45229900  0.97992600  1
  H  387  1  0.95855000  0.51748900  0.05154600  1
  H  388  1  0.04819800  0.54955800  0.02192900  1
  H  389  1  0.08353900  0.50378000  0.11105300  1
  H  390  1  0.04723000  0.45624000  0.10141500  1
  H  391  1  0.95856500  0.48435300  0.95029000  1
  H  392  1  0.95753700  0.39781900  0.03711600  1
  H  393  1  0.92108700  0.39281500  0.98901300  1
  H  396  1  0.98701600  0.55768500  0.92680300  1
  H  397  1  0.01831500  0.57963100  0.95032800  1
  H  399  1  0.01832700  0.42221800  0.05151100  1
  H  400  1  0.98701900  0.44415100  0.07503700  1
  H  402  1  0.10452000  0.43663600  0.94642000  1
  H  404  1  0.90433500  0.54758600  0.07289300  1
  H  406  1  0.10451600  0.56520800  0.05543500  1
  H  408  1  0.90437100  0.45424300  0.92892100  1
  H  419  1  0.92245700  0.89571100  0.14981400  1
  H  420  1  0.88614300  0.85845400  0.18009100  1
  H  423  1  0.78118000  0.80649700  0.04544000  1
  H  424  1  0.81406600  0.77826600  0.03433000  1
  H  426  1  0.78341200  0.83569300  0.99261000  1
  H  427  1  0.78698100  0.79242900  0.98176400  1
  H  429  1  0.82881800  0.82787400  0.94991000  1
  H  430  1  0.84933100  0.79818200  0.97638000  1
  H  431  1  0.84176800  0.87446900  0.98709000  1
  H  432  1  0.87923800  0.85012100  0.98482700  1
  H  434  1  0.85513000  0.79740300  0.16755700  1
  H  435  1  0.81868500  0.80339700  0.14271900  1
  H  437  1  0.93796000  0.89440000  0.06103300  1
  H  438  1  0.94756900  0.91512100  0.09911700  1
  H  449  1  0.57940400  0.10613500  0.64982600  1
  H  450  1  0.61571400  0.14339500  0.68010200  1
  H  453  1  0.72067000  0.19534600  0.54544200  1
  H  454  1  0.68778900  0.22357900  0.53432400  1
  H  456  1  0.71844000  0.16614200  0.49261700  1
  H  457  1  0.71487400  0.20940300  0.48176100  1
  H  459  1  0.67303700  0.17395600  0.44991200  1
  H  460  1  0.65252400  0.20365300  0.47637700  1
  H  461  1  0.66008200  0.12736700  0.48709900  1
  H  462  1  0.62261200  0.15171800  0.48483100  1
  H  464  1  0.64672200  0.20445800  0.66755700  1
  H  465  1  0.68316700  0.19845600  0.64272000  1
  H  467  1  0.56388400  0.10745300  0.56104700  1
  H  468  1  0.55428300  0.08672900  0.59913200  1
  H  479  1  0.34820400  0.67135100  0.40655400  1
  H  480  1  0.38516800  0.63406600  0.43626100  1
  H  483  1  0.44511600  0.53902500  0.29840400  1
  H  484  1  0.47310100  0.57273100  0.28940800  1
  H  486  1  0.41721900  0.54320400  0.24492600  1
  H  487  1  0.46073300  0.54758600  0.23542400  1
  H  489  1  0.42569600  0.59041700  0.20439700  1
  H  490  1  0.45456700  0.61001400  0.23242100  1
  H  491  1  0.37809100  0.60156200  0.24084700  1
  H  492  1  0.40223600  0.63923000  0.24083600  1
  H  494  1  0.44175200  0.60342000  0.43342900  1
  H  495  1  0.45142900  0.58090700  0.39651600  1
  H  497  1  0.35383100  0.69349200  0.31918300  1
  H  498  1  0.33067300  0.69960300  0.35659300  1
  H  509  1  0.15362300  0.33049500  0.90654500  1
  H  510  1  0.11666200  0.36778800  0.93624900  1
  H  513  1  0.05677000  0.46285700  0.79839000  1
  H  514  1  0.02876500  0.42916600  0.78939400  1
  H  516  1  0.08466100  0.45867000  0.74491200  1
  H  517  1  0.04114700  0.45430400  0.73541000  1
  H  519  1  0.07616900  0.41145800  0.70438400  1
  H  520  1  0.04729000  0.39187100  0.73240800  1
  H  521  1  0.12376900  0.40030000  0.74083700  1
  H  522  1  0.09961200  0.36263700  0.74082400  1
  H  524  1  0.06008100  0.39844700  0.93340700  1
  H  525  1  0.05043100  0.42098000  0.89649900  1
  H  527  1  0.14801100  0.30837000  0.81916900  1
  H  528  1  0.17116000  0.30225200  0.85658300  1
  H  539  1  0.57940600  0.89571600  0.35203600  1
  H  540  1  0.61571900  0.85845900  0.32176300  1
  H  543  1  0.72068000  0.80651300  0.45642300  1
  H  544  1  0.68779400  0.77828100  0.46753000  1
  H  546  1  0.71844500  0.83570500  0.50925200  1
  H  547  1  0.71487400  0.79244400  0.52009900  1
  H  549  1  0.67303500  0.82788900  0.55195000  1
  H  550  1  0.65252400  0.79819700  0.52547500  1
  H  551  1  0.66008700  0.87448400  0.51476800  1
  H  552  1  0.62261700  0.85013600  0.51702800  1
  H  554  1  0.64673000  0.79740300  0.33431500  1
  H  555  1  0.68318200  0.80340900  0.35914200  1
  H  557  1  0.56390000  0.89440500  0.44082000  1
  H  558  1  0.55428600  0.91512100  0.40273200  1
  H  569  1  0.92244900  0.10613800  0.85203200  1
  H  570  1  0.88613800  0.14339500  0.82175300  1
  H  573  1  0.78117700  0.19534600  0.95640800  1
  H  574  1  0.81405600  0.22358000  0.96752500  1
  H  576  1  0.78340500  0.16614300  0.00923400  1
  H  577  1  0.78697100  0.20940400  0.02008800  1
  H  579  1  0.82880500  0.17395900  0.05193800  1
  H  580  1  0.84931900  0.20365600  0.02547600  1
  H  581  1  0.84176500  0.12737000  0.01475300  1
  H  582  1  0.87923300  0.15172200  0.01702300  1
  H  584  1  0.85512300  0.20445400  0.83428800  1
  H  585  1  0.81868300  0.19845600  0.85913000  1
  H  587  1  0.93796300  0.10745700  0.94081300  1
  H  588  1  0.94757200  0.08673600  0.90272800  1
  H  599  1  0.15364000  0.67134900  0.09530200  1
  H  600  1  0.11667500  0.63406300  0.06559900  1
  H  603  1  0.05674300  0.53902000  0.20345800  1
  H  604  1  0.02875400  0.57272400  0.21245700  1
  H  606  1  0.08464300  0.54319900  0.25693500  1
  H  607  1  0.04113000  0.54757800  0.26644000  1
  H  609  1  0.07616600  0.59041200  0.29746500  1
  H  610  1  0.04729100  0.61000600  0.26944400  1
  H  611  1  0.12376700  0.60156000  0.26101000  1
  H  612  1  0.09962000  0.63922700  0.26102300  1
  H  614  1  0.06008800  0.60341500  0.06843700  1
  H  615  1  0.05042600  0.58089200  0.10534900  1
  H  617  1  0.14801800  0.69349000  0.18267300  1
  H  618  1  0.17117400  0.69960000  0.14526300  1
  H  629  1  0.34821200  0.33050000  0.59530200  1
  H  630  1  0.38517300  0.36779100  0.56559600  1
  H  633  1  0.44508500  0.46285200  0.70345000  1
  H  634  1  0.47308600  0.42915600  0.71244400  1
  H  636  1  0.41719800  0.45866500  0.75693300  1
  H  637  1  0.46071300  0.45429400  0.76643000  1
  H  639  1  0.42569100  0.41145200  0.79745800  1
  H  640  1  0.45456200  0.39186300  0.76943000  1
  H  641  1  0.37808600  0.40030000  0.76101100  1
  H  642  1  0.40223600  0.36263500  0.76101800  1
  H  644  1  0.44174900  0.39844400  0.56842800  1
  H  645  1  0.45142100  0.42095700  0.60534100  1
  H  647  1  0.35383100  0.30837200  0.68267900  1
  H  648  1  0.33068000  0.30225200  0.64526700  1
  H  659  1  0.08146700  0.10019000  0.85006800  1
  H  660  1  0.11944500  0.13490300  0.81883000  1
  H  663  1  0.22028100  0.19421700  0.95314500  1
  H  664  1  0.18787800  0.22395900  0.96137700  1
  H  666  1  0.21537200  0.16832900  0.00760400  1
  H  667  1  0.21330800  0.21232800  0.01551700  1
  H  669  1  0.16914200  0.18076800  0.04829800  1
  H  670  1  0.15069000  0.20946400  0.01934500  1
  H  671  1  0.15481200  0.13239700  0.01427200  1
  H  672  1  0.11868600  0.15877600  0.01304200  1
  H  674  1  0.14807600  0.19854500  0.83153700  1
  H  675  1  0.18518400  0.19268800  0.85542100  1
  H  677  1  0.05703500  0.11536600  0.93021200  1
  H  678  1  0.05521400  0.08184300  0.90101900  1
  H  689  1  0.42041600  0.90165000  0.35005700  1
  H  690  1  0.38243900  0.86692800  0.31881100  1
  H  693  1  0.28157600  0.80763900  0.45311700  1
  H  694  1  0.31397100  0.77789700  0.46137600  1
  H  696  1  0.28646700  0.83355400  0.50756700  1
  H  697  1  0.28852200  0.78955800  0.51550200  1
  H  699  1  0.33268000  0.82112500  0.54828400  1
  H  700  1  0.35113800  0.79241300  0.51935200  1
  H  701  1  0.34703000  0.86947700  0.51424200  1
  H  702  1  0.38315300  0.84309400  0.51303900  1
  H  704  1  0.35380600  0.80329500  0.33148500  1
  H  705  1  0.31671800  0.80912500  0.35540500  1
  H  707  1  0.44483500  0.88648200  0.43020400  1
  H  708  1  0.44665500  0.92000400  0.40100600  1
  H  719  1  0.64877000  0.32992800  0.59929200  1
  H  720  1  0.61084400  0.36657800  0.57027800  1
  H  723  1  0.56242400  0.46997000  0.70766200  1
  H  724  1  0.53369400  0.43727400  0.71784800  1
  H  726  1  0.59118700  0.46605200  0.76055800  1
  H  727  1  0.54788200  0.46232100  0.77119100  1
  H  729  1  0.58311400  0.41938300  0.80180200  1
  H  730  1  0.55338500  0.39980900  0.77466400  1
  H  731  1  0.62971500  0.40763000  0.76405800  1
  H  732  1  0.60542700  0.37007900  0.76555200  1
  H  734  1  0.54985400  0.39691500  0.58462600  1
  H  735  1  0.55606000  0.43307900  0.60977900  1
  H  737  1  0.64885400  0.31295600  0.68775600  1
  H  738  1  0.66909800  0.30399600  0.64924600  1
  H  749  1  0.85308800  0.67192800  0.09928300  1
  H  750  1  0.89098500  0.63525600  0.07026400  1
  H  753  1  0.93939300  0.53185700  0.20764300  1
  H  754  1  0.96815100  0.56453200  0.21780800  1
  H  756  1  0.91066300  0.53580300  0.26054900  1
  H  757  1  0.95397300  0.53951100  0.27116300  1
  H  759  1  0.91877900  0.58247400  0.30178300  1
  H  760  1  0.94850800  0.60202500  0.27462800  1
  H  761  1  0.87216800  0.59424700  0.26405800  1
  H  762  1  0.89647800  0.63178500  0.26553600  1
  H  764  1  0.95196600  0.60492100  0.08460300  1
  H  765  1  0.94576200  0.56874700  0.10974500  1
  H  767  1  0.85301400  0.68889800  0.18775200  1
  H  768  1  0.83277200  0.69786400  0.14924100  1
  H  779  1  0.42038300  0.10018900  0.65178700  1
  H  780  1  0.38240600  0.13490200  0.68302300  1
  H  783  1  0.28156400  0.19421400  0.54871200  1
  H  784  1  0.31396600  0.22395500  0.54047800  1
  H  786  1  0.28647200  0.16832400  0.49425200  1
  H  787  1  0.28853500  0.21232400  0.48634000  1
  H  789  1  0.33270000  0.18076300  0.45355700  1
  H  790  1  0.35115300  0.20946000  0.48251000  1
  H  791  1  0.34703200  0.13239300  0.48758200  1
  H  792  1  0.38315600  0.15877300  0.48881000  1
  H  794  1  0.35377500  0.19854500  0.67031600  1
  H  795  1  0.31666500  0.19268500  0.64643400  1
  H  797  1  0.44481200  0.11536100  0.57163800  1
  H  798  1  0.44663200  0.08183800  0.60083600  1
  H  809  1  0.08142900  0.90164700  0.15178300  1
  H  810  1  0.11940200  0.86692600  0.18303200  1
  H  813  1  0.22027000  0.80763600  0.04872900  1
  H  814  1  0.18787600  0.77789400  0.04046800  1
  H  816  1  0.21538100  0.83355100  0.99428100  1
  H  817  1  0.21332600  0.78955300  0.98634500  1
  H  819  1  0.16917100  0.82112300  0.95356100  1
  H  820  1  0.15071000  0.79241100  0.98249300  1
  H  821  1  0.15482000  0.86947700  0.98760300  1
  H  822  1  0.11869700  0.84309200  0.98880600  1
  H  824  1  0.14803300  0.80328300  0.17034100  1
  H  825  1  0.18513100  0.80912700  0.14643800  1
  H  827  1  0.05701300  0.88648700  0.07163600  1
  H  828  1  0.05519700  0.92000900  0.10083400  1
  H  839  1  0.85310500  0.32990800  0.90256800  1
  H  840  1  0.89102900  0.36656100  0.93158200  1
  H  843  1  0.93942600  0.46997200  0.79420600  1
  H  844  1  0.96815800  0.43728100  0.78401200  1
  H  846  1  0.91066100  0.46605400  0.74131300  1
  H  847  1  0.95396600  0.46233100  0.73067400  1
  H  849  1  0.91873600  0.41939000  0.70006100  1
  H  850  1  0.94847000  0.39981900  0.72719300  1
  H  851  1  0.87214000  0.40762800  0.73780700  1
  H  852  1  0.89643300  0.37007900  0.73630600  1
  H  854  1  0.95200900  0.39691000  0.91724500  1
  H  855  1  0.94580500  0.43307200  0.89208700  1
  H  857  1  0.85301400  0.31294600  0.81409900  1
  H  858  1  0.83277200  0.30398100  0.85261200  1
  H  869  1  0.64877800  0.67191100  0.40255500  1
  H  870  1  0.61087700  0.63524000  0.43157300  1
  H  873  1  0.56245900  0.53185400  0.29418700  1
  H  874  1  0.53370400  0.56453200  0.28402400  1
  H  876  1  0.59119200  0.53579800  0.24128100  1
  H  877  1  0.54787900  0.53951100  0.23066800  1
  H  879  1  0.58307900  0.58247400  0.20005000  1
  H  880  1  0.55335200  0.60202800  0.22720700  1
  H  881  1  0.62969200  0.59423700  0.23777600  1
  H  882  1  0.60538700  0.63177800  0.23630200  1
  H  884  1  0.54989200  0.60491400  0.41722400  1
  H  885  1  0.55609600  0.56873700  0.39208800  1
  H  887  1  0.64884800  0.68888300  0.31408800  1
  H  888  1  0.66908800  0.69785100  0.35259800  1
  C  1  1  0.01962600  0.03156400  0.99988800  1
  C  2  1  0.01941300  0.05589300  0.02635900  1
  C  3  1  0.97312500  0.02402500  0.05675100  1
  C  4  1  0.97347600  0.99840700  0.03152100  1
  C  5  1  0.95165700  0.97006400  0.03597900  1
  C  6  1  0.92990600  0.96731000  0.06424400  1
  C  7  1  0.92928100  0.99357200  0.08820100  1
  C  8  1  0.95080700  0.02153000  0.08461500  1
  C  9  1  0.04183400  0.08372900  0.02532300  1
  C  10  1  0.06419700  0.08796400  0.99815400  1
  C  11  1  0.06426600  0.06494100  0.97100800  1
  C  12  1  0.04213300  0.03685900  0.97222300  1
  C  13  1  0.01962500  0.97028500  0.00196700  1
  C  14  1  0.01940800  0.94595200  0.97549900  1
  C  15  1  0.97312000  0.97782000  0.94510600  1
  C  16  1  0.97347900  0.00344400  0.97033000  1
  C  17  1  0.95081200  0.98032100  0.91723500  1
  C  18  1  0.92929300  0.00828600  0.91364300  1
  C  19  1  0.92991600  0.03454700  0.93760100  1
  C  20  1  0.95166500  0.03179000  0.96586800  1
  C  21  1  0.04213400  0.96499200  0.02963100  1
  C  22  1  0.06427300  0.93691300  0.03084100  1
  C  23  1  0.06420400  0.91389100  0.00369600  1
  C  24  1  0.04183000  0.91811800  0.97653400  1
  C  37  1  0.99653100  0.00092500  0.00092600  1
  C  38  1  0.99597700  0.94817400  0.94635700  1
  C  41  1  0.99598400  0.05366800  0.05550300  1
  C  52  1  0.48222400  0.97028700  0.49988200  1
  C  53  1  0.48244100  0.94595400  0.52635100  1
  C  54  1  0.52872300  0.97782800  0.55675100  1
  C  55  1  0.52837100  0.00344600  0.53152000  1
  C  56  1  0.55019000  0.03178900  0.53598200  1
  C  57  1  0.57193900  0.03454300  0.56424900  1
  C  58  1  0.57256700  0.00827900  0.58820200  1
  C  59  1  0.55103300  0.98032600  0.58462000  1
  C  60  1  0.46002200  0.91811800  0.52531100  1
  C  61  1  0.43766100  0.91388100  0.49813800  1
  C  62  1  0.43758800  0.93690700  0.47099800  1
  C  63  1  0.45971800  0.96499200  0.47221500  1
  C  64  1  0.48222100  0.03156800  0.50196500  1
  C  65  1  0.48243900  0.05590100  0.47549800  1
  C  66  1  0.52872800  0.02403500  0.44510300  1
  C  67  1  0.52837400  0.99841400  0.47032900  1
  C  68  1  0.55103600  0.02153700  0.41723100  1
  C  69  1  0.57255900  0.99357700  0.41364200  1
  C  70  1  0.57193900  0.96731500  0.43760000  1
  C  71  1  0.55019300  0.97007200  0.46586900  1
  C  72  1  0.45971300  0.03685900  0.52963200  1
  C  73  1  0.43757000  0.06493400  0.53084100  1
  C  74  1  0.43764800  0.08796500  0.50370400  1
  C  75  1  0.46002000  0.08374000  0.47653900  1
  C  88  1  0.50531900  0.00092800  0.50092500  1
  C  89  1  0.50587100  0.05368100  0.44635600  1
  C  92  1  0.50586600  0.94818200  0.55549800  1
  C  103  1  0.22041000  0.77267500  0.24859800  1
  C  104  1  0.19513400  0.77287000  0.27417300  1
  C  105  1  0.22538300  0.72630200  0.30578300  1
  C  106  1  0.25207400  0.72649700  0.28167800  1
  C  107  1  0.28027000  0.70482500  0.28761600  1
  C  108  1  0.28181200  0.68329100  0.31616300  1
  C  109  1  0.25441400  0.68265600  0.33881300  1
  C  110  1  0.22662300  0.70411800  0.33383700  1
  C  111  1  0.16771400  0.79577200  0.27217000  1
  C  112  1  0.16483200  0.81830600  0.24493600  1
  C  113  1  0.18882500  0.81783500  0.21868900  1
  C  114  1  0.21635600  0.79511700  0.22069100  1
  C  115  1  0.28142700  0.77268000  0.25326200  1
  C  116  1  0.30670200  0.77288000  0.22768800  1
  C  117  1  0.27646300  0.72630500  0.19607800  1
  C  118  1  0.24977200  0.72649500  0.22018500  1
  C  119  1  0.27523100  0.70411600  0.16802900  1
  C  120  1  0.24743700  0.68265800  0.16304700  1
  C  121  1  0.22003700  0.68329400  0.18569200  1
  C  122  1  0.22157800  0.70482000  0.21424600  1
  C  123  1  0.28547200  0.79513000  0.28116400  1
  C  124  1  0.31298700  0.81786800  0.28315800  1
  C  125  1  0.33700800  0.81830600  0.25693500  1
  C  126  1  0.33412000  0.79578500  0.22969200  1
  C  139  1  0.25092000  0.74948600  0.25093000  1
  C  140  1  0.30587100  0.74938200  0.19853300  1
  C  143  1  0.19597400  0.74937700  0.30333000  1
  C  154  1  0.28143200  0.22918800  0.74859500  1
  C  155  1  0.30671200  0.22899400  0.77416600  1
  C  156  1  0.27646300  0.27556200  0.80578100  1
  C  157  1  0.24977300  0.27537000  0.78167100  1
  C  158  1  0.22157900  0.29704500  0.78760900  1
  C  159  1  0.22003200  0.31856600  0.81616400  1
  C  160  1  0.24743100  0.31920400  0.83881100  1
  C  161  1  0.27522800  0.29775100  0.83382700  1
  C  162  1  0.33413000  0.20609200  0.77216300  1
  C  163  1  0.33701800  0.18356800  0.74492200  1
  C  164  1  0.31300400  0.18401500  0.71869300  1
  C  165  1  0.28547700  0.20673600  0.72069300  1
  C  166  1  0.22041500  0.22918800  0.75326000  1
  C  167  1  0.19513400  0.22899300  0.72769200  1
  C  168  1  0.22537700  0.27556500  0.69607700  1
  C  169  1  0.25207300  0.27536500  0.72017900  1
  C  170  1  0.22661400  0.29774600  0.66802300  1
  C  171  1  0.25441600  0.31918800  0.66303100  1
  C  172  1  0.28180900  0.31856300  0.68568300  1
  C  173  1  0.28027000  0.29703700  0.71423600  1
  C  174  1  0.21637100  0.20673700  0.78116200  1
  C  175  1  0.18884700  0.18401100  0.78316400  1
  C  176  1  0.16484100  0.18355100  0.75692800  1
  C  177  1  0.16771600  0.20608900  0.72969700  1
  C  190  1  0.25092300  0.25237900  0.75092600  1
  C  191  1  0.19596500  0.25249200  0.69853700  1
  C  194  1  0.30587600  0.25249000  0.80332300  1
  C  205  1  0.78145300  0.23086100  0.75401200  1
  C  206  1  0.80704200  0.23044400  0.72876000  1
  C  207  1  0.77686700  0.27638200  0.69600600  1
  C  208  1  0.75029900  0.27693200  0.72022000  1
  C  209  1  0.72250300  0.29910500  0.71434000  1
  C  210  1  0.72112800  0.32038300  0.68562200  1
  C  211  1  0.74824800  0.32008200  0.66262600  1
  C  212  1  0.77570700  0.29816600  0.66763000  1
  C  213  1  0.83497900  0.20830400  0.73192200  1
  C  214  1  0.83830000  0.18713100  0.76019800  1
  C  215  1  0.81406800  0.18799100  0.78622700  1
  C  216  1  0.78569600  0.20947600  0.78274700  1
  C  217  1  0.72039700  0.23086900  0.74784600  1
  C  218  1  0.69481100  0.23045100  0.77310000  1
  C  219  1  0.72499600  0.27637700  0.80586200  1
  C  220  1  0.75156200  0.27692700  0.78164300  1
  C  221  1  0.72616300  0.29815400  0.83424200  1
  C  222  1  0.75362200  0.32006900  0.83924400  1
  C  223  1  0.78073900  0.32037300  0.81624300  1
  C  224  1  0.77936000  0.29910300  0.78752100  1
  C  225  1  0.71615200  0.20948800  0.71910800  1
  C  226  1  0.68777400  0.18800700  0.71562500  1
  C  227  1  0.66352500  0.18717600  0.74163900  1
  C  228  1  0.66686800  0.20831900  0.76993300  1
  C  241  1  0.75092900  0.25392300  0.75093100  1
  C  242  1  0.69578000  0.25306300  0.80298900  1
  C  245  1  0.80608000  0.25306500  0.69887900  1
  C  256  1  0.72039900  0.77098600  0.25400600  1
  C  257  1  0.69481300  0.77140700  0.22875100  1
  C  258  1  0.72499600  0.72547700  0.19599200  1
  C  259  1  0.75156200  0.72492500  0.22021000  1
  C  260  1  0.77936000  0.70275100  0.21433100  1
  C  261  1  0.78073700  0.68147900  0.18561100  1
  C  262  1  0.75362000  0.68178000  0.16261100  1
  C  263  1  0.72615800  0.70369300  0.16761800  1
  C  264  1  0.66687600  0.79354700  0.23191200  1
  C  265  1  0.66352500  0.81467800  0.26021500  1
  C  266  1  0.68776900  0.81383500  0.28623400  1
  C  267  1  0.71615700  0.79236800  0.28274100  1
  C  268  1  0.78145600  0.77099100  0.24783900  1
  C  269  1  0.80704900  0.77140200  0.27308700  1
  C  270  1  0.77687200  0.72546700  0.30584400  1
  C  271  1  0.75029900  0.72492500  0.28163500  1
  C  272  1  0.77571200  0.70367800  0.33421600  1
  C  273  1  0.74823800  0.68178800  0.33923600  1
  C  274  1  0.72112300  0.68147600  0.31623200  1
  C  275  1  0.72250000  0.70274900  0.28751200  1
  C  276  1  0.78569800  0.79237600  0.21910600  1
  C  277  1  0.81407300  0.81385800  0.21562200  1
  C  278  1  0.83831000  0.81470900  0.24164600  1
  C  279  1  0.83498400  0.79354500  0.26992800  1
  C  292  1  0.75092900  0.74793200  0.25092200  1
  C  293  1  0.80609200  0.74877200  0.30296300  1
  C  296  1  0.69578300  0.74879500  0.19886200  1
  C  307  1  0.52173200  0.53142900  0.49763900  1
  C  308  1  0.52189400  0.55734900  0.52254900  1
  C  309  1  0.47603700  0.52734600  0.55556700  1
  C  310  1  0.47565300  0.50045600  0.53170000  1
  C  311  1  0.45394200  0.47240500  0.53823800  1
  C  312  1  0.43306700  0.47106100  0.56728100  1
  C  313  1  0.43311700  0.49857600  0.58980700  1
  C  314  1  0.45447100  0.52633100  0.58411200  1
  C  315  1  0.54401700  0.58527900  0.51923100  1
  C  316  1  0.56548400  0.58823500  0.49114600  1
  C  317  1  0.56495500  0.56364100  0.46544900  1
  C  318  1  0.54339400  0.53532900  0.46905400  1
  C  319  1  0.52172600  0.47042100  0.50422000  1
  C  320  1  0.52188600  0.44449800  0.47930800  1
  C  321  1  0.47603700  0.47450800  0.44628800  1
  C  322  1  0.47565800  0.50140300  0.47015200  1
  C  323  1  0.45447600  0.47553100  0.41773800  1
  C  324  1  0.43312500  0.50328600  0.41204500  1
  C  325  1  0.43307400  0.53079800  0.43457300  1
  C  326  1  0.45395500  0.52945700  0.46361100  1
  C  327  1  0.54338100  0.46651200  0.53281100  1
  C  328  1  0.56493700  0.43819500  0.53641800  1
  C  329  1  0.56546900  0.41360400  0.51071600  1
  C  330  1  0.54400400  0.41656600  0.48262900  1
  C  343  1  0.49863400  0.50092500  0.50092700  1
  C  344  1  0.49907400  0.44512600  0.44957600  1
  C  347  1  0.49907700  0.55672600  0.55228100  1
  C  358  1  0.98012600  0.47042100  0.99763500  1
  C  359  1  0.97995900  0.44450300  0.02254800  1
  C  360  1  0.02581800  0.47450800  0.05556200  1
  C  361  1  0.02619200  0.50140300  0.03170000  1
  C  362  1  0.04789600  0.52945700  0.03824100  1
  C  363  1  0.06878200  0.53079600  0.06727500  1
  C  364  1  0.06873200  0.50328600  0.08980300  1
  C  365  1  0.04737700  0.47553100  0.08411200  1
  C  366  1  0.95783300  0.41657600  0.01923600  1
  C  367  1  0.93636300  0.41361700  0.99115200  1
  C  368  1  0.93690500  0.43820300  0.96544500  1
  C  369  1  0.95847400  0.46651000  0.96904400  1
  C  370  1  0.98012100  0.53142900  0.00420900  1
  C  371  1  0.97995100  0.55734100  0.97929100  1
  C  372  1  0.02582300  0.52734300  0.94628800  1
  C  373  1  0.02620100  0.50045100  0.97015500  1
  C  374  1  0.04739800  0.52633100  0.91775100  1
  C  375  1  0.06875700  0.49857800  0.91206300  1
  C  376  1  0.06879800  0.47106100  0.93458600  1
  C  377  1  0.04791200  0.47240200  0.96362000  1
  C  378  1  0.95846100  0.53533400  0.03279400  1
  C  379  1  0.93688500  0.56363900  0.03638700  1
  C  380  1  0.93635600  0.58823000  0.01068600  1
  C  381  1  0.95782800  0.58527100  0.98260400  1
  C  394  1  0.00321800  0.50092700  0.00092500  1
  C  395  1  0.00277100  0.55671800  0.94956400  1
  C  398  1  0.00277600  0.44512600  0.05227800  1
  C  409  1  0.90273800  0.88529500  0.10090900  1
  C  410  1  0.87799800  0.86575100  0.08381400  1
  C  411  1  0.85593000  0.84376200  0.10195000  1
  C  412  1  0.85821600  0.84092200  0.13767700  1
  C  413  1  0.88321200  0.86033200  0.15442100  1
  C  414  1  0.90480600  0.88222000  0.13650400  1
  C  416  1  0.83063000  0.82636800  0.04944600  1
  C  417  1  0.85315600  0.84762000  0.03144900  1
  C  421  1  0.80544200  0.80447500  0.03229300  1
  C  422  1  0.79979200  0.81343300  0.99442500  1
  C  425  1  0.83369300  0.82104200  0.97627600  1
  C  428  1  0.85313600  0.85022200  0.99402500  1
  C  433  1  0.83758100  0.81661200  0.15801200  1
  C  436  1  0.92666100  0.90796500  0.08236900  1
  C  439  1  0.59911400  0.11655600  0.60091900  1
  C  440  1  0.62384700  0.13610400  0.58382100  1
  C  441  1  0.64591700  0.15809300  0.60195400  1
  C  442  1  0.64362900  0.16093500  0.63768100  1
  C  443  1  0.61863500  0.14152600  0.65443000  1
  C  444  1  0.59705100  0.11962800  0.63651400  1
  C  446  1  0.67121700  0.17548400  0.54944900  1
  C  447  1  0.64869400  0.15422500  0.53145400  1
  C  451  1  0.69640800  0.19736800  0.53229200  1
  C  452  1  0.70206300  0.18840200  0.49442700  1
  C  455  1  0.66815900  0.18079100  0.47627800  1
  C  458  1  0.64871400  0.15161600  0.49402900  1
  C  463  1  0.66426900  0.18524400  0.65801400  1
  C  466  1  0.57518900  0.09388500  0.58238000  1
  C  469  1  0.36222000  0.65594600  0.35700500  1
  C  470  1  0.38343400  0.63310200  0.33929200  1
  C  471  1  0.40546600  0.61076800  0.35701500  1
  C  472  1  0.40682000  0.61096100  0.39292100  1
  C  473  1  0.38499800  0.63330700  0.41036700  1
  C  474  1  0.36327800  0.65540700  0.39280000  1
  C  476  1  0.42462300  0.58808600  0.30393000  1
  C  477  1  0.40367600  0.61121400  0.28635800  1
  C  481  1  0.44714300  0.56383400  0.28631200  1
  C  482  1  0.43926600  0.55967800  0.24802100  1
  C  485  1  0.43183200  0.59424900  0.23110500  1
  C  488  1  0.40207200  0.61276000  0.24890300  1
  C  493  1  0.43043400  0.58897200  0.41267800  1
  C  496  1  0.33956500  0.68022800  0.33886900  1
  C  499  1  0.13961700  0.34591100  0.85699600  1
  C  500  1  0.11841000  0.36876000  0.83928000  1
  C  501  1  0.09638200  0.39109600  0.85700300  1
  C  502  1  0.09502400  0.39090400  0.89290900  1
  C  503  1  0.11683300  0.36854800  0.91035500  1
  C  504  1  0.13855700  0.34644700  0.89279000  1
  C  506  1  0.07723700  0.41378600  0.80391800  1
  C  507  1  0.09817800  0.39065600  0.78634600  1
  C  511  1  0.05472800  0.43805100  0.78630100  1
  C  512  1  0.06261000  0.44220500  0.74800800  1
  C  515  1  0.07003000  0.40762800  0.73109100  1
  C  518  1  0.09978500  0.38910900  0.74889100  1
  C  523  1  0.07141300  0.41289800  0.91266600  1
  C  526  1  0.16227400  0.32162800  0.83885900  1
  C  529  1  0.59912500  0.88530500  0.40094300  1
  C  530  1  0.62386500  0.86576400  0.41803900  1
  C  531  1  0.64593500  0.84377500  0.39990500  1
  C  532  1  0.64364900  0.84093300  0.36417900  1
  C  533  1  0.61865100  0.86034000  0.34743200  1
  C  534  1  0.59705700  0.88222700  0.36534800  1
  C  536  1  0.67123200  0.82638300  0.45241100  1
  C  537  1  0.64870400  0.84763500  0.47040500  1
  C  541  1  0.69641800  0.80449000  0.46956700  1
  C  542  1  0.70206500  0.81344800  0.50743500  1
  C  545  1  0.66816200  0.82105700  0.52558200  1
  C  548  1  0.64872200  0.85023700  0.50783200  1
  C  553  1  0.66428200  0.81661700  0.34384800  1
  C  556  1  0.57519700  0.90797300  0.41948200  1
  C  559  1  0.90273800  0.11656000  0.90093600  1
  C  560  1  0.87800300  0.13610700  0.91803400  1
  C  561  1  0.85593000  0.15809500  0.89989800  1
  C  562  1  0.85822100  0.16093600  0.86417200  1
  C  563  1  0.88321700  0.14152700  0.84742500  1
  C  564  1  0.90480100  0.11963100  0.86534100  1
  C  566  1  0.83063000  0.17548600  0.95240100  1
  C  567  1  0.85315300  0.15422700  0.97039800  1
  C  571  1  0.80543700  0.19736900  0.96955800  1
  C  572  1  0.79978200  0.18840300  0.00742300  1
  C  575  1  0.83368600  0.18079400  0.02557400  1
  C  578  1  0.85313100  0.15161900  0.00782300  1
  C  583  1  0.83757900  0.18524200  0.84383600  1
  C  586  1  0.92666300  0.09389000  0.91947700  1
  C  589  1  0.13962900  0.65594400  0.14485200  1
  C  590  1  0.11841700  0.63309600  0.16256700  1
  C  591  1  0.09638400  0.61076600  0.14484400  1
  C  592  1  0.09502700  0.61095600  0.10894000  1
  C  593  1  0.11684600  0.63330200  0.09149200  1
  C  594  1  0.13856900  0.65540400  0.10905700  1
  C  596  1  0.07723300  0.58808100  0.19793000  1
  C  597  1  0.09817700  0.61120900  0.21550100  1
  C  601  1  0.05471400  0.56382600  0.21555000  1
  C  602  1  0.06259500  0.55967000  0.25384200  1
  C  605  1  0.07002700  0.59424200  0.27075800  1
  C  608  1  0.09978600  0.61275500  0.25295700  1
  C  613  1  0.07141400  0.58896400  0.08918400  1
  C  616  1  0.16228400  0.68022600  0.16298700  1
  C  619  1  0.36222200  0.34591100  0.64485200  1
  C  620  1  0.38343200  0.36876000  0.66256500  1
  C  621  1  0.40545800  0.39109600  0.64483900  1
  C  622  1  0.40681500  0.39090100  0.60893600  1
  C  623  1  0.38500300  0.36854800  0.59149000  1
  C  624  1  0.36328000  0.34645000  0.60905700  1
  C  626  1  0.42461200  0.41378100  0.69792400  1
  C  627  1  0.40366900  0.39065300  0.71549600  1
  C  631  1  0.44712500  0.43804300  0.71554200  1
  C  632  1  0.43924800  0.44219700  0.75383500  1
  C  635  1  0.43182700  0.40762300  0.77074800  1
  C  638  1  0.40206700  0.38910700  0.75295400  1
  C  643  1  0.43042900  0.41289000  0.58917900  1
  C  646  1  0.33956700  0.32163100  0.66298800  1
  C  649  1  0.09943700  0.11372400  0.89885800  1
  C  650  1  0.12367400  0.13425100  0.91561200  1
  C  651  1  0.14692900  0.15442100  0.89691100  1
  C  652  1  0.14595200  0.15494500  0.86105100  1
  C  653  1  0.12169200  0.13434300  0.84463100  1
  C  654  1  0.09924000  0.11379800  0.86309100  1
  C  656  1  0.17043600  0.17538000  0.94893800  1
  C  657  1  0.14659400  0.15618300  0.96751800  1
  C  661  1  0.19570400  0.19772500  0.96536600  1
  C  662  1  0.19999000  0.19105500  0.00386700  1
  C  665  1  0.16530200  0.18602500  0.02140500  1
  C  668  1  0.14506800  0.15657600  0.00501300  1
  C  673  1  0.16605400  0.17942200  0.84045700  1
  C  676  1  0.07223500  0.09571900  0.91792300  1
  C  679  1  0.40243900  0.88811000  0.39884200  1
  C  680  1  0.37820400  0.86757600  0.41559600  1
  C  681  1  0.35495200  0.84740500  0.39689500  1
  C  682  1  0.35595000  0.84687100  0.36103500  1
  C  683  1  0.38021400  0.86746300  0.34461200  1
  C  684  1  0.40263400  0.88804400  0.36307300  1
  C  686  1  0.33142700  0.82646400  0.44892000  1
  C  687  1  0.35526400  0.84567100  0.46749900  1
  C  691  1  0.30614700  0.80413300  0.46535000  1
  C  692  1  0.30184700  0.81082300  0.50384800  1
  C  695  1  0.33653000  0.81585500  0.52139700  1
  C  698  1  0.35677500  0.84529400  0.50499700  1
  C  703  1  0.33583400  0.82240600  0.34043600  1
  C  706  1  0.42963200  0.90612500  0.41791000  1
  C  709  1  0.63923500  0.34887200  0.64867600  1
  C  710  1  0.61996700  0.37331400  0.66650400  1
  C  711  1  0.59769900  0.39569500  0.64909900  1
  C  712  1  0.59409700  0.39386800  0.61341300  1
  C  713  1  0.61324900  0.36917500  0.59593800  1
  C  714  1  0.63552400  0.34737100  0.61311200  1
  C  716  1  0.58136800  0.42029200  0.70226800  1
  C  717  1  0.60264000  0.39725500  0.71956900  1
  C  721  1  0.55998400  0.44539700  0.72014100  1
  C  722  1  0.56886800  0.44982600  0.75818300  1
  C  725  1  0.57630500  0.41535100  0.77529200  1
  C  728  1  0.60545300  0.39639200  0.75697100  1
  C  733  1  0.56911700  0.41453800  0.59392500  1
  C  736  1  0.66217600  0.32460300  0.66645100  1
  C  739  1  0.86262500  0.65298200  0.14866700  1
  C  740  1  0.88189100  0.62853500  0.16649300  1
  C  741  1  0.90414000  0.60614100  0.14908200  1
  C  742  1  0.90772000  0.60794800  0.11339500  1
  C  743  1  0.88858600  0.63266100  0.09592500  1
  C  744  1  0.86631800  0.65447300  0.11310200  1
  C  746  1  0.92048500  0.58155000  0.20224700  1
  C  747  1  0.89923000  0.60460000  0.21955500  1
  C  751  1  0.94185900  0.55643200  0.22011700  1
  C  752  1  0.93298700  0.55201500  0.25816200  1
  C  755  1  0.92558000  0.58649600  0.27526900  1
  C  758  1  0.89643300  0.60547000  0.25695800  1
  C  763  1  0.93270300  0.58729100  0.09389900  1
  C  766  1  0.83969200  0.67725400  0.16644500  1
  C  769  1  0.40241100  0.11372200  0.60299700  1
  C  770  1  0.37817400  0.13424900  0.58624300  1
  C  771  1  0.35491900  0.15441900  0.60494400  1
  C  772  1  0.35589700  0.15494300  0.64080700  1
  C  773  1  0.38015900  0.13434200  0.65722400  1
  C  774  1  0.40260800  0.11379700  0.63876400  1
  C  776  1  0.33140900  0.17537700  0.55291900  1
  C  777  1  0.35525100  0.15617900  0.53433700  1
  C  781  1  0.30614000  0.19772100  0.53648900  1
  C  782  1  0.30185200  0.19105100  0.49798800  1
  C  785  1  0.33654000  0.18602100  0.48044900  1
  C  788  1  0.35677500  0.15657200  0.49684200  1
  C  793  1  0.33579600  0.17942100  0.66139800  1
  C  796  1  0.42961200  0.09571400  0.58392900  1
  C  799  1  0.09940900  0.88811000  0.10300100  1
  C  800  1  0.12364100  0.86757600  0.08624700  1
  C  801  1  0.14689300  0.84740200  0.10494900  1
  C  802  1  0.14589400  0.84687100  0.14080800  1
  C  803  1  0.12162900  0.86746000  0.15723000  1
  C  804  1  0.09921200  0.88804400  0.13877000  1
  C  806  1  0.17041900  0.82646400  0.05292400  1
  C  807  1  0.14658500  0.84566800  0.03434300  1
  C  811  1  0.19569900  0.80413100  0.03649400  1
  C  812  1  0.20000100  0.81082100  0.99799900  1
  C  815  1  0.16532000  0.81585300  0.98045000  1
  C  818  1  0.14507500  0.84529100  0.99684500  1
  C  823  1  0.16600700  0.82240100  0.16140600  1
  C  826  1  0.07221700  0.90612700  0.08393100  1
  C  829  1  0.86263500  0.34885700  0.85318400  1
  C  830  1  0.88190300  0.37330400  0.83535600  1
  C  831  1  0.90416600  0.39568500  0.85276400  1
  C  832  1  0.90777300  0.39385500  0.88844700  1
  C  833  1  0.88862100  0.36916000  0.90592200  1
  C  834  1  0.86634900  0.34735400  0.88874800  1
  C  836  1  0.92049000  0.42029200  0.79959700  1
  C  837  1  0.89922200  0.39725000  0.78229400  1
  C  841  1  0.94186900  0.44539900  0.78172100  1
  C  842  1  0.93297900  0.44983400  0.74368200  1
  C  845  1  0.92554700  0.41535800  0.72657100  1
  C  848  1  0.89640500  0.39639200  0.74489200  1
  C  853  1  0.93274600  0.41453000  0.90793700  1
  C  856  1  0.83969500  0.32459000  0.83540900  1
  C  859  1  0.63924000  0.65296700  0.35317000  1
  C  860  1  0.61997200  0.62852300  0.33534300  1
  C  861  1  0.59772000  0.60612900  0.35275300  1
  C  862  1  0.59414100  0.60793300  0.38844100  1
  C  863  1  0.61327700  0.63264600  0.40591200  1
  C  864  1  0.63554700  0.65445500  0.38873700  1
  C  866  1  0.58137500  0.58154200  0.29958600  1
  C  867  1  0.60263000  0.60459200  0.28228000  1
  C  871  1  0.55999600  0.55642700  0.28171600  1
  C  872  1  0.56886800  0.55201300  0.24366900  1
  C  875  1  0.57628000  0.58649600  0.22656600  1
  C  878  1  0.60542700  0.60546300  0.24487800  1
  C  883  1  0.56915200  0.58728100  0.40793400  1
  C  886  1  0.66217000  0.67724200  0.33539600  1
  N  44  1  0.90896200  0.06291600  0.93145500  1
  N  46  1  0.08619600  0.93007100  0.05844200  1
  N  48  1  0.90895700  0.93893800  0.07039100  1
  N  50  1  0.08620200  0.07177200  0.94341500  1
  N  95  1  0.59289300  0.93894800  0.43145700  1
  N  97  1  0.41564200  0.07176800  0.55844000  1
  N  99  1  0.59288800  0.06291400  0.57039700  1
  N  101  1  0.41565900  0.93007300  0.44339900  1
  N  146  1  0.19191700  0.66249400  0.17797900  1
  N  148  1  0.31894000  0.83917300  0.31129800  1
  N  150  1  0.30993200  0.66249400  0.32387600  1
  N  152  1  0.18288500  0.83915800  0.19055700  1
  N  197  1  0.30992900  0.33936200  0.67797300  1
  N  199  1  0.18291900  0.16268000  0.81128900  1
  N  201  1  0.19191000  0.33936200  0.82387700  1
  N  203  1  0.31893300  0.16268000  0.69056900  1
  N  248  1  0.80843600  0.34187600  0.82355300  1
  N  250  1  0.68161800  0.16789700  0.68660200  1
  N  252  1  0.69343100  0.34188900  0.67831200  1
  N  254  1  0.82022900  0.16788900  0.81525300  1
  N  299  1  0.69343400  0.65996300  0.32353700  1
  N  301  1  0.82022900  0.83396100  0.18659700  1
  N  303  1  0.80843400  0.65997300  0.17830400  1
  N  305  1  0.68162300  0.83395600  0.31525000  1
  N  350  1  0.41239400  0.55885500  0.42620000  1
  N  352  1  0.58557200  0.43248500  0.56517800  1
  N  354  1  0.41238900  0.44300700  0.57565200  1
  N  356  1  0.58559800  0.56934400  0.43669200  1
  N  401  1  0.08946400  0.44299900  0.92620500  1
  N  403  1  0.91625000  0.56935200  0.06514600  1
  N  405  1  0.08945700  0.55885500  0.07565000  1
  N  407  1  0.91628300  0.43248000  0.93667700  1
  N  415  1  0.83342700  0.82515000  0.08369700  1
  N  418  1  0.87548200  0.86646000  0.04950200  1
  N  445  1  0.66842000  0.17670400  0.58370200  1
  N  448  1  0.62636800  0.13538900  0.54950900  1
  N  475  1  0.42486300  0.58933900  0.33828700  1
  N  478  1  0.38385400  0.63226900  0.30488200  1
  N  505  1  0.07699400  0.41253300  0.83827500  1
  N  508  1  0.11799300  0.36959300  0.80487000  1
  N  535  1  0.66843500  0.82516300  0.41816000  1
  N  538  1  0.62638100  0.86647300  0.45235200  1
  N  565  1  0.83342700  0.17670500  0.91815100  1
  N  568  1  0.87547900  0.13539200  0.95234600  1
  N  595  1  0.07699000  0.58933400  0.16357300  1
  N  598  1  0.11799700  0.63226600  0.19697800  1
  N  625  1  0.42485300  0.41252800  0.66356800  1
  N  628  1  0.38385200  0.36959300  0.69697500  1
  N  655  1  0.16901900  0.17400700  0.91463500  1
  N  658  1  0.12465200  0.13639700  0.94996400  1
  N  685  1  0.33285500  0.82782600  0.41461900  1
  N  688  1  0.37721200  0.86544800  0.44994800  1
  N  715  1  0.57954300  0.41802400  0.66800800  1
  N  718  1  0.62112900  0.37518000  0.70085300  1
  N  745  1  0.92229500  0.58380800  0.16798600  1
  N  748  1  0.88074400  0.62667700  0.20084200  1
  N  775  1  0.33282900  0.17400400  0.58722000  1
  N  778  1  0.37719500  0.13639300  0.55188900  1
  N  805  1  0.16899000  0.82782600  0.08722600  1
  N  808  1  0.12463500  0.86544800  0.05189400  1
  N  835  1  0.92231700  0.41801900  0.83385500  1
  N  838  1  0.88073600  0.37517500  0.80101000  1
  N  865  1  0.57956600  0.58379800  0.33384900  1
  N  868  1  0.62112100  0.62666500  0.30099600  1
