# generated using pymatgen
data_H21C31N6
_symmetry_space_group_name_H-M   'P 1'
_cell_length_a   43.53900000
_cell_length_b   43.53900000
_cell_length_c   70.80490000
_cell_angle_alpha   90.00000000
_cell_angle_beta   90.00000000
_cell_angle_gamma   90.00000000
_symmetry_Int_Tables_number   1
_chemical_formula_structural   H21C31N6
_chemical_formula_sum   'H672 C992 N192'
_cell_volume   134220.92074495
_cell_formula_units_Z   32
loop_
 _symmetry_equiv_pos_site_id
 _symmetry_equiv_pos_as_xyz
  1  'x, y, z'
loop_
 _atom_site_type_symbol
 _atom_site_label
 _atom_site_symmetry_multiplicity
 _atom_site_fract_x
 _atom_site_fract_y
 _atom_site_fract_z
 _atom_site_occupancy
  H  49  1  0.11755800  0.09626900  0.20234000  1
  H  50  1  0.10857900  0.13066700  0.17659500  1
  H  51  1  0.02245900  0.07688500  0.20525800  1
  H  52  1  0.01348600  0.11176700  0.17940700  1
  H  53  1  0.05735500  0.08612600  0.14495600  1
  H  54  1  0.05480600  0.08433900  0.10920500  1
  H  55  1  0.05191500  0.17427900  0.12550500  1
  H  56  1  0.05087900  0.22781500  0.12457600  1
  H  57  1  0.05337800  0.17530300  0.19754600  1
  H  58  1  0.05001600  0.23357000  0.19654300  1
  H  59  1  0.09215000  0.29228700  0.17756100  1
  H  60  1  0.08395900  0.33068300  0.20136300  1
  H  61  1  0.99628800  0.28009600  0.17245400  1
  H  62  1  0.98794200  0.31802700  0.19616400  1
  H  63  1  0.04869400  0.31778400  0.14091100  1
  H  64  1  0.04995800  0.31614400  0.10515400  1
  H  65  1  0.04959300  0.16846900  0.05354200  1
  H  66  1  0.04980000  0.22689400  0.05252100  1
  H  67  1  0.00490500  0.28531000  0.07139900  1
  H  68  1  0.00872100  0.32409800  0.04737000  1
  H  69  1  0.10166200  0.27892700  0.07339300  1
  H  70  1  0.10562600  0.31736100  0.04946700  1
  H  71  1  0.09487400  0.11093900  0.07229700  1
  H  72  1  0.08748400  0.07089300  0.04945600  1
  H  73  1  0.99122600  0.07947400  0.05603000  1
  H  74  1  0.99880100  0.11935700  0.07855300  1
  H  79  1  0.04544400  0.34500600  0.02105100  1
  H  80  1  0.04650900  0.35157400  0.22551700  1
  H  81  1  0.08783200  0.07471400  0.23229600  1
  H  82  1  0.05155600  0.03386000  0.03395100  1
  H  131  1  0.48670100  0.31925400  0.70026300  1
  H  132  1  0.49049100  0.28086800  0.67629500  1
  H  133  1  0.58361000  0.32631700  0.70190500  1
  H  134  1  0.58725300  0.28758300  0.67782900  1
  H  135  1  0.54085800  0.31831200  0.64431000  1
  H  136  1  0.54114200  0.32001900  0.60856400  1
  H  137  1  0.54035900  0.22999600  0.62484400  1
  H  138  1  0.54165500  0.17643100  0.62387700  1
  H  139  1  0.54363000  0.22908600  0.69687700  1
  H  140  1  0.54501200  0.17070500  0.69583400  1
  H  141  1  0.50015200  0.11309600  0.67768400  1
  H  142  1  0.50850000  0.07500400  0.70164200  1
  H  143  1  0.59599700  0.12290500  0.67089300  1
  H  144  1  0.60451300  0.08530900  0.69475700  1
  H  145  1  0.53936200  0.08650900  0.64024900  1
  H  146  1  0.53596300  0.08824700  0.60451200  1
  H  147  1  0.54024400  0.23586700  0.55288200  1
  H  148  1  0.53817000  0.17751400  0.55187500  1
  H  149  1  0.57898200  0.11363100  0.57006200  1
  H  150  1  0.56981300  0.07848300  0.54437200  1
  H  151  1  0.48395700  0.13285000  0.57291100  1
  H  152  1  0.47478800  0.09821400  0.54732200  1
  H  153  1  0.49739500  0.29448100  0.57236700  1
  H  154  1  0.50484400  0.33481900  0.54973400  1
  H  155  1  0.60111400  0.32393300  0.55489600  1
  H  156  1  0.59346300  0.28375700  0.57719100  1
  H  161  1  0.50392500  0.07597200  0.51752200  1
  H  162  1  0.54609900  0.05326300  0.72516000  1
  H  163  1  0.54697200  0.34694400  0.72846800  1
  H  164  1  0.54079600  0.37107200  0.53379900  1
  H  213  1  0.97454900  0.60100800  0.54635600  1
  H  214  1  0.98490500  0.63559300  0.57177800  1
  H  215  1  0.06879200  0.57773900  0.54363900  1
  H  216  1  0.07916300  0.61284800  0.56917800  1
  H  217  1  0.03548200  0.58856000  0.60313300  1
  H  218  1  0.03766700  0.58603100  0.63887500  1
  H  219  1  0.04238900  0.67621700  0.62326500  1
  H  220  1  0.04280000  0.72987200  0.62470200  1
  H  221  1  0.04155800  0.67881000  0.55129500  1
  H  222  1  0.04476300  0.73706100  0.55280300  1
  H  223  1  0.00111500  0.79445300  0.57171900  1
  H  224  1  0.00918200  0.83272200  0.54783500  1
  H  225  1  0.09703700  0.78387000  0.57763200  1
  H  226  1  0.10527000  0.82165400  0.55383400  1
  H  227  1  0.04158800  0.82015700  0.60905200  1
  H  228  1  0.03855900  0.81771000  0.64479100  1
  H  229  1  0.04240800  0.66895400  0.69516900  1
  H  230  1  0.04076900  0.72729500  0.69666800  1
  H  231  1  0.08153800  0.79067900  0.67915200  1
  H  232  1  0.07289100  0.82554500  0.70506000  1
  H  233  1  0.98615700  0.77349700  0.67589100  1
  H  234  1  0.97750000  0.80792200  0.70168100  1
  H  235  1  0.99768900  0.61233600  0.67589100  1
  H  236  1  0.00454800  0.57208700  0.69865500  1
  H  237  1  0.10093900  0.57999000  0.69245200  1
  H  238  1  0.09388400  0.62007600  0.67000700  1
  H  243  1  0.00945100  0.82793800  0.73235200  1
  H  244  1  0.04657700  0.85406900  0.52394000  1
  H  245  1  0.00139700  0.57627600  0.51718900  1
  H  246  1  0.03993100  0.53500300  0.71445900  1
  H  295  1  0.61930700  0.80858100  0.04719500  1
  H  296  1  0.60957300  0.77401900  0.07272600  1
  H  297  1  0.52447900  0.82908000  0.04383600  1
  H  298  1  0.51474100  0.79399400  0.06947900  1
  H  299  1  0.55765900  0.81933700  0.10391400  1
  H  300  1  0.55476000  0.82152100  0.13963900  1
  H  301  1  0.55200200  0.73139900  0.12371000  1
  H  302  1  0.55215500  0.67789800  0.12490400  1
  H  303  1  0.55519200  0.72948800  0.05168300  1
  H  304  1  0.55274100  0.67116100  0.05295200  1
  H  305  1  0.59545500  0.61291900  0.07295600  1
  H  306  1  0.58845400  0.57236700  0.05042200  1
  H  307  1  0.49929500  0.62350300  0.07716100  1
  H  308  1  0.49208100  0.58311600  0.05496200  1
  H  309  1  0.55091500  0.58770100  0.10900500  1
  H  310  1  0.55113800  0.58979800  0.14473600  1
  H  311  1  0.54919000  0.73806000  0.19566400  1
  H  312  1  0.54962700  0.67964600  0.19695500  1
  H  313  1  0.50524800  0.62057700  0.17801200  1
  H  314  1  0.50898700  0.58158900  0.20192700  1
  H  315  1  0.60198400  0.62760300  0.17654000  1
  H  316  1  0.60587300  0.58897800  0.20034900  1
  H  317  1  0.59486700  0.79511500  0.17671700  1
  H  318  1  0.58759700  0.83526700  0.19949600  1
  H  319  1  0.49131600  0.82701700  0.19288900  1
  H  320  1  0.49877300  0.78702100  0.17042200  1
  H  325  1  0.54558000  0.56055500  0.22834600  1
  H  326  1  0.55300500  0.53623400  0.03412200  1
  H  327  1  0.59164200  0.83150700  0.01757300  1
  H  328  1  0.55179700  0.87243600  0.21497700  1
  H  377  1  0.68926000  0.53449500  0.30326700  1
  H  378  1  0.72495000  0.52155500  0.32755200  1
  H  379  1  0.67723900  0.44012000  0.29092300  1
  H  380  1  0.71307800  0.42731100  0.31544000  1
  H  381  1  0.68357300  0.46134000  0.35317500  1
  H  382  1  0.68079900  0.45583700  0.38875100  1
  H  383  1  0.77114800  0.46336200  0.37382600  1
  H  384  1  0.82500000  0.46299200  0.37518400  1
  H  385  1  0.77440000  0.47102800  0.30199300  1
  H  386  1  0.83260300  0.46604600  0.30347000  1
  H  387  1  0.89788700  0.49882600  0.32827400  1
  H  388  1  0.93872400  0.49069300  0.30596600  1
  H  389  1  0.87124900  0.40596900  0.32268700  1
  H  390  1  0.91177600  0.39776500  0.30046800  1
  H  391  1  0.91412700  0.44780800  0.35969100  1
  H  392  1  0.91159200  0.44819100  0.39543900  1
  H  393  1  0.76323700  0.45911200  0.44546500  1
  H  394  1  0.82159900  0.45976200  0.44715300  1
  H  395  1  0.87153300  0.41071400  0.43288200  1
  H  396  1  0.90677300  0.41338800  0.45893600  1
  H  397  1  0.88267500  0.50585900  0.42344400  1
  H  398  1  0.91787800  0.50862400  0.44930600  1
  H  399  1  0.70004800  0.49865900  0.42294100  1
  H  400  1  0.65878900  0.48938200  0.44480900  1
  H  401  1  0.68033700  0.39463000  0.44460500  1
  H  402  1  0.72125200  0.40397100  0.42285600  1
  H  407  1  0.92522100  0.45489100  0.48443200  1
  H  408  1  0.97361000  0.44561900  0.29126100  1
  H  409  1  0.66257400  0.51845200  0.27497900  1
  H  410  1  0.62134200  0.44349000  0.45691000  1
  H  459  1  0.91671400  0.89437700  0.79877200  1
  H  460  1  0.88134500  0.89654100  0.82458700  1
  H  461  1  0.90451100  0.98954000  0.78937000  1
  H  462  1  0.86911300  0.99160300  0.81535300  1
  H  463  1  0.90978900  0.95373300  0.85259300  1
  H  464  1  0.91234500  0.95507900  0.88831800  1
  H  465  1  0.82303400  0.94027200  0.87301600  1
  H  466  1  0.76871800  0.94058200  0.87440000  1
  H  467  1  0.81977100  0.94011300  0.80107800  1
  H  468  1  0.76141600  0.94140400  0.80267400  1
  H  469  1  0.69611800  0.90543600  0.82718800  1
  H  470  1  0.65498000  0.91379700  0.80511600  1
  H  471  1  0.72165600  0.99873900  0.82257800  1
  H  472  1  0.68085400  0.00716000  0.80059300  1
  H  473  1  0.67939300  0.95522800  0.85908100  1
  H  474  1  0.68195600  0.95408200  0.89480500  1
  H  475  1  0.83031800  0.94195800  0.94475300  1
  H  476  1  0.77195600  0.94083200  0.94636100  1
  H  477  1  0.72282500  0.99250500  0.93168800  1
  H  478  1  0.68747300  0.99113000  0.95770500  1
  H  479  1  0.71025000  0.89729400  0.92324100  1
  H  480  1  0.67492100  0.89581500  0.94909900  1
  H  481  1  0.89563100  0.90633900  0.92128200  1
  H  482  1  0.93648000  0.91615800  0.94334500  1
  H  483  1  0.91031000  0.00966600  0.94555300  1
  H  484  1  0.86979000  0.99977700  0.92364800  1
  H  489  1  0.66832000  0.95070800  0.98361500  1
  H  490  1  0.61950000  0.95895200  0.79093400  1
  H  491  1  0.92363800  0.94848500  0.76380600  1
  H  492  1  0.97160500  0.96196700  0.95675100  1
  H  541  1  0.18814500  0.37412700  0.94573600  1
  H  542  1  0.22314700  0.38783200  0.92121700  1
  H  543  1  0.17738100  0.46801300  0.95978600  1
  H  544  1  0.21253700  0.48162800  0.93502000  1
  H  545  1  0.18197800  0.44940200  0.89664200  1
  H  546  1  0.17881800  0.45403000  0.86100600  1
  H  547  1  0.26911300  0.44449800  0.87555300  1
  H  548  1  0.32261000  0.44445900  0.87402400  1
  H  549  1  0.27331600  0.43960800  0.94746400  1
  H  550  1  0.33155800  0.44403900  0.94561600  1
  H  551  1  0.39529200  0.40902200  0.92201100  1
  H  552  1  0.43646800  0.41820200  0.94395000  1
  H  553  1  0.37144200  0.50302500  0.92402200  1
  H  554  1  0.41229000  0.51227400  0.94583400  1
  H  555  1  0.41289600  0.45417400  0.88857700  1
  H  556  1  0.40973400  0.44966600  0.85293900  1
  H  557  1  0.26017800  0.44433300  0.80396000  1
  H  558  1  0.31842300  0.43992500  0.80210900  1
  H  559  1  0.37903500  0.48209200  0.81468500  1
  H  560  1  0.41437600  0.46884200  0.78994500  1
  H  561  1  0.36886000  0.38814200  0.82821600  1
  H  562  1  0.40404900  0.37480000  0.80372500  1
  H  563  1  0.19653700  0.40910400  0.82748500  1
  H  564  1  0.15551000  0.41825000  0.80543500  1
  H  565  1  0.17953200  0.51236600  0.80367100  1
  H  566  1  0.22023000  0.50315300  0.82559900  1
  H  571  1  0.42830600  0.39085400  0.77422400  1
  H  572  1  0.47273200  0.46422500  0.95688800  1
  H  573  1  0.16410100  0.38991000  0.97540200  1
  H  574  1  0.11930000  0.46417700  0.79234000  1
  H  623  1  0.41738000  0.01081800  0.45023000  1
  H  624  1  0.38184800  0.00910900  0.42448600  1
  H  625  1  0.40467600  0.91564300  0.45931400  1
  H  626  1  0.36912000  0.91403100  0.43340800  1
  H  627  1  0.41009000  0.95236900  0.39633700  1
  H  628  1  0.41270800  0.95122100  0.36061600  1
  H  629  1  0.32331700  0.96564700  0.37588600  1
  H  630  1  0.26906200  0.96547200  0.37445600  1
  H  631  1  0.31999600  0.96580100  0.44782500  1
  H  632  1  0.26163700  0.96475600  0.44619200  1
  H  633  1  0.19664300  0.00116100  0.42159200  1
  H  634  1  0.15544600  0.99313200  0.44367000  1
  H  635  1  0.22156100  0.90770100  0.42629100  1
  H  636  1  0.18069500  0.89960700  0.44828200  1
  H  637  1  0.17966200  0.95118800  0.38973800  1
  H  638  1  0.18228900  0.95217400  0.35401600  1
  H  639  1  0.33074000  0.96408500  0.30413600  1
  H  640  1  0.27238100  0.96510700  0.30249300  1
  H  641  1  0.22336100  0.91360100  0.31706300  1
  H  642  1  0.18800100  0.91500000  0.29105200  1
  H  643  1  0.21053600  0.00874100  0.32567100  1
  H  644  1  0.17519100  0.01023900  0.29982400  1
  H  645  1  0.39589800  0.99998400  0.32764000  1
  H  646  1  0.43681100  0.99025700  0.30560600  1
  H  647  1  0.41091200  0.89666700  0.30342400  1
  H  648  1  0.37032300  0.90646800  0.32530400  1
  H  653  1  0.16854100  0.95527000  0.26524400  1
  H  654  1  0.11965400  0.94804600  0.45787600  1
  H  655  1  0.42424700  0.95619100  0.48495200  1
  H  656  1  0.47211200  0.94432300  0.29228800  1
  H  663  1  0.95181300  0.03653600  0.02627100  1
  H  667  1  0.05945100  0.00082100  0.00419300  1
  H  668  1  0.08148500  0.05180200  0.99718800  1
  H  669  1  0.04260800  0.06689700  0.99010800  1
  H  670  1  0.03967400  0.02846300  0.96497400  1
  H  671  1  0.07849600  0.01317900  0.97199900  1
  H  680  1  0.64057300  0.36844400  0.52629700  1
  H  684  1  0.53313300  0.40463500  0.50418700  1
  H  685  1  0.51102700  0.35378600  0.49693600  1
  H  686  1  0.54989500  0.33869600  0.48983200  1
  H  687  1  0.55297300  0.37740600  0.46486700  1
  H  688  1  0.51416000  0.39268500  0.47191500  1
  H  697  1  0.13976000  0.53603900  0.72184700  1
  H  701  1  0.03171500  0.50271000  0.74447200  1
  H  702  1  0.01067500  0.55418600  0.75123900  1
  H  703  1  0.04986100  0.56865300  0.75816800  1
  H  704  1  0.05219500  0.53053800  0.78350800  1
  H  705  1  0.01306300  0.51588000  0.77663200  1
  H  714  1  0.45206800  0.87036200  0.22255700  1
  H  718  1  0.55990500  0.90511700  0.24486600  1
  H  719  1  0.58147400  0.85392200  0.25182100  1
  H  720  1  0.54244000  0.83912300  0.25881000  1
  H  721  1  0.53971400  0.87747100  0.28400300  1
  H  722  1  0.57869500  0.89245700  0.27707100  1
  H  731  1  0.08823800  0.90710400  0.47533300  1
  H  735  1  0.19373500  0.90607700  0.50722500  1
  H  736  1  0.20568900  0.96136300  0.50684300  1
  H  737  1  0.16385500  0.97126700  0.50982800  1
  H  738  1  0.16292700  0.94388000  0.54006100  1
  H  739  1  0.20478700  0.93394900  0.53719000  1
  H  748  1  0.58611400  0.50498400  0.27558000  1
  H  752  1  0.68375200  0.48754900  0.23689300  1
  H  753  1  0.68961800  0.43149400  0.24048200  1
  H  754  1  0.64667100  0.42630700  0.24103100  1
  H  755  1  0.64276600  0.44859300  0.20930300  1
  H  756  1  0.68572100  0.45376800  0.20864100  1
  H  765  1  0.50644900  0.40195900  0.77593000  1
  H  769  1  0.40979300  0.42135300  0.73617500  1
  H  770  1  0.40390700  0.47726600  0.74096700  1
  H  771  1  0.44682200  0.48221100  0.74251800  1
  H  772  1  0.45238500  0.46175600  0.71041800  1
  H  773  1  0.40947900  0.45681300  0.70875600  1
  H  782  1  0.96752100  0.50805200  0.53167600  1
  H  786  1  0.07016900  0.52114900  0.50204800  1
  H  787  1  0.07210500  0.57424100  0.48971600  1
  H  788  1  0.03091300  0.57172200  0.48170000  1
  H  789  1  0.04407800  0.52868900  0.46102900  1
  H  790  1  0.08522000  0.53086600  0.46905400  1
  H  799  1  0.62528800  0.90032600  0.03155400  1
  H  803  1  0.52291300  0.88546100  0.00210600  1
  H  804  1  0.52127500  0.83223500  0.98994100  1
  H  805  1  0.56237200  0.83501000  0.98177500  1
  H  806  1  0.54866700  0.87778800  0.96102800  1
  H  807  1  0.50763000  0.87536900  0.96921900  1
  H  816  1  0.12492500  0.00553900  0.21738000  1
  H  820  1  0.02295800  0.02096800  0.24672900  1
  H  821  1  0.02138800  0.07309900  0.26063300  1
  H  822  1  0.06220700  0.06922800  0.26915400  1
  H  823  1  0.04749600  0.02479200  0.28826700  1
  H  824  1  0.00676400  0.02828800  0.27967800  1
  H  833  1  0.08582600  0.40023900  0.97368200  1
  H  837  1  0.18230600  0.42041200  0.01346400  1
  H  838  1  0.18757300  0.47641200  0.00876300  1
  H  839  1  0.14460700  0.48088800  0.00721800  1
  H  840  1  0.13926700  0.46023100  0.03928000  1
  H  841  1  0.18222700  0.45575500  0.04093700  1
  H  850  1  0.58809800  0.00030800  0.77370900  1
  H  854  1  0.69342400  0.00113800  0.74155000  1
  H  855  1  0.70522700  0.94581400  0.74191200  1
  H  856  1  0.66334300  0.93602500  0.73905500  1
  H  857  1  0.66225200  0.96339600  0.70881900  1
  H  858  1  0.70416200  0.97321200  0.71156200  1
  H  867  1  0.46790000  0.00698400  0.53256200  1
  H  871  1  0.56979700  0.02207200  0.50297900  1
  H  872  1  0.57132400  0.07435000  0.48929400  1
  H  873  1  0.53041200  0.07065500  0.48091700  1
  H  874  1  0.54483100  0.02641400  0.46155300  1
  H  875  1  0.58566300  0.02973600  0.46999000  1
  H  884  1  0.96707800  0.89644000  0.71649100  1
  H  888  1  0.06947400  0.88363100  0.74546200  1
  H  889  1  0.07249600  0.83258000  0.76074100  1
  H  890  1  0.03183400  0.83623600  0.76957500  1
  H  891  1  0.04612200  0.88228500  0.78731100  1
  H  892  1  0.08667700  0.87900500  0.77838800  1
  H  901  1  0.00481300  0.40479800  0.27386100  1
  H  905  1  0.89947400  0.40413200  0.24170800  1
  H  906  1  0.88766100  0.45945900  0.24209300  1
  H  907  1  0.92954600  0.46925500  0.23924700  1
  H  908  1  0.93065100  0.44191600  0.20900100  1
  H  909  1  0.88874100  0.43209300  0.21173400  1
  H  918  1  0.45308300  0.53738700  0.02698900  1
  H  922  1  0.56073900  0.50262100  0.00455400  1
  H  923  1  0.58222000  0.55369900  0.99721500  1
  H  924  1  0.54315000  0.56831600  0.99016000  1
  H  925  1  0.54042100  0.52950900  0.96523700  1
  H  926  1  0.57943700  0.51469700  0.97223900  1
  H  977  1  0.34723700  0.32594800  0.20234000  1
  H  978  1  0.33825800  0.36034600  0.17659500  1
  H  979  1  0.25213800  0.30656400  0.20525800  1
  H  980  1  0.24316500  0.34144600  0.17940700  1
  H  981  1  0.28703400  0.31580500  0.14495600  1
  H  982  1  0.28448500  0.31401800  0.10920500  1
  H  983  1  0.28159400  0.40395800  0.12550500  1
  H  984  1  0.28055800  0.45749400  0.12457600  1
  H  985  1  0.28305700  0.40498200  0.19754600  1
  H  986  1  0.27969500  0.46324900  0.19654300  1
  H  987  1  0.32182900  0.52196600  0.17756100  1
  H  988  1  0.31363800  0.56036200  0.20136300  1
  H  989  1  0.22596700  0.50977500  0.17245400  1
  H  990  1  0.21762100  0.54770600  0.19616400  1
  H  991  1  0.27837300  0.54746300  0.14091100  1
  H  992  1  0.27963700  0.54582300  0.10515400  1
  H  993  1  0.27927200  0.39814800  0.05354200  1
  H  994  1  0.27947900  0.45657300  0.05252100  1
  H  995  1  0.23458400  0.51498900  0.07139900  1
  H  996  1  0.23840000  0.55377700  0.04737000  1
  H  997  1  0.33134100  0.50860600  0.07339300  1
  H  998  1  0.33530500  0.54704000  0.04946700  1
  H  999  1  0.32455300  0.34061800  0.07229700  1
  H  1000  1  0.31716300  0.30057200  0.04945600  1
  H  1001  1  0.22090500  0.30915300  0.05603000  1
  H  1002  1  0.22848000  0.34903600  0.07855300  1
  H  1007  1  0.27512300  0.57468500  0.02105100  1
  H  1008  1  0.27618800  0.58125300  0.22551700  1
  H  1009  1  0.31751100  0.30439300  0.23229600  1
  H  1010  1  0.28123500  0.26353900  0.03395100  1
  H  1059  1  0.71638000  0.54893300  0.70026300  1
  H  1060  1  0.72017000  0.51054700  0.67629500  1
  H  1061  1  0.81328900  0.55599600  0.70190500  1
  H  1062  1  0.81693200  0.51726200  0.67782900  1
  H  1063  1  0.77053700  0.54799100  0.64431000  1
  H  1064  1  0.77082100  0.54969800  0.60856400  1
  H  1065  1  0.77003800  0.45967500  0.62484400  1
  H  1066  1  0.77133400  0.40611000  0.62387700  1
  H  1067  1  0.77330900  0.45876500  0.69687700  1
  H  1068  1  0.77469100  0.40038400  0.69583400  1
  H  1069  1  0.72983100  0.34277500  0.67768400  1
  H  1070  1  0.73817900  0.30468300  0.70164200  1
  H  1071  1  0.82567600  0.35258400  0.67089300  1
  H  1072  1  0.83419200  0.31498800  0.69475700  1
  H  1073  1  0.76904100  0.31618800  0.64024900  1
  H  1074  1  0.76564200  0.31792600  0.60451200  1
  H  1075  1  0.76992300  0.46554600  0.55288200  1
  H  1076  1  0.76784900  0.40719300  0.55187500  1
  H  1077  1  0.80866100  0.34331000  0.57006200  1
  H  1078  1  0.79949200  0.30816200  0.54437200  1
  H  1079  1  0.71363600  0.36252900  0.57291100  1
  H  1080  1  0.70446700  0.32789300  0.54732200  1
  H  1081  1  0.72707400  0.52416000  0.57236700  1
  H  1082  1  0.73452300  0.56449800  0.54973400  1
  H  1083  1  0.83079300  0.55361200  0.55489600  1
  H  1084  1  0.82314200  0.51343600  0.57719100  1
  H  1089  1  0.73360400  0.30565100  0.51752200  1
  H  1090  1  0.77577800  0.28294200  0.72516000  1
  H  1091  1  0.77665100  0.57662300  0.72846800  1
  H  1092  1  0.77047500  0.60075100  0.53379900  1
  H  1141  1  0.20422800  0.83068700  0.54635600  1
  H  1142  1  0.21458400  0.86527200  0.57177800  1
  H  1143  1  0.29847100  0.80741800  0.54363900  1
  H  1144  1  0.30884200  0.84252700  0.56917800  1
  H  1145  1  0.26516100  0.81823900  0.60313300  1
  H  1146  1  0.26734600  0.81571000  0.63887500  1
  H  1147  1  0.27206800  0.90589600  0.62326500  1
  H  1148  1  0.27247900  0.95955100  0.62470200  1
  H  1149  1  0.27123700  0.90848900  0.55129500  1
  H  1150  1  0.27444200  0.96674000  0.55280300  1
  H  1151  1  0.23079400  0.02413210  0.57171900  1
  H  1152  1  0.23886100  0.06240110  0.54783500  1
  H  1153  1  0.32671600  0.01354910  0.57763200  1
  H  1154  1  0.33494900  0.05133310  0.55383400  1
  H  1155  1  0.27126700  0.04983610  0.60905200  1
  H  1156  1  0.26823800  0.04738910  0.64479100  1
  H  1157  1  0.27208700  0.89863300  0.69516900  1
  H  1158  1  0.27044800  0.95697400  0.69666800  1
  H  1159  1  0.31121700  0.02035810  0.67915200  1
  H  1160  1  0.30257000  0.05522410  0.70506000  1
  H  1161  1  0.21583600  0.00317614  0.67589100  1
  H  1162  1  0.20717900  0.03760110  0.70168100  1
  H  1163  1  0.22736800  0.84201500  0.67589100  1
  H  1164  1  0.23422700  0.80176600  0.69865500  1
  H  1165  1  0.33061800  0.80966900  0.69245200  1
  H  1166  1  0.32356300  0.84975500  0.67000700  1
  H  1171  1  0.23913000  0.05761710  0.73235200  1
  H  1172  1  0.27625600  0.08374810  0.52394000  1
  H  1173  1  0.23107600  0.80595500  0.51718900  1
  H  1174  1  0.26961000  0.76468200  0.71445900  1
  H  1223  1  0.84898600  0.03826010  0.04719500  1
  H  1224  1  0.83925200  0.00369814  0.07272600  1
  H  1225  1  0.75415800  0.05875910  0.04383600  1
  H  1226  1  0.74442000  0.02367310  0.06947900  1
  H  1227  1  0.78733800  0.04901610  0.10391400  1
  H  1228  1  0.78443900  0.05120010  0.13963900  1
  H  1229  1  0.78168100  0.96107800  0.12371000  1
  H  1230  1  0.78183400  0.90757700  0.12490400  1
  H  1231  1  0.78487100  0.95916700  0.05168300  1
  H  1232  1  0.78242000  0.90084000  0.05295200  1
  H  1233  1  0.82513400  0.84259800  0.07295600  1
  H  1234  1  0.81813300  0.80204600  0.05042200  1
  H  1235  1  0.72897400  0.85318200  0.07716100  1
  H  1236  1  0.72176000  0.81279500  0.05496200  1
  H  1237  1  0.78059400  0.81738000  0.10900500  1
  H  1238  1  0.78081700  0.81947700  0.14473600  1
  H  1239  1  0.77886900  0.96773900  0.19566400  1
  H  1240  1  0.77930600  0.90932500  0.19695500  1
  H  1241  1  0.73492700  0.85025600  0.17801200  1
  H  1242  1  0.73866600  0.81126800  0.20192700  1
  H  1243  1  0.83166300  0.85728200  0.17654000  1
  H  1244  1  0.83555200  0.81865700  0.20034900  1
  H  1245  1  0.82454600  0.02479410  0.17671700  1
  H  1246  1  0.81727600  0.06494610  0.19949600  1
  H  1247  1  0.72099500  0.05669610  0.19288900  1
  H  1248  1  0.72845200  0.01670010  0.17042200  1
  H  1253  1  0.77525900  0.79023400  0.22834600  1
  H  1254  1  0.78268400  0.76591300  0.03412200  1
  H  1255  1  0.82132100  0.06118610  0.01757300  1
  H  1256  1  0.78147600  0.10211500  0.21497700  1
  H  1305  1  0.91893900  0.76417400  0.30326700  1
  H  1306  1  0.95462900  0.75123400  0.32755200  1
  H  1307  1  0.90691800  0.66979900  0.29092300  1
  H  1308  1  0.94275700  0.65699000  0.31544000  1
  H  1309  1  0.91325200  0.69101900  0.35317500  1
  H  1310  1  0.91047800  0.68551600  0.38875100  1
  H  1311  1  0.00082714  0.69304100  0.37382600  1
  H  1312  1  0.05467910  0.69267100  0.37518400  1
  H  1313  1  0.00407914  0.70070700  0.30199300  1
  H  1314  1  0.06228210  0.69572500  0.30347000  1
  H  1315  1  0.12756600  0.72850500  0.32827400  1
  H  1316  1  0.16840300  0.72037200  0.30596600  1
  H  1317  1  0.10092800  0.63564800  0.32268700  1
  H  1318  1  0.14145500  0.62744400  0.30046800  1
  H  1319  1  0.14380600  0.67748700  0.35969100  1
  H  1320  1  0.14127100  0.67787000  0.39543900  1
  H  1321  1  0.99291600  0.68879100  0.44546500  1
  H  1322  1  0.05127810  0.68944100  0.44715300  1
  H  1323  1  0.10121200  0.64039300  0.43288200  1
  H  1324  1  0.13645200  0.64306700  0.45893600  1
  H  1325  1  0.11235400  0.73553800  0.42344400  1
  H  1326  1  0.14755700  0.73830300  0.44930600  1
  H  1327  1  0.92972700  0.72833800  0.42294100  1
  H  1328  1  0.88846800  0.71906100  0.44480900  1
  H  1329  1  0.91001600  0.62430900  0.44460500  1
  H  1330  1  0.95093100  0.63365000  0.42285600  1
  H  1335  1  0.15490000  0.68457000  0.48443200  1
  H  1336  1  0.20328900  0.67529800  0.29126100  1
  H  1337  1  0.89225300  0.74813100  0.27497900  1
  H  1338  1  0.85102100  0.67316900  0.45691000  1
  H  1387  1  0.14639300  0.12405600  0.79877200  1
  H  1388  1  0.11102400  0.12622000  0.82458700  1
  H  1389  1  0.13419000  0.21921900  0.78937000  1
  H  1390  1  0.09879210  0.22128200  0.81535300  1
  H  1391  1  0.13946800  0.18341200  0.85259300  1
  H  1392  1  0.14202400  0.18475800  0.88831800  1
  H  1393  1  0.05271310  0.16995100  0.87301600  1
  H  1394  1  0.99839700  0.17026100  0.87440000  1
  H  1395  1  0.04945010  0.16979200  0.80107800  1
  H  1396  1  0.99109500  0.17108300  0.80267400  1
  H  1397  1  0.92579700  0.13511500  0.82718800  1
  H  1398  1  0.88465900  0.14347600  0.80511600  1
  H  1399  1  0.95133500  0.22841800  0.82257800  1
  H  1400  1  0.91053300  0.23683900  0.80059300  1
  H  1401  1  0.90907200  0.18490700  0.85908100  1
  H  1402  1  0.91163500  0.18376100  0.89480500  1
  H  1403  1  0.05999710  0.17163700  0.94475300  1
  H  1404  1  0.00163514  0.17051100  0.94636100  1
  H  1405  1  0.95250400  0.22218400  0.93168800  1
  H  1406  1  0.91715200  0.22080900  0.95770500  1
  H  1407  1  0.93992900  0.12697300  0.92324100  1
  H  1408  1  0.90460000  0.12549400  0.94909900  1
  H  1409  1  0.12531000  0.13601800  0.92128200  1
  H  1410  1  0.16615900  0.14583700  0.94334500  1
  H  1411  1  0.13998900  0.23934500  0.94555300  1
  H  1412  1  0.09946910  0.22945600  0.92364800  1
  H  1417  1  0.89799900  0.18038700  0.98361500  1
  H  1418  1  0.84917900  0.18863100  0.79093400  1
  H  1419  1  0.15331700  0.17816400  0.76380600  1
  H  1420  1  0.20128400  0.19164600  0.95675100  1
  H  1469  1  0.41782400  0.60380600  0.94573600  1
  H  1470  1  0.45282600  0.61751100  0.92121700  1
  H  1471  1  0.40706000  0.69769200  0.95978600  1
  H  1472  1  0.44221600  0.71130700  0.93502000  1
  H  1473  1  0.41165700  0.67908100  0.89664200  1
  H  1474  1  0.40849700  0.68370900  0.86100600  1
  H  1475  1  0.49879200  0.67417700  0.87555300  1
  H  1476  1  0.55228900  0.67413800  0.87402400  1
  H  1477  1  0.50299500  0.66928700  0.94746400  1
  H  1478  1  0.56123700  0.67371800  0.94561600  1
  H  1479  1  0.62497100  0.63870100  0.92201100  1
  H  1480  1  0.66614700  0.64788100  0.94395000  1
  H  1481  1  0.60112100  0.73270400  0.92402200  1
  H  1482  1  0.64196900  0.74195300  0.94583400  1
  H  1483  1  0.64257500  0.68385300  0.88857700  1
  H  1484  1  0.63941300  0.67934500  0.85293900  1
  H  1485  1  0.48985700  0.67401200  0.80396000  1
  H  1486  1  0.54810200  0.66960400  0.80210900  1
  H  1487  1  0.60871400  0.71177100  0.81468500  1
  H  1488  1  0.64405500  0.69852100  0.78994500  1
  H  1489  1  0.59853900  0.61782100  0.82821600  1
  H  1490  1  0.63372800  0.60447900  0.80372500  1
  H  1491  1  0.42621600  0.63878300  0.82748500  1
  H  1492  1  0.38518900  0.64792900  0.80543500  1
  H  1493  1  0.40921100  0.74204500  0.80367100  1
  H  1494  1  0.44990900  0.73283200  0.82559900  1
  H  1499  1  0.65798500  0.62053300  0.77422400  1
  H  1500  1  0.70241100  0.69390400  0.95688800  1
  H  1501  1  0.39378000  0.61958900  0.97540200  1
  H  1502  1  0.34897900  0.69385600  0.79234000  1
  H  1551  1  0.64705900  0.24049700  0.45023000  1
  H  1552  1  0.61152700  0.23878800  0.42448600  1
  H  1553  1  0.63435500  0.14532200  0.45931400  1
  H  1554  1  0.59879900  0.14371000  0.43340800  1
  H  1555  1  0.63976900  0.18204800  0.39633700  1
  H  1556  1  0.64238700  0.18090000  0.36061600  1
  H  1557  1  0.55299600  0.19532600  0.37588600  1
  H  1558  1  0.49874100  0.19515100  0.37445600  1
  H  1559  1  0.54967500  0.19548000  0.44782500  1
  H  1560  1  0.49131600  0.19443500  0.44619200  1
  H  1561  1  0.42632200  0.23084000  0.42159200  1
  H  1562  1  0.38512500  0.22281100  0.44367000  1
  H  1563  1  0.45124000  0.13738000  0.42629100  1
  H  1564  1  0.41037400  0.12928600  0.44828200  1
  H  1565  1  0.40934100  0.18086700  0.38973800  1
  H  1566  1  0.41196800  0.18185300  0.35401600  1
  H  1567  1  0.56041900  0.19376400  0.30413600  1
  H  1568  1  0.50206000  0.19478600  0.30249300  1
  H  1569  1  0.45304000  0.14328000  0.31706300  1
  H  1570  1  0.41768000  0.14467900  0.29105200  1
  H  1571  1  0.44021500  0.23842000  0.32567100  1
  H  1572  1  0.40487000  0.23991800  0.29982400  1
  H  1573  1  0.62557700  0.22966300  0.32764000  1
  H  1574  1  0.66649000  0.21993600  0.30560600  1
  H  1575  1  0.64059100  0.12634600  0.30342400  1
  H  1576  1  0.60000200  0.13614700  0.32530400  1
  H  1581  1  0.39822000  0.18494900  0.26524400  1
  H  1582  1  0.34933300  0.17772500  0.45787600  1
  H  1583  1  0.65392600  0.18587000  0.48495200  1
  H  1584  1  0.70179100  0.17400200  0.29228800  1
  H  1591  1  0.18149200  0.26621500  0.02627100  1
  H  1595  1  0.28913000  0.23050000  0.00419300  1
  H  1596  1  0.31116400  0.28148100  0.99718800  1
  H  1597  1  0.27228700  0.29657600  0.99010800  1
  H  1598  1  0.26935300  0.25814200  0.96497400  1
  H  1599  1  0.30817500  0.24285800  0.97199900  1
  H  1608  1  0.87025200  0.59812300  0.52629700  1
  H  1612  1  0.76281200  0.63431400  0.50418700  1
  H  1613  1  0.74070600  0.58346500  0.49693600  1
  H  1614  1  0.77957400  0.56837500  0.48983200  1
  H  1615  1  0.78265200  0.60708500  0.46486700  1
  H  1616  1  0.74383900  0.62236400  0.47191500  1
  H  1625  1  0.36943900  0.76571800  0.72184700  1
  H  1629  1  0.26139400  0.73238900  0.74447200  1
  H  1630  1  0.24035400  0.78386500  0.75123900  1
  H  1631  1  0.27954000  0.79833200  0.75816800  1
  H  1632  1  0.28187400  0.76021700  0.78350800  1
  H  1633  1  0.24274200  0.74555900  0.77663200  1
  H  1642  1  0.68174700  0.10004100  0.22255700  1
  H  1646  1  0.78958400  0.13479600  0.24486600  1
  H  1647  1  0.81115300  0.08360110  0.25182100  1
  H  1648  1  0.77211900  0.06880210  0.25881000  1
  H  1649  1  0.76939300  0.10715000  0.28400300  1
  H  1650  1  0.80837400  0.12213600  0.27707100  1
  H  1659  1  0.31791700  0.13678300  0.47533300  1
  H  1663  1  0.42341400  0.13575600  0.50722500  1
  H  1664  1  0.43536800  0.19104200  0.50684300  1
  H  1665  1  0.39353400  0.20094600  0.50982800  1
  H  1666  1  0.39260600  0.17355900  0.54006100  1
  H  1667  1  0.43446600  0.16362800  0.53719000  1
  H  1676  1  0.81579300  0.73466300  0.27558000  1
  H  1680  1  0.91343100  0.71722800  0.23689300  1
  H  1681  1  0.91929700  0.66117300  0.24048200  1
  H  1682  1  0.87635000  0.65598600  0.24103100  1
  H  1683  1  0.87244500  0.67827200  0.20930300  1
  H  1684  1  0.91540000  0.68344700  0.20864100  1
  H  1693  1  0.73612800  0.63163800  0.77593000  1
  H  1697  1  0.63947200  0.65103200  0.73617500  1
  H  1698  1  0.63358600  0.70694500  0.74096700  1
  H  1699  1  0.67650100  0.71189000  0.74251800  1
  H  1700  1  0.68206400  0.69143500  0.71041800  1
  H  1701  1  0.63915800  0.68649200  0.70875600  1
  H  1710  1  0.19720000  0.73773100  0.53167600  1
  H  1714  1  0.29984800  0.75082800  0.50204800  1
  H  1715  1  0.30178400  0.80392000  0.48971600  1
  H  1716  1  0.26059200  0.80140100  0.48170000  1
  H  1717  1  0.27375700  0.75836800  0.46102900  1
  H  1718  1  0.31489900  0.76054500  0.46905400  1
  H  1727  1  0.85496700  0.13000500  0.03155400  1
  H  1731  1  0.75259200  0.11514000  0.00210600  1
  H  1732  1  0.75095400  0.06191410  0.98994100  1
  H  1733  1  0.79205100  0.06468910  0.98177500  1
  H  1734  1  0.77834600  0.10746700  0.96102800  1
  H  1735  1  0.73730900  0.10504800  0.96921900  1
  H  1744  1  0.35460400  0.23521800  0.21738000  1
  H  1748  1  0.25263700  0.25064700  0.24672900  1
  H  1749  1  0.25106700  0.30277800  0.26063300  1
  H  1750  1  0.29188600  0.29890700  0.26915400  1
  H  1751  1  0.27717500  0.25447100  0.28826700  1
  H  1752  1  0.23644300  0.25796700  0.27967800  1
  H  1761  1  0.31550500  0.62991800  0.97368200  1
  H  1765  1  0.41198500  0.65009100  0.01346400  1
  H  1766  1  0.41725200  0.70609100  0.00876300  1
  H  1767  1  0.37428600  0.71056700  0.00721800  1
  H  1768  1  0.36894600  0.68991000  0.03928000  1
  H  1769  1  0.41190600  0.68543400  0.04093700  1
  H  1778  1  0.81777700  0.22998700  0.77370900  1
  H  1782  1  0.92310300  0.23081700  0.74155000  1
  H  1783  1  0.93490600  0.17549300  0.74191200  1
  H  1784  1  0.89302200  0.16570400  0.73905500  1
  H  1785  1  0.89193100  0.19307500  0.70881900  1
  H  1786  1  0.93384100  0.20289100  0.71156200  1
  H  1795  1  0.69757900  0.23666300  0.53256200  1
  H  1799  1  0.79947600  0.25175100  0.50297900  1
  H  1800  1  0.80100300  0.30402900  0.48929400  1
  H  1801  1  0.76009100  0.30033400  0.48091700  1
  H  1802  1  0.77451000  0.25609300  0.46155300  1
  H  1803  1  0.81534200  0.25941500  0.46999000  1
  H  1812  1  0.19675700  0.12611900  0.71649100  1
  H  1816  1  0.29915300  0.11331000  0.74546200  1
  H  1817  1  0.30217500  0.06225910  0.76074100  1
  H  1818  1  0.26151300  0.06591510  0.76957500  1
  H  1819  1  0.27580100  0.11196400  0.78731100  1
  H  1820  1  0.31635600  0.10868400  0.77838800  1
  H  1829  1  0.23449200  0.63447700  0.27386100  1
  H  1833  1  0.12915300  0.63381100  0.24170800  1
  H  1834  1  0.11734000  0.68913800  0.24209300  1
  H  1835  1  0.15922500  0.69893400  0.23924700  1
  H  1836  1  0.16033000  0.67159500  0.20900100  1
  H  1837  1  0.11842000  0.66177200  0.21173400  1
  H  1846  1  0.68276200  0.76706600  0.02698900  1
  H  1850  1  0.79041800  0.73230000  0.00455400  1
  H  1851  1  0.81189900  0.78337800  0.99721500  1
  H  1852  1  0.77282900  0.79799500  0.99016000  1
  H  1853  1  0.77010000  0.75918800  0.96523700  1
  H  1854  1  0.80911600  0.74437600  0.97223900  1
  C  1  1  0.05603300  0.10506700  0.13646600  1
  C  2  1  0.05445400  0.10409100  0.11700400  1
  C  3  1  0.05283600  0.13424100  0.11029300  1
  C  5  1  0.05493300  0.13581300  0.14208800  1
  C  6  1  0.05546600  0.14622300  0.16111300  1
  C  7  1  0.05368300  0.17741400  0.16684400  1
  C  9  1  0.05072400  0.22868600  0.16596900  1
  C  10  1  0.05089000  0.21970700  0.18490500  1
  C  11  1  0.05296200  0.18809900  0.18544600  1
  C  12  1  0.04926100  0.25929900  0.15916100  1
  C  13  1  0.04981100  0.26786100  0.13979400  1
  C  15  1  0.05085500  0.26637500  0.10799500  1
  C  16  1  0.05027700  0.29714700  0.11363200  1
  C  17  1  0.04937900  0.29805000  0.13310400  1
  C  18  1  0.05117000  0.25600700  0.08895100  1
  C  19  1  0.05111700  0.22478300  0.08319900  1
  C  21  1  0.05095500  0.17339600  0.08409700  1
  C  22  1  0.05007100  0.18238100  0.06516600  1
  C  23  1  0.05043700  0.21407300  0.06460700  1
  C  24  1  0.05123500  0.14274800  0.09092600  1
  C  25  1  0.04752100  0.11884700  0.07741700  1
  C  26  1  0.01763200  0.10926700  0.07249700  1
  C  27  1  0.01328800  0.08577300  0.05917900  1
  C  28  1  0.03863600  0.07120800  0.05033300  1
  C  29  1  0.06856200  0.08078300  0.05552400  1
  C  30  1  0.07299900  0.10435600  0.06888400  1
  C  31  1  0.05292900  0.27867200  0.07454200  1
  C  32  1  0.02616800  0.29209000  0.06685500  1
  C  33  1  0.02846700  0.31487400  0.05280700  1
  C  34  1  0.05752000  0.32496600  0.04637400  1
  C  35  1  0.08420800  0.31119500  0.05408400  1
  C  36  1  0.08196800  0.28840800  0.06804900  1
  C  37  1  0.04496200  0.28295300  0.17275500  1
  C  38  1  0.07014900  0.29798100  0.18126100  1
  C  39  1  0.06525400  0.32049000  0.19523200  1
  C  40  1  0.03514800  0.32862300  0.20090700  1
  C  41  1  0.01007500  0.31341600  0.19219600  1
  C  42  1  0.01488500  0.29094400  0.17828300  1
  C  43  1  0.06026100  0.12404700  0.17555800  1
  C  44  1  0.09034700  0.11909300  0.18233100  1
  C  45  1  0.03549300  0.10811900  0.18396600  1
  C  46  1  0.04075400  0.08768800  0.19906100  1
  C  47  1  0.07083800  0.08314500  0.20600000  1
  C  48  1  0.09555700  0.09894800  0.19746800  1
  C  75  1  0.05976200  0.34637900  0.03197600  1
  C  76  1  0.03059800  0.34946800  0.21550300  1
  C  77  1  0.07679000  0.06503600  0.22147500  1
  C  78  1  0.03455800  0.04833000  0.03682500  1
  C  83  1  0.54046000  0.29932200  0.63582600  1
  C  84  1  0.54083500  0.30025500  0.61635300  1
  C  85  1  0.54063000  0.27006800  0.60964100  1
  C  87  1  0.54043500  0.26854100  0.64144300  1
  C  88  1  0.54087100  0.25816800  0.66047900  1
  C  89  1  0.54166800  0.22695500  0.66621200  1
  C  91  1  0.54285300  0.17559600  0.66528600  1
  C  92  1  0.54397200  0.18459300  0.68421400  1
  C  93  1  0.54301700  0.21626400  0.68479100  1
  C  94  1  0.54301000  0.14494400  0.65845400  1
  C  95  1  0.54108500  0.13640400  0.63910900  1
  C  97  1  0.53821600  0.13795100  0.60733500  1
  C  98  1  0.53740800  0.10720200  0.61298100  1
  C  99  1  0.53953200  0.10624100  0.63242800  1
  C  100  1  0.53715300  0.14836400  0.58831400  1
  C  101  1  0.53822800  0.17959300  0.58257800  1
  C  103  1  0.54004700  0.23092600  0.58344800  1
  C  104  1  0.53982400  0.22196600  0.56451200  1
  C  105  1  0.53848500  0.19031200  0.56397500  1
  C  106  1  0.54097500  0.26155200  0.59026100  1
  C  107  1  0.54473700  0.28535300  0.57670400  1
  C  108  1  0.57464800  0.29434500  0.57144300  1
  C  109  1  0.57902800  0.31803900  0.55827300  1
  C  110  1  0.55369700  0.33339500  0.54992100  1
  C  111  1  0.52375800  0.32433700  0.55542300  1
  C  112  1  0.51928100  0.30059000  0.56865700  1
  C  113  1  0.53226500  0.12613100  0.57390500  1
  C  114  1  0.55695300  0.11004200  0.56552300  1
  C  115  1  0.55157900  0.08946500  0.55051700  1
  C  116  1  0.52145700  0.08491100  0.54364300  1
  C  117  1  0.49682100  0.10090300  0.55213700  1
  C  118  1  0.50214500  0.12120000  0.56718200  1
  C  119  1  0.54730200  0.12116700  0.67197900  1
  C  120  1  0.52216900  0.10691100  0.68103300  1
  C  121  1  0.52716400  0.08458400  0.69510400  1
  C  122  1  0.55731200  0.07589500  0.70038800  1
  C  123  1  0.58232200  0.09028200  0.69109300  1
  C  124  1  0.57741300  0.11255800  0.67707200  1
  C  125  1  0.53921100  0.28079400  0.67491200  1
  C  126  1  0.51022100  0.29040900  0.68155100  1
  C  127  1  0.56602600  0.29427900  0.68248200  1
  C  128  1  0.56383000  0.31702800  0.69655600  1
  C  129  1  0.53482200  0.32701000  0.70312800  1
  C  130  1  0.50808000  0.31316500  0.69553800  1
  C  157  1  0.51534000  0.06657000  0.52829100  1
  C  158  1  0.56201100  0.05534000  0.71514700  1
  C  159  1  0.53268800  0.34841400  0.71753200  1
  C  160  1  0.55778700  0.35655600  0.53659700  1
  C  165  1  0.03709200  0.60730600  0.61176400  1
  C  166  1  0.03857700  0.60591000  0.63121900  1
  C  167  1  0.04046000  0.63590600  0.63815500  1
  C  169  1  0.03869000  0.63814500  0.60637900  1
  C  170  1  0.03842500  0.64896500  0.58743700  1
  C  171  1  0.04045200  0.68027700  0.58199800  1
  C  173  1  0.04327900  0.73154200  0.58332900  1
  C  174  1  0.04370200  0.72295200  0.56432100  1
  C  175  1  0.04168400  0.69135500  0.56349600  1
  C  176  1  0.04414200  0.76203900  0.59038800  1
  C  177  1  0.04264300  0.77022400  0.60980100  1
  C  179  1  0.04010400  0.76804500  0.64156100  1
  C  180  1  0.03964400  0.79892000  0.63616500  1
  C  181  1  0.04156700  0.80026400  0.61672000  1
  C  182  1  0.03914500  0.75723100  0.66049600  1
  C  183  1  0.04011900  0.72586900  0.66595800  1
  C  185  1  0.04153200  0.67453100  0.66464700  1
  C  186  1  0.04186400  0.68310000  0.68365400  1
  C  187  1  0.04073000  0.71475000  0.68446500  1
  C  188  1  0.04174200  0.64402900  0.65758600  1
  C  189  1  0.04515200  0.61987400  0.67094300  1
  C  190  1  0.07491900  0.61004600  0.67594200  1
  C  191  1  0.07895200  0.58644000  0.68921800  1
  C  192  1  0.05340600  0.57201800  0.69794400  1
  C  193  1  0.02360500  0.58185100  0.69266800  1
  C  194  1  0.01947800  0.60552800  0.67934500  1
  C  195  1  0.03460500  0.77921200  0.67509400  1
  C  196  1  0.05955100  0.79466200  0.68364000  1
  C  197  1  0.05448100  0.81510600  0.69875500  1
  C  198  1  0.02439800  0.82021200  0.70552900  1
  C  199  1  0.99949700  0.80487800  0.69688400  1
  C  200  1  0.00452900  0.78469900  0.68173500  1
  C  201  1  0.04833800  0.78601900  0.57699800  1
  C  202  1  0.02309800  0.80053000  0.56821300  1
  C  203  1  0.02792400  0.82296500  0.55418900  1
  C  204  1  0.05800800  0.83148200  0.54868100  1
  C  205  1  0.08313200  0.81681900  0.55769000  1
  C  206  1  0.07839200  0.79443700  0.57166800  1
  C  207  1  0.03294900  0.62720500  0.57283400  1
  C  208  1  0.00270100  0.62332600  0.56606900  1
  C  209  1  0.05705600  0.61012200  0.56456100  1
  C  210  1  0.05096700  0.58956300  0.54964500  1
  C  211  1  0.02071300  0.58598700  0.54274900  1
  C  212  1  0.99668600  0.60305500  0.55111300  1
  C  239  1  0.01867500  0.83815200  0.72109500  1
  C  240  1  0.06250600  0.85211900  0.53395300  1
  C  241  1  0.01382700  0.56727800  0.52766800  1
  C  242  1  0.05717000  0.54912600  0.71147600  1
  C  247  1  0.55620000  0.80048900  0.11247200  1
  C  248  1  0.55440200  0.80168300  0.13192100  1
  C  249  1  0.55279900  0.77160700  0.13875500  1
  C  251  1  0.55522200  0.76967800  0.10697200  1
  C  252  1  0.55615200  0.75905700  0.08799100  1
  C  253  1  0.55482700  0.72777700  0.08239300  1
  C  255  1  0.55266800  0.67647600  0.08349500  1
  C  256  1  0.55308800  0.68520400  0.06451800  1
  C  257  1  0.55462200  0.71684000  0.06383900  1
  C  258  1  0.55155100  0.64594500  0.09045200  1
  C  259  1  0.55165000  0.63765800  0.10987100  1
  C  261  1  0.55177900  0.63954100  0.14166800  1
  C  262  1  0.55151500  0.60870000  0.13617700  1
  C  263  1  0.55122500  0.60754900  0.11670900  1
  C  264  1  0.55158100  0.65011800  0.16066800  1
  C  265  1  0.55129000  0.68140300  0.16627800  1
  C  267  1  0.55092200  0.73276800  0.16513700  1
  C  268  1  0.54990000  0.72401100  0.18410700  1
  C  269  1  0.55033400  0.69232900  0.18481500  1
  C  270  1  0.55116800  0.76332900  0.15816000  1
  C  271  1  0.54749100  0.78738400  0.17156900  1
  C  272  1  0.51763000  0.79708800  0.17645900  1
  C  273  1  0.51335800  0.82063700  0.18975000  1
  C  274  1  0.53874900  0.83513200  0.19859500  1
  C  275  1  0.56864600  0.82543200  0.19342900  1
  C  276  1  0.57301300  0.80181000  0.18009600  1
  C  277  1  0.55326500  0.62761000  0.17517400  1
  C  278  1  0.52648900  0.61395100  0.18267800  1
  C  279  1  0.52874700  0.59103600  0.19665000  1
  C  280  1  0.55777800  0.58103500  0.20317500  1
  C  281  1  0.58447600  0.59508700  0.19567000  1
  C  282  1  0.58227600  0.61800200  0.18178400  1
  C  283  1  0.54802400  0.62198000  0.07698200  1
  C  284  1  0.57364000  0.60672300  0.06914200  1
  C  285  1  0.56942500  0.58284500  0.05596700  1
  C  286  1  0.53959400  0.57366900  0.05031400  1
  C  287  1  0.51410000  0.58906000  0.05846000  1
  C  288  1  0.51821800  0.61288700  0.07157200  1
  C  289  1  0.56130400  0.78108800  0.07350000  1
  C  290  1  0.59153600  0.78579200  0.06691100  1
  C  291  1  0.53684000  0.79738200  0.06501800  1
  C  292  1  0.54255700  0.81794500  0.05004900  1
  C  293  1  0.57279200  0.82225800  0.04329100  1
  C  294  1  0.59718400  0.80602900  0.05188300  1
  C  321  1  0.55996700  0.55939500  0.21744800  1
  C  322  1  0.53577900  0.55042400  0.03701300  1
  C  323  1  0.57930600  0.84070100  0.02803200  1
  C  324  1  0.53474600  0.85803300  0.21209400  1
  C  329  1  0.70226200  0.46097500  0.36190700  1
  C  330  1  0.70078300  0.45773400  0.38127000  1
  C  331  1  0.73072400  0.45842300  0.38839000  1
  C  333  1  0.73317000  0.46303300  0.35674900  1
  C  334  1  0.74410100  0.46642100  0.33795800  1
  C  335  1  0.77544300  0.46547200  0.33251400  1
  C  337  1  0.82657600  0.46111300  0.33380900  1
  C  338  1  0.81830300  0.46502900  0.31490200  1
  C  339  1  0.78677000  0.46805200  0.31412500  1
  C  340  1  0.85685200  0.45735800  0.34084600  1
  C  341  1  0.86475300  0.45555200  0.36030400  1
  C  343  1  0.86251200  0.45577300  0.39209300  1
  C  344  1  0.89308400  0.45129900  0.38676400  1
  C  345  1  0.89440900  0.45084600  0.36729500  1
  C  346  1  0.85182900  0.45719500  0.41104200  1
  C  347  1  0.82045500  0.45819800  0.41645000  1
  C  349  1  0.76912400  0.45772100  0.41498100  1
  C  350  1  0.77751400  0.45853800  0.43401100  1
  C  351  1  0.80917600  0.45922000  0.43491200  1
  C  352  1  0.73868000  0.45693700  0.40784300  1
  C  353  1  0.71455500  0.45221300  0.42108500  1
  C  354  1  0.70837400  0.42215000  0.42749900  1
  C  355  1  0.68432400  0.41672300  0.44028000  1
  C  356  1  0.66588100  0.44120700  0.44693800  1
  C  357  1  0.67182100  0.47124000  0.44028400  1
  C  358  1  0.69606100  0.47673300  0.42754200  1
  C  359  1  0.87418600  0.45797100  0.42569400  1
  C  360  1  0.88174300  0.43126600  0.43603200  1
  C  361  1  0.90245100  0.43286500  0.45127400  1
  C  362  1  0.91640600  0.46104900  0.45624100  1
  C  363  1  0.90902600  0.48764500  0.44567100  1
  C  364  1  0.88819900  0.48612300  0.43054100  1
  C  365  1  0.88072700  0.45321700  0.32735700  1
  C  366  1  0.90062500  0.47754200  0.32237200  1
  C  367  1  0.92460100  0.47270900  0.30935000  1
  C  368  1  0.92890000  0.44357700  0.30094000  1
  C  369  1  0.90899200  0.41926800  0.30607800  1
  C  370  1  0.88518600  0.42402000  0.31914000  1
  C  371  1  0.72217100  0.47326300  0.32370200  1
  C  372  1  0.71478000  0.50423300  0.32002400  1
  C  373  1  0.70788500  0.44989800  0.31302300  1
  C  374  1  0.68672400  0.45749300  0.29871800  1
  C  375  1  0.67945000  0.48856400  0.29479900  1
  C  376  1  0.69374800  0.51174600  0.30573000  1
  C  403  1  0.93381600  0.46339600  0.47249400  1
  C  404  1  0.95244000  0.43864300  0.28820600  1
  C  405  1  0.66026300  0.49717500  0.28008600  1
  C  406  1  0.64234400  0.43560500  0.45956500  1
  C  411  1  0.89125100  0.95102300  0.86129500  1
  C  412  1  0.89260200  0.95193300  0.88075200  1
  C  413  1  0.86288600  0.94783500  0.88778900  1
  C  415  1  0.86062800  0.94671400  0.85602000  1
  C  416  1  0.84993000  0.94489100  0.83709000  1
  C  417  1  0.81855100  0.94374700  0.83171200  1
  C  419  1  0.76723200  0.94484500  0.83310600  1
  C  420  1  0.77566100  0.94244700  0.81413100  1
  C  421  1  0.80731500  0.94161500  0.81327800  1
  C  422  1  0.73679200  0.94701300  0.84014400  1
  C  423  1  0.72884800  0.94795000  0.85961500  1
  C  425  1  0.73111500  0.94704000  0.89139300  1
  C  426  1  0.70049800  0.95136300  0.88610900  1
  C  427  1  0.69913600  0.95211400  0.86664900  1
  C  428  1  0.74181100  0.94528800  0.91032500  1
  C  429  1  0.77318500  0.94403600  0.91570700  1
  C  431  1  0.82449700  0.94493700  0.91430500  1
  C  432  1  0.81607100  0.94282800  0.93329200  1
  C  433  1  0.78441400  0.94208600  0.93415100  1
  C  434  1  0.85493200  0.94708900  0.90726000  1
  C  435  1  0.87878900  0.95207000  0.92066300  1
  C  436  1  0.88353200  0.98194500  0.92783900  1
  C  437  1  0.90735600  0.98768900  0.94072600  1
  C  438  1  0.92703300  0.96373100  0.94675800  1
  C  439  1  0.92251100  0.93391900  0.93933600  1
  C  440  1  0.89852100  0.92809400  0.92646400  1
  C  441  1  0.71949700  0.94508600  0.92501200  1
  C  442  1  0.71232700  0.97219300  0.93505800  1
  C  443  1  0.69152500  0.97136600  0.95026900  1
  C  444  1  0.67710100  0.94355400  0.95551100  1
  C  445  1  0.68409200  0.91654600  0.94523600  1
  C  446  1  0.70503400  0.91729900  0.93013600  1
  C  447  1  0.71281600  0.95123200  0.82671100  1
  C  448  1  0.69310500  0.92686100  0.82153300  1
  C  449  1  0.66894000  0.93182900  0.80865600  1
  C  450  1  0.66423000  0.96116100  0.80059700  1
  C  451  1  0.68392900  0.98551900  0.80594100  1
  C  452  1  0.70791200  0.98063300  0.81886100  1
  C  453  1  0.87225900  0.94432100  0.82241500  1
  C  454  1  0.88664600  0.91637800  0.81753400  1
  C  455  1  0.87954500  0.97118400  0.81215400  1
  C  456  1  0.90037900  0.96995600  0.79696900  1
  C  457  1  0.91470200  0.94197800  0.79196000  1
  C  458  1  0.90759100  0.91522100  0.80244700  1
  C  485  1  0.65960400  0.94201000  0.97176600  1
  C  486  1  0.64059600  0.96621400  0.78794200  1
  C  487  1  0.93224000  0.93998500  0.77574300  1
  C  488  1  0.95052700  0.96966200  0.95939200  1
  C  493  1  0.20053500  0.44916300  0.88780000  1
  C  494  1  0.19886700  0.45212600  0.86841800  1
  C  495  1  0.22866000  0.45028100  0.86114300  1
  C  497  1  0.23145000  0.44642500  0.89280900  1
  C  498  1  0.24258900  0.44313400  0.91155800  1
  C  499  1  0.27399300  0.44395800  0.91686700  1
  C  501  1  0.32514300  0.44777100  0.91525000  1
  C  502  1  0.31709300  0.44486100  0.93425800  1
  C  503  1  0.28554600  0.44202700  0.93523300  1
  C  504  1  0.35537300  0.45044400  0.90796100  1
  C  505  1  0.36306300  0.45022200  0.88844500  1
  C  507  1  0.36027500  0.44647300  0.85677500  1
  C  508  1  0.39118700  0.44925200  0.86178600  1
  C  509  1  0.39285200  0.45211600  0.88117200  1
  C  510  1  0.34914000  0.44327400  0.83801900  1
  C  511  1  0.31773800  0.44413700  0.83271200  1
  C  513  1  0.26658200  0.44789700  0.83433700  1
  C  514  1  0.27463900  0.44504700  0.81532500  1
  C  515  1  0.30618800  0.44228200  0.81434200  1
  C  516  1  0.23634900  0.45055500  0.84162600  1
  C  517  1  0.21221100  0.45524700  0.82840100  1
  C  518  1  0.20684300  0.48508500  0.82135500  1
  C  519  1  0.18293400  0.49042900  0.80846100  1
  C  520  1  0.16385700  0.46607900  0.80230400  1
  C  521  1  0.16901300  0.43628700  0.80958200  1
  C  522  1  0.19309600  0.43086900  0.82244700  1
  C  523  1  0.37089000  0.43633100  0.82369100  1
  C  524  1  0.38452400  0.45950100  0.81254100  1
  C  525  1  0.40538400  0.45166400  0.79812000  1
  C  526  1  0.41296800  0.42055600  0.79457900  1
  C  527  1  0.39931500  0.39756800  0.80594700  1
  C  528  1  0.37861200  0.40533100  0.82036800  1
  C  529  1  0.37951300  0.45513200  0.92118200  1
  C  530  1  0.39871600  0.43077700  0.92706700  1
  C  531  1  0.42289200  0.43621800  0.93985800  1
  C  532  1  0.42805100  0.46600700  0.94713700  1
  C  533  1  0.40887500  0.49033300  0.94105600  1
  C  534  1  0.38487600  0.48497000  0.92823100  1
  C  535  1  0.22086600  0.43597700  0.92586500  1
  C  536  1  0.21333400  0.40491300  0.92912600  1
  C  537  1  0.20715400  0.45899500  0.93709900  1
  C  538  1  0.18643400  0.45094300  0.95155200  1
  C  539  1  0.17902900  0.41977100  0.95502100  1
  C  540  1  0.19274300  0.39693400  0.94356400  1
  C  567  1  0.43171900  0.41170200  0.77974900  1
  C  568  1  0.45160200  0.47154700  0.95976500  1
  C  569  1  0.16043100  0.41071200  0.96987600  1
  C  570  1  0.14043900  0.47158900  0.78957800  1
  C  575  1  0.39155700  0.95507500  0.38763100  1
  C  576  1  0.39295100  0.95431700  0.36817400  1
  C  577  1  0.36323500  0.95838000  0.36112700  1
  C  579  1  0.36092000  0.95932800  0.39289800  1
  C  580  1  0.35018700  0.96101400  0.41182300  1
  C  581  1  0.31880400  0.96222000  0.41718800  1
  C  583  1  0.26748700  0.96136100  0.41576100  1
  C  584  1  0.27589500  0.96367600  0.43474400  1
  C  585  1  0.30755200  0.96433800  0.43561800  1
  C  586  1  0.23705400  0.95929200  0.40869900  1
  C  587  1  0.22913600  0.95834100  0.38922400  1
  C  589  1  0.23145900  0.95912400  0.35744800  1
  C  590  1  0.20082200  0.95490000  0.36271900  1
  C  591  1  0.19942300  0.95424800  0.38218000  1
  C  592  1  0.24219000  0.96077500  0.33852000  1
  C  593  1  0.27356800  0.96205500  0.33315200  1
  C  595  1  0.32487600  0.96120200  0.33458400  1
  C  596  1  0.31647700  0.96324400  0.31559000  1
  C  597  1  0.28482300  0.96396100  0.31471300  1
  C  598  1  0.35530200  0.95915600  0.34165400  1
  C  599  1  0.37918900  0.95420200  0.32827000  1
  C  600  1  0.38402600  0.92433200  0.32111300  1
  C  601  1  0.40789400  0.91863800  0.30825100  1
  C  602  1  0.42750400  0.94265100  0.30222200  1
  C  603  1  0.42288700  0.97246100  0.30962000  1
  C  604  1  0.39886100  0.97822900  0.32247300  1
  C  605  1  0.21989700  0.96098000  0.32382200  1
  C  606  1  0.21278600  0.93389400  0.31373900  1
  C  607  1  0.19199700  0.93474100  0.29852300  1
  C  608  1  0.17749700  0.96253700  0.29332600  1
  C  609  1  0.18445500  0.98952200  0.30363100  1
  C  610  1  0.20536700  0.98875200  0.31874500  1
  C  611  1  0.21303400  0.95525600  0.42211800  1
  C  612  1  0.19348000  0.97977000  0.42726400  1
  C  613  1  0.16927400  0.97499700  0.44013700  1
  C  614  1  0.16438000  0.94571700  0.44822400  1
  C  615  1  0.18390600  0.92120600  0.44290300  1
  C  616  1  0.20793100  0.92590300  0.42998700  1
  C  617  1  0.37249400  0.96136600  0.42651100  1
  C  618  1  0.38707400  0.98917500  0.43145700  1
  C  619  1  0.37968300  0.93436000  0.43665600  1
  C  620  1  0.40061300  0.93532500  0.45179900  1
  C  621  1  0.41515000  0.96316200  0.45687100  1
  C  622  1  0.40808900  0.99007100  0.44651300  1
  C  649  1  0.15996000  0.96411500  0.27709200  1
  C  650  1  0.14075900  0.94086200  0.46091000  1
  C  651  1  0.43280000  0.96488400  0.47305300  1
  C  652  1  0.45100000  0.93677800  0.28958400  1
  C  657  1  0.01111000  0.01425300  0.99926500  1
  C  658  1  0.99628100  0.02827900  0.01491900  1
  C  659  1  0.96399500  0.02617400  0.01568000  1
  C  661  1  0.96264900  0.99720500  0.98745700  1
  C  664  1  0.04457600  0.01576800  0.99584500  1
  C  665  1  0.05659900  0.02356200  0.97594900  1
  C  666  1  0.05845100  0.04761100  0.99167100  1
  C  674  1  0.58146500  0.39116600  0.49926200  1
  C  675  1  0.59618700  0.37698400  0.51489600  1
  C  676  1  0.62847300  0.37898400  0.51573700  1
  C  678  1  0.63004000  0.40808500  0.48757600  1
  C  681  1  0.54800700  0.38976500  0.49578500  1
  C  682  1  0.53602700  0.38221600  0.47584400  1
  C  683  1  0.53408400  0.35799600  0.49146200  1
  C  691  1  0.08032000  0.51533800  0.74921500  1
  C  692  1  0.09525200  0.52869400  0.73338000  1
  C  693  1  0.12749700  0.52606600  0.73254400  1
  C  695  1  0.12860500  0.49793500  0.76108300  1
  C  698  1  0.04691100  0.51748800  0.75271700  1
  C  699  1  0.03513000  0.52579700  0.77258900  1
  C  700  1  0.03365400  0.54964500  0.75673500  1
  C  708  1  0.51142900  0.89207400  0.24968600  1
  C  709  1  0.49655500  0.87825400  0.23397900  1
  C  710  1  0.46428900  0.88062600  0.23316600  1
  C  712  1  0.46306500  0.90948100  0.26143400  1
  C  715  1  0.54486500  0.89025900  0.25316300  1
  C  716  1  0.55673100  0.88227800  0.27306600  1
  C  717  1  0.55845100  0.85828300  0.25730600  1
  C  725  1  0.14321800  0.91175300  0.50834600  1
  C  726  1  0.12927500  0.91664000  0.49053900  1
  C  727  1  0.09901100  0.90556700  0.48811300  1
  C  729  1  0.09876600  0.88528700  0.51920000  1
  C  732  1  0.17527400  0.92069600  0.51254200  1
  C  733  1  0.18231400  0.93826400  0.53090100  1
  C  734  1  0.18284900  0.95524200  0.51196400  1
  C  742  1  0.63307600  0.48789800  0.23952900  1
  C  743  1  0.62216200  0.48781300  0.25838000  1
  C  744  1  0.59431100  0.50323200  0.26209500  1
  C  746  1  0.59149300  0.52008500  0.23028200  1
  C  749  1  0.66291400  0.47436500  0.23406300  1
  C  750  1  0.66431000  0.45324400  0.21666000  1
  C  751  1  0.66673800  0.43943600  0.23650000  1
  C  759  1  0.46031100  0.42055200  0.73974900  1
  C  760  1  0.47092900  0.42006700  0.75866300  1
  C  761  1  0.49841700  0.40405100  0.76242400  1
  C  763  1  0.50143500  0.38778800  0.73050800  1
  C  766  1  0.43079800  0.43468400  0.73419600  1
  C  767  1  0.43043900  0.45674200  0.71721600  1
  C  768  1  0.42696700  0.46947600  0.73726800  1
  C  776  1  0.02036300  0.51499800  0.49742300  1
  C  777  1  0.00739100  0.51866100  0.51564400  1
  C  778  1  0.97848100  0.50516300  0.51902600  1
  C  780  1  0.97558000  0.48794200  0.48728800  1
  C  783  1  0.05110600  0.52748100  0.49280200  1
  C  784  1  0.06077500  0.53323900  0.47217600  1
  C  785  1  0.05264100  0.56041000  0.48500600  1
  C  793  1  0.57264100  0.89193100  0.99731800  1
  C  794  1  0.58547000  0.88908300  0.01563500  1
  C  795  1  0.61437100  0.90271900  0.01884900  1
  C  797  1  0.61750600  0.91851000  0.98684100  1
  C  800  1  0.54195800  0.87915200  0.99283800  1
  C  801  1  0.53212300  0.87322200  0.97226000  1
  C  802  1  0.54058200  0.84617700  0.98511200  1
  C  810  1  0.07252100  0.01369100  0.25179300  1
  C  811  1  0.08519200  0.01658800  0.23342700  1
  C  812  1  0.11408200  0.00301300  0.23009800  1
  C  814  1  0.11764000  0.98738800  0.26212400  1
  C  817  1  0.04181200  0.02637300  0.25635500  1
  C  818  1  0.03136500  0.03045000  0.27699600  1
  C  819  1  0.04042400  0.05857600  0.26522300  1
  C  827  1  0.13180100  0.41905900  0.00989100  1
  C  828  1  0.12114900  0.41865200  0.99098500  1
  C  829  1  0.09378600  0.40243000  0.98719800  1
  C  831  1  0.09100700  0.38583100  0.01907000  1
  C  834  1  0.16115600  0.43350600  0.01545700  1
  C  835  1  0.16126700  0.45548600  0.03247600  1
  C  836  1  0.16460100  0.46835200  0.01244600  1
  C  844  1  0.64288300  0.99561100  0.74057700  1
  C  845  1  0.62903400  0.99070700  0.75840900  1
  C  846  1  0.59879600  0.00181400  0.76090300  1
  C  848  1  0.59845200  0.02226700  0.72985000  1
  C  851  1  0.67488200  0.98656400  0.73629600  1
  C  852  1  0.68172400  0.96896600  0.71791900  1
  C  853  1  0.68236500  0.95199500  0.73685700  1
  C  861  1  0.52018000  0.01493100  0.49806600  1
  C  862  1  0.50754500  0.01798200  0.51643000  1
  C  863  1  0.47866700  0.00441500  0.51982300  1
  C  865  1  0.47510300  0.98844700  0.48787700  1
  C  868  1  0.55086200  0.02760500  0.49344000  1
  C  869  1  0.56109700  0.03192100  0.47277900  1
  C  870  1  0.55221300  0.05991600  0.48472100  1
  C  878  1  0.01989500  0.89025900  0.75083100  1
  C  879  1  0.00701900  0.88639100  0.73257600  1
  C  880  1  0.97790900  0.89942300  0.72917500  1
  C  882  1  0.97445300  0.91617600  0.76097400  1
  C  885  1  0.05097600  0.87850900  0.75540400  1
  C  886  1  0.06205900  0.87617300  0.77602400  1
  C  887  1  0.05328900  0.84703100  0.76514000  1
  C  895  1  0.95001500  0.40966700  0.24073700  1
  C  896  1  0.96388700  0.41451100  0.25857100  1
  C  897  1  0.99407600  0.40328200  0.26106800  1
  C  899  1  0.99438200  0.38291200  0.23000800  1
  C  902  1  0.91801600  0.41872100  0.23646900  1
  C  903  1  0.91117600  0.43633500  0.21809600  1
  C  904  1  0.91052600  0.45328800  0.23704000  1
  C  912  1  0.51223700  0.51553300  0.99971200  1
  C  913  1  0.49746400  0.52946500  0.01541200  1
  C  914  1  0.46521300  0.52708800  0.01635200  1
  C  916  1  0.46374500  0.49828200  0.98807800  1
  C  919  1  0.54565600  0.51728800  0.99615800  1
  C  920  1  0.55746600  0.52492500  0.97619200  1
  C  921  1  0.55919100  0.54920600  0.99178400  1
  C  929  1  0.28571200  0.33474600  0.13646600  1
  C  930  1  0.28413300  0.33377000  0.11700400  1
  C  931  1  0.28251500  0.36392000  0.11029300  1
  C  933  1  0.28461200  0.36549200  0.14208800  1
  C  934  1  0.28514500  0.37590200  0.16111300  1
  C  935  1  0.28336200  0.40709300  0.16684400  1
  C  937  1  0.28040300  0.45836500  0.16596900  1
  C  938  1  0.28056900  0.44938600  0.18490500  1
  C  939  1  0.28264100  0.41777800  0.18544600  1
  C  940  1  0.27894000  0.48897800  0.15916100  1
  C  941  1  0.27949000  0.49754000  0.13979400  1
  C  943  1  0.28053400  0.49605400  0.10799500  1
  C  944  1  0.27995600  0.52682600  0.11363200  1
  C  945  1  0.27905800  0.52772900  0.13310400  1
  C  946  1  0.28084900  0.48568600  0.08895100  1
  C  947  1  0.28079600  0.45446200  0.08319900  1
  C  949  1  0.28063400  0.40307500  0.08409700  1
  C  950  1  0.27975000  0.41206000  0.06516600  1
  C  951  1  0.28011600  0.44375200  0.06460700  1
  C  952  1  0.28091400  0.37242700  0.09092600  1
  C  953  1  0.27720000  0.34852600  0.07741700  1
  C  954  1  0.24731100  0.33894600  0.07249700  1
  C  955  1  0.24296700  0.31545200  0.05917900  1
  C  956  1  0.26831500  0.30088700  0.05033300  1
  C  957  1  0.29824100  0.31046200  0.05552400  1
  C  958  1  0.30267800  0.33403500  0.06888400  1
  C  959  1  0.28260800  0.50835100  0.07454200  1
  C  960  1  0.25584700  0.52176900  0.06685500  1
  C  961  1  0.25814600  0.54455300  0.05280700  1
  C  962  1  0.28719900  0.55464500  0.04637400  1
  C  963  1  0.31388700  0.54087400  0.05408400  1
  C  964  1  0.31164700  0.51808700  0.06804900  1
  C  965  1  0.27464100  0.51263200  0.17275500  1
  C  966  1  0.29982800  0.52766000  0.18126100  1
  C  967  1  0.29493300  0.55016900  0.19523200  1
  C  968  1  0.26482700  0.55830200  0.20090700  1
  C  969  1  0.23975400  0.54309500  0.19219600  1
  C  970  1  0.24456400  0.52062300  0.17828300  1
  C  971  1  0.28994000  0.35372600  0.17555800  1
  C  972  1  0.32002600  0.34877200  0.18233100  1
  C  973  1  0.26517200  0.33779800  0.18396600  1
  C  974  1  0.27043300  0.31736700  0.19906100  1
  C  975  1  0.30051700  0.31282400  0.20600000  1
  C  976  1  0.32523600  0.32862700  0.19746800  1
  C  1003  1  0.28944100  0.57605800  0.03197600  1
  C  1004  1  0.26027700  0.57914700  0.21550300  1
  C  1005  1  0.30646900  0.29471500  0.22147500  1
  C  1006  1  0.26423700  0.27800900  0.03682500  1
  C  1011  1  0.77013900  0.52900100  0.63582600  1
  C  1012  1  0.77051400  0.52993400  0.61635300  1
  C  1013  1  0.77030900  0.49974700  0.60964100  1
  C  1015  1  0.77011400  0.49822000  0.64144300  1
  C  1016  1  0.77055000  0.48784700  0.66047900  1
  C  1017  1  0.77134700  0.45663400  0.66621200  1
  C  1019  1  0.77253200  0.40527500  0.66528600  1
  C  1020  1  0.77365100  0.41427200  0.68421400  1
  C  1021  1  0.77269600  0.44594300  0.68479100  1
  C  1022  1  0.77268900  0.37462300  0.65845400  1
  C  1023  1  0.77076400  0.36608300  0.63910900  1
  C  1025  1  0.76789500  0.36763000  0.60733500  1
  C  1026  1  0.76708700  0.33688100  0.61298100  1
  C  1027  1  0.76921100  0.33592000  0.63242800  1
  C  1028  1  0.76683200  0.37804300  0.58831400  1
  C  1029  1  0.76790700  0.40927200  0.58257800  1
  C  1031  1  0.76972600  0.46060500  0.58344800  1
  C  1032  1  0.76950300  0.45164500  0.56451200  1
  C  1033  1  0.76816400  0.41999100  0.56397500  1
  C  1034  1  0.77065400  0.49123100  0.59026100  1
  C  1035  1  0.77441600  0.51503200  0.57670400  1
  C  1036  1  0.80432700  0.52402400  0.57144300  1
  C  1037  1  0.80870700  0.54771800  0.55827300  1
  C  1038  1  0.78337600  0.56307400  0.54992100  1
  C  1039  1  0.75343700  0.55401600  0.55542300  1
  C  1040  1  0.74896000  0.53026900  0.56865700  1
  C  1041  1  0.76194400  0.35581000  0.57390500  1
  C  1042  1  0.78663200  0.33972100  0.56552300  1
  C  1043  1  0.78125800  0.31914400  0.55051700  1
  C  1044  1  0.75113600  0.31459000  0.54364300  1
  C  1045  1  0.72650000  0.33058200  0.55213700  1
  C  1046  1  0.73182400  0.35087900  0.56718200  1
  C  1047  1  0.77698100  0.35084600  0.67197900  1
  C  1048  1  0.75184800  0.33659000  0.68103300  1
  C  1049  1  0.75684300  0.31426300  0.69510400  1
  C  1050  1  0.78699100  0.30557400  0.70038800  1
  C  1051  1  0.81200100  0.31996100  0.69109300  1
  C  1052  1  0.80709200  0.34223700  0.67707200  1
  C  1053  1  0.76889000  0.51047300  0.67491200  1
  C  1054  1  0.73990000  0.52008800  0.68155100  1
  C  1055  1  0.79570500  0.52395800  0.68248200  1
  C  1056  1  0.79350900  0.54670700  0.69655600  1
  C  1057  1  0.76450100  0.55668900  0.70312800  1
  C  1058  1  0.73775900  0.54284400  0.69553800  1
  C  1085  1  0.74501900  0.29624900  0.52829100  1
  C  1086  1  0.79169000  0.28501900  0.71514700  1
  C  1087  1  0.76236700  0.57809300  0.71753200  1
  C  1088  1  0.78746600  0.58623500  0.53659700  1
  C  1093  1  0.26677100  0.83698500  0.61176400  1
  C  1094  1  0.26825600  0.83558900  0.63121900  1
  C  1095  1  0.27013900  0.86558500  0.63815500  1
  C  1097  1  0.26836900  0.86782400  0.60637900  1
  C  1098  1  0.26810400  0.87864400  0.58743700  1
  C  1099  1  0.27013100  0.90995600  0.58199800  1
  C  1101  1  0.27295800  0.96122100  0.58332900  1
  C  1102  1  0.27338100  0.95263100  0.56432100  1
  C  1103  1  0.27136300  0.92103400  0.56349600  1
  C  1104  1  0.27382100  0.99171800  0.59038800  1
  C  1105  1  0.27232200  0.99990300  0.60980100  1
  C  1107  1  0.26978300  0.99772400  0.64156100  1
  C  1108  1  0.26932300  0.02859910  0.63616500  1
  C  1109  1  0.27124600  0.02994310  0.61672000  1
  C  1110  1  0.26882400  0.98691000  0.66049600  1
  C  1111  1  0.26979800  0.95554800  0.66595800  1
  C  1113  1  0.27121100  0.90421000  0.66464700  1
  C  1114  1  0.27154300  0.91277900  0.68365400  1
  C  1115  1  0.27040900  0.94442900  0.68446500  1
  C  1116  1  0.27142100  0.87370800  0.65758600  1
  C  1117  1  0.27483100  0.84955300  0.67094300  1
  C  1118  1  0.30459800  0.83972500  0.67594200  1
  C  1119  1  0.30863100  0.81611900  0.68921800  1
  C  1120  1  0.28308500  0.80169700  0.69794400  1
  C  1121  1  0.25328400  0.81153000  0.69266800  1
  C  1122  1  0.24915700  0.83520700  0.67934500  1
  C  1123  1  0.26428400  0.00889114  0.67509400  1
  C  1124  1  0.28923000  0.02434110  0.68364000  1
  C  1125  1  0.28416000  0.04478510  0.69875500  1
  C  1126  1  0.25407700  0.04989110  0.70552900  1
  C  1127  1  0.22917600  0.03455710  0.69688400  1
  C  1128  1  0.23420800  0.01437810  0.68173500  1
  C  1129  1  0.27801700  0.01569810  0.57699800  1
  C  1130  1  0.25277700  0.03020910  0.56821300  1
  C  1131  1  0.25760300  0.05264410  0.55418900  1
  C  1132  1  0.28768700  0.06116110  0.54868100  1
  C  1133  1  0.31281100  0.04649810  0.55769000  1
  C  1134  1  0.30807100  0.02411610  0.57166800  1
  C  1135  1  0.26262800  0.85688400  0.57283400  1
  C  1136  1  0.23238000  0.85300500  0.56606900  1
  C  1137  1  0.28673500  0.83980100  0.56456100  1
  C  1138  1  0.28064600  0.81924200  0.54964500  1
  C  1139  1  0.25039200  0.81566600  0.54274900  1
  C  1140  1  0.22636500  0.83273400  0.55111300  1
  C  1167  1  0.24835400  0.06783110  0.72109500  1
  C  1168  1  0.29218500  0.08179810  0.53395300  1
  C  1169  1  0.24350600  0.79695700  0.52766800  1
  C  1170  1  0.28684900  0.77880500  0.71147600  1
  C  1175  1  0.78587900  0.03016810  0.11247200  1
  C  1176  1  0.78408100  0.03136210  0.13192100  1
  C  1177  1  0.78247800  0.00128614  0.13875500  1
  C  1179  1  0.78490100  0.99935700  0.10697200  1
  C  1180  1  0.78583100  0.98873600  0.08799100  1
  C  1181  1  0.78450600  0.95745600  0.08239300  1
  C  1183  1  0.78234700  0.90615500  0.08349500  1
  C  1184  1  0.78276700  0.91488300  0.06451800  1
  C  1185  1  0.78430100  0.94651900  0.06383900  1
  C  1186  1  0.78123000  0.87562400  0.09045200  1
  C  1187  1  0.78132900  0.86733700  0.10987100  1
  C  1189  1  0.78145800  0.86922000  0.14166800  1
  C  1190  1  0.78119400  0.83837900  0.13617700  1
  C  1191  1  0.78090400  0.83722800  0.11670900  1
  C  1192  1  0.78126000  0.87979700  0.16066800  1
  C  1193  1  0.78096900  0.91108200  0.16627800  1
  C  1195  1  0.78060100  0.96244700  0.16513700  1
  C  1196  1  0.77957900  0.95369000  0.18410700  1
  C  1197  1  0.78001300  0.92200800  0.18481500  1
  C  1198  1  0.78084700  0.99300800  0.15816000  1
  C  1199  1  0.77717000  0.01706310  0.17156900  1
  C  1200  1  0.74730900  0.02676710  0.17645900  1
  C  1201  1  0.74303700  0.05031610  0.18975000  1
  C  1202  1  0.76842800  0.06481110  0.19859500  1
  C  1203  1  0.79832500  0.05511110  0.19342900  1
  C  1204  1  0.80269200  0.03148910  0.18009600  1
  C  1205  1  0.78294400  0.85728900  0.17517400  1
  C  1206  1  0.75616800  0.84363000  0.18267800  1
  C  1207  1  0.75842600  0.82071500  0.19665000  1
  C  1208  1  0.78745700  0.81071400  0.20317500  1
  C  1209  1  0.81415500  0.82476600  0.19567000  1
  C  1210  1  0.81195500  0.84768100  0.18178400  1
  C  1211  1  0.77770300  0.85165900  0.07698200  1
  C  1212  1  0.80331900  0.83640200  0.06914200  1
  C  1213  1  0.79910400  0.81252400  0.05596700  1
  C  1214  1  0.76927300  0.80334800  0.05031400  1
  C  1215  1  0.74377900  0.81873900  0.05846000  1
  C  1216  1  0.74789700  0.84256600  0.07157200  1
  C  1217  1  0.79098300  0.01076710  0.07350000  1
  C  1218  1  0.82121500  0.01547110  0.06691100  1
  C  1219  1  0.76651900  0.02706110  0.06501800  1
  C  1220  1  0.77223600  0.04762410  0.05004900  1
  C  1221  1  0.80247100  0.05193710  0.04329100  1
  C  1222  1  0.82686300  0.03570810  0.05188300  1
  C  1249  1  0.78964600  0.78907400  0.21744800  1
  C  1250  1  0.76545800  0.78010300  0.03701300  1
  C  1251  1  0.80898500  0.07038010  0.02803200  1
  C  1252  1  0.76442500  0.08771210  0.21209400  1
  C  1257  1  0.93194100  0.69065400  0.36190700  1
  C  1258  1  0.93046200  0.68741300  0.38127000  1
  C  1259  1  0.96040300  0.68810200  0.38839000  1
  C  1261  1  0.96284900  0.69271200  0.35674900  1
  C  1262  1  0.97378000  0.69610000  0.33795800  1
  C  1263  1  0.00512214  0.69515100  0.33251400  1
  C  1265  1  0.05625510  0.69079200  0.33380900  1
  C  1266  1  0.04798210  0.69470800  0.31490200  1
  C  1267  1  0.01644910  0.69773100  0.31412500  1
  C  1268  1  0.08653110  0.68703700  0.34084600  1
  C  1269  1  0.09443210  0.68523100  0.36030400  1
  C  1271  1  0.09219110  0.68545200  0.39209300  1
  C  1272  1  0.12276300  0.68097800  0.38676400  1
  C  1273  1  0.12408800  0.68052500  0.36729500  1
  C  1274  1  0.08150810  0.68687400  0.41104200  1
  C  1275  1  0.05013410  0.68787700  0.41645000  1
  C  1277  1  0.99880300  0.68740000  0.41498100  1
  C  1278  1  0.00719314  0.68821700  0.43401100  1
  C  1279  1  0.03885510  0.68889900  0.43491200  1
  C  1280  1  0.96835900  0.68661600  0.40784300  1
  C  1281  1  0.94423400  0.68189200  0.42108500  1
  C  1282  1  0.93805300  0.65182900  0.42749900  1
  C  1283  1  0.91400300  0.64640200  0.44028000  1
  C  1284  1  0.89556000  0.67088600  0.44693800  1
  C  1285  1  0.90150000  0.70091900  0.44028400  1
  C  1286  1  0.92574000  0.70641200  0.42754200  1
  C  1287  1  0.10386500  0.68765000  0.42569400  1
  C  1288  1  0.11142200  0.66094500  0.43603200  1
  C  1289  1  0.13213000  0.66254400  0.45127400  1
  C  1290  1  0.14608500  0.69072800  0.45624100  1
  C  1291  1  0.13870500  0.71732400  0.44567100  1
  C  1292  1  0.11787800  0.71580200  0.43054100  1
  C  1293  1  0.11040600  0.68289600  0.32735700  1
  C  1294  1  0.13030400  0.70722100  0.32237200  1
  C  1295  1  0.15428000  0.70238800  0.30935000  1
  C  1296  1  0.15857900  0.67325600  0.30094000  1
  C  1297  1  0.13867100  0.64894700  0.30607800  1
  C  1298  1  0.11486500  0.65369900  0.31914000  1
  C  1299  1  0.95185000  0.70294200  0.32370200  1
  C  1300  1  0.94445900  0.73391200  0.32002400  1
  C  1301  1  0.93756400  0.67957700  0.31302300  1
  C  1302  1  0.91640300  0.68717200  0.29871800  1
  C  1303  1  0.90912900  0.71824300  0.29479900  1
  C  1304  1  0.92342700  0.74142500  0.30573000  1
  C  1331  1  0.16349500  0.69307500  0.47249400  1
  C  1332  1  0.18211900  0.66832200  0.28820600  1
  C  1333  1  0.88994200  0.72685400  0.28008600  1
  C  1334  1  0.87202300  0.66528400  0.45956500  1
  C  1339  1  0.12093000  0.18070200  0.86129500  1
  C  1340  1  0.12228100  0.18161200  0.88075200  1
  C  1341  1  0.09256510  0.17751400  0.88778900  1
  C  1343  1  0.09030710  0.17639300  0.85602000  1
  C  1344  1  0.07960910  0.17457000  0.83709000  1
  C  1345  1  0.04823010  0.17342600  0.83171200  1
  C  1347  1  0.99691100  0.17452400  0.83310600  1
  C  1348  1  0.00534014  0.17212600  0.81413100  1
  C  1349  1  0.03699410  0.17129400  0.81327800  1
  C  1350  1  0.96647100  0.17669200  0.84014400  1
  C  1351  1  0.95852700  0.17762900  0.85961500  1
  C  1353  1  0.96079400  0.17671900  0.89139300  1
  C  1354  1  0.93017700  0.18104200  0.88610900  1
  C  1355  1  0.92881500  0.18179300  0.86664900  1
  C  1356  1  0.97149000  0.17496700  0.91032500  1
  C  1357  1  0.00286414  0.17371500  0.91570700  1
  C  1359  1  0.05417610  0.17461600  0.91430500  1
  C  1360  1  0.04575010  0.17250700  0.93329200  1
  C  1361  1  0.01409310  0.17176500  0.93415100  1
  C  1362  1  0.08461110  0.17676800  0.90726000  1
  C  1363  1  0.10846800  0.18174900  0.92066300  1
  C  1364  1  0.11321100  0.21162400  0.92783900  1
  C  1365  1  0.13703500  0.21736800  0.94072600  1
  C  1366  1  0.15671200  0.19341000  0.94675800  1
  C  1367  1  0.15219000  0.16359800  0.93933600  1
  C  1368  1  0.12820000  0.15777300  0.92646400  1
  C  1369  1  0.94917600  0.17476500  0.92501200  1
  C  1370  1  0.94200600  0.20187200  0.93505800  1
  C  1371  1  0.92120400  0.20104500  0.95026900  1
  C  1372  1  0.90678000  0.17323300  0.95551100  1
  C  1373  1  0.91377100  0.14622500  0.94523600  1
  C  1374  1  0.93471300  0.14697800  0.93013600  1
  C  1375  1  0.94249500  0.18091100  0.82671100  1
  C  1376  1  0.92278400  0.15654000  0.82153300  1
  C  1377  1  0.89861900  0.16150800  0.80865600  1
  C  1378  1  0.89390900  0.19084000  0.80059700  1
  C  1379  1  0.91360800  0.21519800  0.80594100  1
  C  1380  1  0.93759100  0.21031200  0.81886100  1
  C  1381  1  0.10193800  0.17400000  0.82241500  1
  C  1382  1  0.11632500  0.14605700  0.81753400  1
  C  1383  1  0.10922400  0.20086300  0.81215400  1
  C  1384  1  0.13005800  0.19963500  0.79696900  1
  C  1385  1  0.14438100  0.17165700  0.79196000  1
  C  1386  1  0.13727000  0.14490000  0.80244700  1
  C  1413  1  0.88928300  0.17168900  0.97176600  1
  C  1414  1  0.87027500  0.19589300  0.78794200  1
  C  1415  1  0.16191900  0.16966400  0.77574300  1
  C  1416  1  0.18020600  0.19934100  0.95939200  1
  C  1421  1  0.43021400  0.67884200  0.88780000  1
  C  1422  1  0.42854600  0.68180500  0.86841800  1
  C  1423  1  0.45833900  0.67996000  0.86114300  1
  C  1425  1  0.46112900  0.67610400  0.89280900  1
  C  1426  1  0.47226800  0.67281300  0.91155800  1
  C  1427  1  0.50367200  0.67363700  0.91686700  1
  C  1429  1  0.55482200  0.67745000  0.91525000  1
  C  1430  1  0.54677200  0.67454000  0.93425800  1
  C  1431  1  0.51522500  0.67170600  0.93523300  1
  C  1432  1  0.58505200  0.68012300  0.90796100  1
  C  1433  1  0.59274200  0.67990100  0.88844500  1
  C  1435  1  0.58995400  0.67615200  0.85677500  1
  C  1436  1  0.62086600  0.67893100  0.86178600  1
  C  1437  1  0.62253100  0.68179500  0.88117200  1
  C  1438  1  0.57881900  0.67295300  0.83801900  1
  C  1439  1  0.54741700  0.67381600  0.83271200  1
  C  1441  1  0.49626100  0.67757600  0.83433700  1
  C  1442  1  0.50431800  0.67472600  0.81532500  1
  C  1443  1  0.53586700  0.67196100  0.81434200  1
  C  1444  1  0.46602800  0.68023400  0.84162600  1
  C  1445  1  0.44189000  0.68492600  0.82840100  1
  C  1446  1  0.43652200  0.71476400  0.82135500  1
  C  1447  1  0.41261300  0.72010800  0.80846100  1
  C  1448  1  0.39353600  0.69575800  0.80230400  1
  C  1449  1  0.39869200  0.66596600  0.80958200  1
  C  1450  1  0.42277500  0.66054800  0.82244700  1
  C  1451  1  0.60056900  0.66601000  0.82369100  1
  C  1452  1  0.61420300  0.68918000  0.81254100  1
  C  1453  1  0.63506300  0.68134300  0.79812000  1
  C  1454  1  0.64264700  0.65023500  0.79457900  1
  C  1455  1  0.62899400  0.62724700  0.80594700  1
  C  1456  1  0.60829100  0.63501000  0.82036800  1
  C  1457  1  0.60919200  0.68481100  0.92118200  1
  C  1458  1  0.62839500  0.66045600  0.92706700  1
  C  1459  1  0.65257100  0.66589700  0.93985800  1
  C  1460  1  0.65773000  0.69568600  0.94713700  1
  C  1461  1  0.63855400  0.72001200  0.94105600  1
  C  1462  1  0.61455500  0.71464900  0.92823100  1
  C  1463  1  0.45054500  0.66565600  0.92586500  1
  C  1464  1  0.44301300  0.63459200  0.92912600  1
  C  1465  1  0.43683300  0.68867400  0.93709900  1
  C  1466  1  0.41611300  0.68062200  0.95155200  1
  C  1467  1  0.40870800  0.64945000  0.95502100  1
  C  1468  1  0.42242200  0.62661300  0.94356400  1
  C  1495  1  0.66139800  0.64138100  0.77974900  1
  C  1496  1  0.68128100  0.70122600  0.95976500  1
  C  1497  1  0.39011000  0.64039100  0.96987600  1
  C  1498  1  0.37011800  0.70126800  0.78957800  1
  C  1503  1  0.62123600  0.18475400  0.38763100  1
  C  1504  1  0.62263000  0.18399600  0.36817400  1
  C  1505  1  0.59291400  0.18805900  0.36112700  1
  C  1507  1  0.59059900  0.18900700  0.39289800  1
  C  1508  1  0.57986600  0.19069300  0.41182300  1
  C  1509  1  0.54848300  0.19189900  0.41718800  1
  C  1511  1  0.49716600  0.19104000  0.41576100  1
  C  1512  1  0.50557400  0.19335500  0.43474400  1
  C  1513  1  0.53723100  0.19401700  0.43561800  1
  C  1514  1  0.46673300  0.18897100  0.40869900  1
  C  1515  1  0.45881500  0.18802000  0.38922400  1
  C  1517  1  0.46113800  0.18880300  0.35744800  1
  C  1518  1  0.43050100  0.18457900  0.36271900  1
  C  1519  1  0.42910200  0.18392700  0.38218000  1
  C  1520  1  0.47186900  0.19045400  0.33852000  1
  C  1521  1  0.50324700  0.19173400  0.33315200  1
  C  1523  1  0.55455500  0.19088100  0.33458400  1
  C  1524  1  0.54615600  0.19292300  0.31559000  1
  C  1525  1  0.51450200  0.19364000  0.31471300  1
  C  1526  1  0.58498100  0.18883500  0.34165400  1
  C  1527  1  0.60886800  0.18388100  0.32827000  1
  C  1528  1  0.61370500  0.15401100  0.32111300  1
  C  1529  1  0.63757300  0.14831700  0.30825100  1
  C  1530  1  0.65718300  0.17233000  0.30222200  1
  C  1531  1  0.65256600  0.20214000  0.30962000  1
  C  1532  1  0.62854000  0.20790800  0.32247300  1
  C  1533  1  0.44957600  0.19065900  0.32382200  1
  C  1534  1  0.44246500  0.16357300  0.31373900  1
  C  1535  1  0.42167600  0.16442000  0.29852300  1
  C  1536  1  0.40717600  0.19221600  0.29332600  1
  C  1537  1  0.41413400  0.21920100  0.30363100  1
  C  1538  1  0.43504600  0.21843100  0.31874500  1
  C  1539  1  0.44271300  0.18493500  0.42211800  1
  C  1540  1  0.42315900  0.20944900  0.42726400  1
  C  1541  1  0.39895300  0.20467600  0.44013700  1
  C  1542  1  0.39405900  0.17539600  0.44822400  1
  C  1543  1  0.41358500  0.15088500  0.44290300  1
  C  1544  1  0.43761000  0.15558200  0.42998700  1
  C  1545  1  0.60217300  0.19104500  0.42651100  1
  C  1546  1  0.61675300  0.21885400  0.43145700  1
  C  1547  1  0.60936200  0.16403900  0.43665600  1
  C  1548  1  0.63029200  0.16500400  0.45179900  1
  C  1549  1  0.64482900  0.19284100  0.45687100  1
  C  1550  1  0.63776800  0.21975000  0.44651300  1
  C  1577  1  0.38963900  0.19379400  0.27709200  1
  C  1578  1  0.37043800  0.17054100  0.46091000  1
  C  1579  1  0.66247900  0.19456300  0.47305300  1
  C  1580  1  0.68067900  0.16645700  0.28958400  1
  C  1585  1  0.24078900  0.24393200  0.99926500  1
  C  1586  1  0.22596000  0.25795800  0.01491900  1
  C  1587  1  0.19367400  0.25585300  0.01568000  1
  C  1589  1  0.19232800  0.22688400  0.98745700  1
  C  1592  1  0.27425500  0.24544700  0.99584500  1
  C  1593  1  0.28627800  0.25324100  0.97594900  1
  C  1594  1  0.28813000  0.27729000  0.99167100  1
  C  1602  1  0.81114400  0.62084500  0.49926200  1
  C  1603  1  0.82586600  0.60666300  0.51489600  1
  C  1604  1  0.85815200  0.60866300  0.51573700  1
  C  1606  1  0.85971900  0.63776400  0.48757600  1
  C  1609  1  0.77768600  0.61944400  0.49578500  1
  C  1610  1  0.76570600  0.61189500  0.47584400  1
  C  1611  1  0.76376300  0.58767500  0.49146200  1
  C  1619  1  0.30999900  0.74501700  0.74921500  1
  C  1620  1  0.32493100  0.75837300  0.73338000  1
  C  1621  1  0.35717600  0.75574500  0.73254400  1
  C  1623  1  0.35828400  0.72761400  0.76108300  1
  C  1626  1  0.27659000  0.74716700  0.75271700  1
  C  1627  1  0.26480900  0.75547600  0.77258900  1
  C  1628  1  0.26333300  0.77932400  0.75673500  1
  C  1636  1  0.74110800  0.12175300  0.24968600  1
  C  1637  1  0.72623400  0.10793300  0.23397900  1
  C  1638  1  0.69396800  0.11030500  0.23316600  1
  C  1640  1  0.69274400  0.13916000  0.26143400  1
  C  1643  1  0.77454400  0.11993800  0.25316300  1
  C  1644  1  0.78641000  0.11195700  0.27306600  1
  C  1645  1  0.78813000  0.08796210  0.25730600  1
  C  1653  1  0.37289700  0.14143200  0.50834600  1
  C  1654  1  0.35895400  0.14631900  0.49053900  1
  C  1655  1  0.32869000  0.13524600  0.48811300  1
  C  1657  1  0.32844500  0.11496600  0.51920000  1
  C  1660  1  0.40495300  0.15037500  0.51254200  1
  C  1661  1  0.41199300  0.16794300  0.53090100  1
  C  1662  1  0.41252800  0.18492100  0.51196400  1
  C  1670  1  0.86275500  0.71757700  0.23952900  1
  C  1671  1  0.85184100  0.71749200  0.25838000  1
  C  1672  1  0.82399000  0.73291100  0.26209500  1
  C  1674  1  0.82117200  0.74976400  0.23028200  1
  C  1677  1  0.89259300  0.70404400  0.23406300  1
  C  1678  1  0.89398900  0.68292300  0.21666000  1
  C  1679  1  0.89641700  0.66911500  0.23650000  1
  C  1687  1  0.68999000  0.65023100  0.73974900  1
  C  1688  1  0.70060800  0.64974600  0.75866300  1
  C  1689  1  0.72809600  0.63373000  0.76242400  1
  C  1691  1  0.73111400  0.61746700  0.73050800  1
  C  1694  1  0.66047700  0.66436300  0.73419600  1
  C  1695  1  0.66011800  0.68642100  0.71721600  1
  C  1696  1  0.65664600  0.69915500  0.73726800  1
  C  1704  1  0.25004200  0.74467700  0.49742300  1
  C  1705  1  0.23707000  0.74834000  0.51564400  1
  C  1706  1  0.20816000  0.73484200  0.51902600  1
  C  1708  1  0.20525900  0.71762100  0.48728800  1
  C  1711  1  0.28078500  0.75716000  0.49280200  1
  C  1712  1  0.29045400  0.76291800  0.47217600  1
  C  1713  1  0.28232000  0.79008900  0.48500600  1
  C  1721  1  0.80232000  0.12161000  0.99731800  1
  C  1722  1  0.81514900  0.11876200  0.01563500  1
  C  1723  1  0.84405000  0.13239800  0.01884900  1
  C  1725  1  0.84718500  0.14818900  0.98684100  1
  C  1728  1  0.77163700  0.10883100  0.99283800  1
  C  1729  1  0.76180200  0.10290100  0.97226000  1
  C  1730  1  0.77026100  0.07585610  0.98511200  1
  C  1738  1  0.30220000  0.24337000  0.25179300  1
  C  1739  1  0.31487100  0.24626700  0.23342700  1
  C  1740  1  0.34376100  0.23269200  0.23009800  1
  C  1742  1  0.34731900  0.21706700  0.26212400  1
  C  1745  1  0.27149100  0.25605200  0.25635500  1
  C  1746  1  0.26104400  0.26012900  0.27699600  1
  C  1747  1  0.27010300  0.28825500  0.26522300  1
  C  1755  1  0.36148000  0.64873800  0.00989100  1
  C  1756  1  0.35082800  0.64833100  0.99098500  1
  C  1757  1  0.32346500  0.63210900  0.98719800  1
  C  1759  1  0.32068600  0.61551000  0.01907000  1
  C  1762  1  0.39083500  0.66318500  0.01545700  1
  C  1763  1  0.39094600  0.68516500  0.03247600  1
  C  1764  1  0.39428000  0.69803100  0.01244600  1
  C  1772  1  0.87256200  0.22529000  0.74057700  1
  C  1773  1  0.85871300  0.22038600  0.75840900  1
  C  1774  1  0.82847500  0.23149300  0.76090300  1
  C  1776  1  0.82813100  0.25194600  0.72985000  1
  C  1779  1  0.90456100  0.21624300  0.73629600  1
  C  1780  1  0.91140300  0.19864500  0.71791900  1
  C  1781  1  0.91204400  0.18167400  0.73685700  1
  C  1789  1  0.74985900  0.24461000  0.49806600  1
  C  1790  1  0.73722400  0.24766100  0.51643000  1
  C  1791  1  0.70834600  0.23409400  0.51982300  1
  C  1793  1  0.70478200  0.21812600  0.48787700  1
  C  1796  1  0.78054100  0.25728400  0.49344000  1
  C  1797  1  0.79077600  0.26160000  0.47277900  1
  C  1798  1  0.78189200  0.28959500  0.48472100  1
  C  1806  1  0.24957400  0.11993800  0.75083100  1
  C  1807  1  0.23669800  0.11607000  0.73257600  1
  C  1808  1  0.20758800  0.12910200  0.72917500  1
  C  1810  1  0.20413200  0.14585500  0.76097400  1
  C  1813  1  0.28065500  0.10818800  0.75540400  1
  C  1814  1  0.29173800  0.10585200  0.77602400  1
  C  1815  1  0.28296800  0.07671010  0.76514000  1
  C  1823  1  0.17969400  0.63934600  0.24073700  1
  C  1824  1  0.19356600  0.64419000  0.25857100  1
  C  1825  1  0.22375500  0.63296100  0.26106800  1
  C  1827  1  0.22406100  0.61259100  0.23000800  1
  C  1830  1  0.14769500  0.64840000  0.23646900  1
  C  1831  1  0.14085500  0.66601400  0.21809600  1
  C  1832  1  0.14020500  0.68296700  0.23704000  1
  C  1840  1  0.74191600  0.74521200  0.99971200  1
  C  1841  1  0.72714300  0.75914400  0.01541200  1
  C  1842  1  0.69489200  0.75676700  0.01635200  1
  C  1844  1  0.69342400  0.72796100  0.98807800  1
  C  1847  1  0.77533500  0.74696700  0.99615800  1
  C  1848  1  0.78714500  0.75460400  0.97619200  1
  C  1849  1  0.78887000  0.77888500  0.99178400  1
  N  4  1  0.05314500  0.15228000  0.12588500  1
  N  8  1  0.05235800  0.20257200  0.15572500  1
  N  14  1  0.05077400  0.24984700  0.12420100  1
  N  20  1  0.05154900  0.19958300  0.09431900  1
  N  86  1  0.54025600  0.25202700  0.62523100  1
  N  90  1  0.54148200  0.20176600  0.65508000  1
  N  96  1  0.54032500  0.15443300  0.62351600  1
  N  102  1  0.53913500  0.20477500  0.59369300  1
  N  168  1  0.04063900  0.65425900  0.62270500  1
  N  172  1  0.04140800  0.70520000  0.59333600  1
  N  178  1  0.04183900  0.75187800  0.62524700  1
  N  184  1  0.04055100  0.70091600  0.65463100  1
  N  250  1  0.55322600  0.75339600  0.12323800  1
  N  254  1  0.55364800  0.70274200  0.09362300  1
  N  260  1  0.55202200  0.65587200  0.12538500  1
  N  266  1  0.55172800  0.70646300  0.15503900  1
  N  332  1  0.74921100  0.46137200  0.37310500  1
  N  336  1  0.80013300  0.46134700  0.34377400  1
  N  342  1  0.84653500  0.45824000  0.37573900  1
  N  348  1  0.79560400  0.45745900  0.40504200  1
  N  414  1  0.84463800  0.94476700  0.87239400  1
  N  418  1  0.79368400  0.94554300  0.84307400  1
  N  424  1  0.74709800  0.94499200  0.87501700  1
  N  430  1  0.79805200  0.94556600  0.90433400  1
  N  496  1  0.24729100  0.44736400  0.87636600  1
  N  500  1  0.29856200  0.44737100  0.90543100  1
  N  506  1  0.34444100  0.44726800  0.87322500  1
  N  512  1  0.29316200  0.44746500  0.84415300  1
  N  578  1  0.34496700  0.96139300  0.37651500  1
  N  582  1  0.29395000  0.96057500  0.40580900  1
  N  588  1  0.24741500  0.96121900  0.37383100  1
  N  594  1  0.29841700  0.96058200  0.34454100  1
  N  660  1  0.94824600  0.01119500  0.00203500  1
  N  662  1  0.99373600  0.99926300  0.98618300  1
  N  672  1  0.00885500  0.04576500  0.02810100  1
  N  673  1  0.94499200  0.98631100  0.97395500  1
  N  677  1  0.64433900  0.39395700  0.50214300  1
  N  679  1  0.59895000  0.40616000  0.48624400  1
  N  689  1  0.58351600  0.35931000  0.52793100  1
  N  690  1  0.64778500  0.41885700  0.47409100  1
  N  694  1  0.14312600  0.51130700  0.74632900  1
  N  696  1  0.09756700  0.50050300  0.76241900  1
  N  706  1  0.08287200  0.54620400  0.72015500  1
  N  707  1  0.14619700  0.48751500  0.77475000  1
  N  711  1  0.44860000  0.89564700  0.24682000  1
  N  713  1  0.49412200  0.90713800  0.26276700  1
  N  723  1  0.50904200  0.86069700  0.22080500  1
  N  724  1  0.44541000  0.92031300  0.27495400  1
  N  728  1  0.08491100  0.88989400  0.50223200  1
  N  730  1  0.12771100  0.89587300  0.52180300  1
  N  740  1  0.14641200  0.92632800  0.47628500  1
  N  741  1  0.08795400  0.86681100  0.53234000  1
  N  745  1  0.58033000  0.51950000  0.24821000  1
  N  747  1  0.61783200  0.50474000  0.22639200  1
  N  757  1  0.64001500  0.47929200  0.27264900  1
  N  758  1  0.58236500  0.54019400  0.21756700  1
  N  762  1  0.51233800  0.38783200  0.74849900  1
  N  764  1  0.47543100  0.40367300  0.72657800  1
  N  774  1  0.45317800  0.42878800  0.77292500  1
  N  775  1  0.51046600  0.36781500  0.71768900  1
  N  779  1  0.96324200  0.49106300  0.50481000  1
  N  781  1  0.00372100  0.50019300  0.48391500  1
  N  791  1  0.01806100  0.53806000  0.52853700  1
  N  792  1  0.95852400  0.47955600  0.47274800  1
  N  796  1  0.62971300  0.91616900  0.00444100  1
  N  798  1  0.58938400  0.90611900  0.98360700  1
  N  808  1  0.57499700  0.86991900  0.02872000  1
  N  809  1  0.63468100  0.92618800  0.97220200  1
  N  813  1  0.12965500  0.98973300  0.24447500  1
  N  815  1  0.08949500  0.99964600  0.26545000  1
  N  825  1  0.07461700  0.03563100  0.22031000  1
  N  826  1  0.13498000  0.97984300  0.27671000  1
  N  830  1  0.08007600  0.38593400  0.00108300  1
  N  832  1  0.11684000  0.40196800  0.02302900  1
  N  842  1  0.13878400  0.42754800  0.97670700  1
  N  843  1  0.08198000  0.36578700  0.03185100  1
  N  847  1  0.58467100  0.01759600  0.74683600  1
  N  849  1  0.62734100  0.01157500  0.72717100  1
  N  859  1  0.64621800  0.98090700  0.77261900  1
  N  860  1  0.58751200  0.04072400  0.71673400  1
  N  864  1  0.46310200  0.99091800  0.50552100  1
  N  866  1  0.50322000  0.00070800  0.48446900  1
  N  876  1  0.51811200  0.03721000  0.52945000  1
  N  877  1  0.45774100  0.98068400  0.47333900  1
  N  881  1  0.96228900  0.91304300  0.74341200  1
  N  883  1  0.00283800  0.90453800  0.76436100  1
  N  893  1  0.01799400  0.86756000  0.71946300  1
  N  894  1  0.95717400  0.92417600  0.77550100  1
  N  898  1  0.00816700  0.38750300  0.24699700  1
  N  900  1  0.96550200  0.39364000  0.22733300  1
  N  910  1  0.94670100  0.42423800  0.27279600  1
  N  911  1  0.00516700  0.36423200  0.21696800  1
  N  915  1  0.44940600  0.51209500  0.00274300  1
  N  917  1  0.49480500  0.50052100  0.98667700  1
  N  927  1  0.51003000  0.54722900  0.02843100  1
  N  928  1  0.44602100  0.48764100  0.97454800  1
  N  932  1  0.28282400  0.38195900  0.12588500  1
  N  936  1  0.28203700  0.43225100  0.15572500  1
  N  942  1  0.28045300  0.47952600  0.12420100  1
  N  948  1  0.28122800  0.42926200  0.09431900  1
  N  1014  1  0.76993500  0.48170600  0.62523100  1
  N  1018  1  0.77116100  0.43144500  0.65508000  1
  N  1024  1  0.77000400  0.38411200  0.62351600  1
  N  1030  1  0.76881400  0.43445400  0.59369300  1
  N  1096  1  0.27031800  0.88393800  0.62270500  1
  N  1100  1  0.27108700  0.93487900  0.59333600  1
  N  1106  1  0.27151800  0.98155700  0.62524700  1
  N  1112  1  0.27023000  0.93059500  0.65463100  1
  N  1178  1  0.78290500  0.98307500  0.12323800  1
  N  1182  1  0.78332700  0.93242100  0.09362300  1
  N  1188  1  0.78170100  0.88555100  0.12538500  1
  N  1194  1  0.78140700  0.93614200  0.15503900  1
  N  1260  1  0.97889000  0.69105100  0.37310500  1
  N  1264  1  0.02981210  0.69102600  0.34377400  1
  N  1270  1  0.07621410  0.68791900  0.37573900  1
  N  1276  1  0.02528310  0.68713800  0.40504200  1
  N  1342  1  0.07431710  0.17444600  0.87239400  1
  N  1346  1  0.02336310  0.17522200  0.84307400  1
  N  1352  1  0.97677700  0.17467100  0.87501700  1
  N  1358  1  0.02773110  0.17524500  0.90433400  1
  N  1424  1  0.47697000  0.67704300  0.87636600  1
  N  1428  1  0.52824100  0.67705000  0.90543100  1
  N  1434  1  0.57412000  0.67694700  0.87322500  1
  N  1440  1  0.52284100  0.67714400  0.84415300  1
  N  1506  1  0.57464600  0.19107200  0.37651500  1
  N  1510  1  0.52362900  0.19025400  0.40580900  1
  N  1516  1  0.47709400  0.19089800  0.37383100  1
  N  1522  1  0.52809600  0.19026100  0.34454100  1
  N  1588  1  0.17792500  0.24087400  0.00203500  1
  N  1590  1  0.22341500  0.22894200  0.98618300  1
  N  1600  1  0.23853400  0.27544400  0.02810100  1
  N  1601  1  0.17467100  0.21599000  0.97395500  1
  N  1605  1  0.87401800  0.62363600  0.50214300  1
  N  1607  1  0.82862900  0.63583900  0.48624400  1
  N  1617  1  0.81319500  0.58898900  0.52793100  1
  N  1618  1  0.87746400  0.64853600  0.47409100  1
  N  1622  1  0.37280500  0.74098600  0.74632900  1
  N  1624  1  0.32724600  0.73018200  0.76241900  1
  N  1634  1  0.31255100  0.77588300  0.72015500  1
  N  1635  1  0.37587600  0.71719400  0.77475000  1
  N  1639  1  0.67827900  0.12532600  0.24682000  1
  N  1641  1  0.72380100  0.13681700  0.26276700  1
  N  1651  1  0.73872100  0.09037610  0.22080500  1
  N  1652  1  0.67508900  0.14999200  0.27495400  1
  N  1656  1  0.31459000  0.11957300  0.50223200  1
  N  1658  1  0.35739000  0.12555200  0.52180300  1
  N  1668  1  0.37609100  0.15600700  0.47628500  1
  N  1669  1  0.31763300  0.09649010  0.53234000  1
  N  1673  1  0.81000900  0.74917900  0.24821000  1
  N  1675  1  0.84751100  0.73441900  0.22639200  1
  N  1685  1  0.86969400  0.70897100  0.27264900  1
  N  1686  1  0.81204400  0.76987300  0.21756700  1
  N  1690  1  0.74201700  0.61751100  0.74849900  1
  N  1692  1  0.70511000  0.63335200  0.72657800  1
  N  1702  1  0.68285700  0.65846700  0.77292500  1
  N  1703  1  0.74014500  0.59749400  0.71768900  1
  N  1707  1  0.19292100  0.72074200  0.50481000  1
  N  1709  1  0.23340000  0.72987200  0.48391500  1
  N  1719  1  0.24774000  0.76773900  0.52853700  1
  N  1720  1  0.18820300  0.70923500  0.47274800  1
  N  1724  1  0.85939200  0.14584800  0.00444100  1
  N  1726  1  0.81906300  0.13579800  0.98360700  1
  N  1736  1  0.80467600  0.09959810  0.02872000  1
  N  1737  1  0.86436000  0.15586700  0.97220200  1
  N  1741  1  0.35933400  0.21941200  0.24447500  1
  N  1743  1  0.31917400  0.22932500  0.26545000  1
  N  1753  1  0.30429600  0.26531000  0.22031000  1
  N  1754  1  0.36465900  0.20952200  0.27671000  1
  N  1758  1  0.30975500  0.61561300  0.00108300  1
  N  1760  1  0.34651900  0.63164700  0.02302900  1
  N  1770  1  0.36846300  0.65722700  0.97670700  1
  N  1771  1  0.31165900  0.59546600  0.03185100  1
  N  1775  1  0.81435000  0.24727500  0.74683600  1
  N  1777  1  0.85702000  0.24125400  0.72717100  1
  N  1787  1  0.87589700  0.21058600  0.77261900  1
  N  1788  1  0.81719100  0.27040300  0.71673400  1
  N  1792  1  0.69278100  0.22059700  0.50552100  1
  N  1794  1  0.73289900  0.23038700  0.48446900  1
  N  1804  1  0.74779100  0.26688900  0.52945000  1
  N  1805  1  0.68742000  0.21036300  0.47333900  1
  N  1809  1  0.19196800  0.14272200  0.74341200  1
  N  1811  1  0.23251700  0.13421700  0.76436100  1
  N  1821  1  0.24767300  0.09723910  0.71946300  1
  N  1822  1  0.18685300  0.15385500  0.77550100  1
  N  1826  1  0.23784600  0.61718200  0.24699700  1
  N  1828  1  0.19518100  0.62331900  0.22733300  1
  N  1838  1  0.17638000  0.65391700  0.27279600  1
  N  1839  1  0.23484600  0.59391100  0.21696800  1
  N  1843  1  0.67908500  0.74177400  0.00274300  1
  N  1845  1  0.72448400  0.73020000  0.98667700  1
  N  1855  1  0.73970900  0.77690800  0.02843100  1
  N  1856  1  0.67570000  0.71732000  0.97454800  1
