# generated using pymatgen
data_H13(C10N)2
_symmetry_space_group_name_H-M   'P 1'
_cell_length_a   47.94368597
_cell_length_b   47.94368597
_cell_length_c   47.94368597
_cell_angle_alpha   109.47122063
_cell_angle_beta   109.47122063
_cell_angle_gamma   109.47122063
_symmetry_Int_Tables_number   1
_chemical_formula_structural   H13(C10N)2
_chemical_formula_sum   'H312 C480 N48'
_cell_volume   84834.47361453
_cell_formula_units_Z   24
loop_
 _symmetry_equiv_pos_site_id
 _symmetry_equiv_pos_as_xyz
  1  'x, y, z'
loop_
 _atom_site_type_symbol
 _atom_site_label
 _atom_site_symmetry_multiplicity
 _atom_site_fract_x
 _atom_site_fract_y
 _atom_site_fract_z
 _atom_site_occupancy
  C  1  1  0.65538000  0.33495900  0.32279500  1
  C  2  1  0.65476350  0.36623100  0.33556550  1
  C  3  1  0.65805800  0.38629100  0.31925500  1
  C  4  1  0.66254450  0.37409950  0.29078400  1
  C  5  1  0.65791700  0.34108450  0.27405550  1
  C  6  1  0.65460400  0.32149050  0.29083150  1
  C  7  1  0.64911150  0.37523900  0.36356750  1
  C  8  1  0.64877650  0.28777350  0.27610800  1
  C  10  1  0.65538050  0.31656450  0.34119200  1
  C  11  1  0.65476000  0.32933550  0.37246050  1
  C  12  1  0.65805250  0.31302550  0.39252200  1
  C  13  1  0.66254400  0.28455650  0.38033550  1
  C  14  1  0.65792200  0.26782750  0.34732350  1
  C  15  1  0.65460350  0.28460050  0.32772700  1
  C  16  1  0.64911200  0.35734000  0.38146900  1
  C  18  1  0.64877750  0.26987550  0.29400900  1
  C  23  1  0.35001100  0.66388350  0.68850550  1
  C  24  1  0.35062350  0.67727200  0.72039150  1
  C  25  1  0.34734950  0.65767750  0.73717000  1
  C  26  1  0.34289050  0.62473150  0.72050800  1
  C  27  1  0.34748150  0.61260950  0.69209900  1
  C  28  1  0.35077850  0.63269050  0.67581100  1
  C  29  1  0.35627600  0.71092700  0.73505000  1
  C  30  1  0.35660700  0.62379350  0.64792050  1
  C  32  1  0.35001500  0.68228150  0.67011150  1
  C  33  1  0.35063350  0.71416950  0.68349800  1
  C  34  1  0.34735250  0.73094500  0.66390050  1
  C  35  1  0.34288850  0.71427750  0.63095100  1
  C  36  1  0.34748350  0.68587150  0.61883500  1
  C  37  1  0.35079100  0.66959000  0.63892300  1
  C  38  1  0.35627750  0.72882650  0.71715000  1
  C  40  1  0.35660800  0.64169350  0.63002050  1
  C  45  1  0.98428450  0.66349200  0.32239550  1
  C  46  1  0.96578300  0.63222000  0.29050800  1
  C  47  1  0.92941000  0.61216150  0.27374150  1
  C  48  1  0.91313100  0.62436250  0.29041350  1
  C  49  1  0.92942000  0.65737400  0.31880600  1
  C  50  1  0.96579000  0.67696050  0.33509150  1
  C  51  1  0.98477350  0.62320750  0.27584700  1
  C  52  1  0.98478600  0.71068200  0.36297300  1
  C  54  1  0.02107600  0.68188700  0.34078700  1
  C  55  1  0.03957250  0.66911100  0.32739850  1
  C  56  1  0.07594700  0.68543250  0.34698950  1
  C  57  1  0.09223300  0.71392150  0.37993450  1
  C  58  1  0.07594700  0.73063750  0.39205550  1
  C  59  1  0.03957600  0.71385250  0.37197750  1
  C  60  1  0.02057450  0.64110750  0.29374400  1
  C  62  1  0.02058400  0.72858050  0.38086950  1
  C  67  1  0.02107850  0.33457950  0.68810100  1
  C  68  1  0.03957400  0.32118700  0.67532800  1
  C  69  1  0.07594400  0.34078850  0.69163450  1
  C  70  1  0.09222850  0.37375000  0.72010350  1
  C  71  1  0.07594700  0.38585700  0.73683400  1
  C  72  1  0.03957700  0.36576750  0.72006350  1
  C  73  1  0.02057700  0.28753400  0.64732400  1
  C  74  1  0.02058850  0.37466500  0.73479450  1
  C  76  1  0.98428650  0.31618450  0.66970900  1
  C  77  1  0.96578350  0.28429600  0.63843750  1
  C  78  1  0.92941150  0.26752950  0.61837900  1
  C  79  1  0.91313250  0.28420100  0.63058350  1
  C  80  1  0.92942350  0.31259550  0.66359400  1
  C  81  1  0.96579200  0.32888100  0.68317800  1
  C  82  1  0.98477700  0.26963650  0.62942650  1
  C  84  1  0.98479000  0.35676700  0.71689800  1
  C  89  1  0.33803000  0.68187350  0.02384050  1
  C  90  1  0.32464250  0.66910400  0.04234150  1
  C  91  1  0.34424400  0.68541450  0.07871250  1
  C  92  1  0.37720400  0.71388550  0.09499450  1
  C  93  1  0.38930850  0.73061300  0.07870750  1
  C  94  1  0.36922000  0.71383850  0.04233950  1
  C  95  1  0.29098950  0.64110050  0.02334700  1
  C  96  1  0.37811650  0.72856300  0.02334550  1
  C  98  1  0.31963650  0.66347750  0.98705100  1
  C  99  1  0.28774650  0.63220900  0.96855150  1
  C  100  1  0.27098000  0.61214850  0.93218050  1
  C  101  1  0.28765950  0.62433700  0.91589950  1
  C  102  1  0.31604900  0.65735000  0.93218500  1
  C  103  1  0.33232600  0.67694550  0.96855350  1
  C  104  1  0.27308850  0.62319950  0.98754500  1
  C  106  1  0.36021750  0.71066300  0.98754650  1
  C  111  1  0.66695900  0.31616550  0.98705450  1
  C  112  1  0.63568600  0.28428150  0.96855550  1
  C  113  1  0.61563450  0.26750350  0.93218300  1
  C  114  1  0.62783900  0.28416500  0.91589800  1
  C  115  1  0.66084100  0.31257150  0.93218750  1
  C  116  1  0.68042500  0.32886300  0.96855900  1
  C  117  1  0.62667800  0.26962150  0.98754950  1
  C  118  1  0.71414200  0.35675250  0.98755350  1
  C  120  1  0.68535650  0.33456000  0.02384650  1
  C  121  1  0.67258450  0.32117100  0.04234550  1
  C  122  1  0.68889950  0.34076700  0.07871750  1
  C  123  1  0.71738700  0.37371700  0.09500300  1
  C  124  1  0.73409950  0.38583600  0.07871450  1
  C  125  1  0.71732050  0.36574850  0.04234500  1
  C  126  1  0.64457850  0.28752050  0.02335100  1
  C  128  1  0.73204150  0.37465200  0.02335150  1
  C  133  1  0.66733900  0.68227500  0.35277600  1
  C  134  1  0.68072400  0.71416100  0.35339100  1
  C  135  1  0.66111950  0.73092850  0.35009900  1
  C  136  1  0.62816700  0.71425500  0.34562800  1
  C  137  1  0.61606400  0.68586300  0.35024700  1
  C  138  1  0.63614850  0.66957800  0.35354850  1
  C  139  1  0.71437550  0.72882150  0.35903900  1
  C  140  1  0.62726150  0.64169550  0.35938900  1
  C  142  1  0.68573900  0.66388200  0.35277900  1
  C  143  1  0.71762500  0.67727100  0.35339300  1
  C  144  1  0.73440750  0.65768100  0.35012350  1
  C  145  1  0.71774800  0.62473500  0.34566700  1
  C  146  1  0.68934100  0.61261450  0.35026150  1
  C  147  1  0.67304900  0.63269200  0.35355400  1
  C  148  1  0.73228100  0.71092500  0.35904400  1
  C  150  1  0.64516350  0.62379900  0.35938950  1
  C  155  1  0.33842500  0.31657100  0.65814900  1
  C  156  1  0.36969300  0.32934400  0.65753000  1
  C  157  1  0.38975600  0.31303550  0.66082450  1
  C  158  1  0.37757350  0.28456900  0.66531850  1
  C  159  1  0.34456000  0.26783750  0.66069450  1
  C  160  1  0.32496050  0.28460650  0.65737500  1
  C  161  1  0.37870100  0.35734700  0.65188100  1
  C  162  1  0.29124100  0.26987750  0.65154350  1
  C  164  1  0.32002450  0.33496300  0.65814550  1
  C  165  1  0.33279400  0.36623400  0.65752900  1
  C  166  1  0.31648050  0.38629250  0.66082000  1
  C  167  1  0.28799550  0.37408800  0.66528550  1
  C  168  1  0.27127700  0.34107800  0.66067200  1
  C  169  1  0.28806250  0.32149500  0.65737350  1
  C  170  1  0.36079800  0.37524500  0.65188000  1
  C  172  1  0.27333850  0.28777300  0.65153850  1
  C  177  1  0.31964100  0.98083200  0.66970700  1
  C  178  1  0.28775300  0.96233200  0.63843900  1
  C  179  1  0.27098350  0.92596100  0.61837850  1
  C  180  1  0.28766200  0.90967950  0.63056750  1
  C  181  1  0.31605300  0.92596650  0.66358150  1
  C  182  1  0.33233350  0.96233650  0.68317600  1
  C  183  1  0.27309300  0.98132650  0.62943050  1
  C  184  1  0.36022350  0.98132850  0.71689200  1
  C  186  1  0.33803650  0.01762250  0.68810200  1
  C  187  1  0.32464600  0.03612100  0.67533300  1
  C  188  1  0.34425000  0.07249300  0.69164300  1
  C  189  1  0.37721100  0.08877650  0.72011250  1
  C  190  1  0.38931550  0.07248900  0.73683850  1
  C  191  1  0.36922500  0.03612150  0.72006750  1
  C  192  1  0.29099300  0.01712750  0.64732950  1
  C  194  1  0.37812300  0.01712750  0.73479050  1
  C  199  1  0.68535100  0.01761350  0.34078850  1
  C  200  1  0.67257850  0.03611450  0.32740400  1
  C  201  1  0.68889900  0.07248750  0.34699850  1
  C  202  1  0.71738850  0.08877100  0.37994350  1
  C  203  1  0.73410150  0.07248250  0.39206200  1
  C  204  1  0.71731400  0.03611100  0.37198100  1
  C  205  1  0.64457500  0.01711900  0.29375100  1
  C  206  1  0.73203800  0.01711600  0.38087700  1
  C  208  1  0.66695650  0.98082250  0.32239200  1
  C  209  1  0.63568700  0.96232300  0.29050400  1
  C  210  1  0.61562800  0.92595100  0.27372900  1
  C  211  1  0.62783150  0.90966700  0.29039350  1
  C  212  1  0.66083350  0.92595600  0.31880150  1
  C  213  1  0.68042350  0.96232400  0.33508250  1
  C  214  1  0.62667450  0.98131800  0.27584850  1
  C  216  1  0.71413800  0.98131850  0.36297850  1
  C  221  1  0.32001350  0.65189600  0.34117850  1
  C  222  1  0.33278200  0.65127950  0.37245050  1
  C  223  1  0.31647100  0.65457300  0.39251000  1
  C  224  1  0.28798950  0.65904350  0.38030700  1
  C  225  1  0.27126800  0.65442500  0.34729700  1
  C  226  1  0.28805250  0.65112450  0.32771200  1
  C  227  1  0.36078700  0.64563100  0.38146300  1
  C  228  1  0.27332450  0.64528300  0.29398850  1
  C  230  1  0.33841050  0.65189250  0.32278400  1
  C  231  1  0.36968350  0.65128000  0.33555950  1
  C  232  1  0.38973550  0.65454950  0.31923900  1
  C  233  1  0.37753200  0.65900750  0.29075050  1
  C  234  1  0.34453100  0.65441200  0.27403500  1
  C  235  1  0.32494800  0.65111950  0.29082050  1
  C  236  1  0.37868700  0.64562700  0.36356300  1
  C  238  1  0.29122550  0.64528200  0.27609050  1
  C  243  1  0.68572050  0.34651950  0.67009300  1
  C  244  1  0.71760950  0.34713850  0.68348500  1
  C  245  1  0.73437950  0.34384500  0.66388350  1
  C  246  1  0.71770200  0.33935250  0.63092150  1
  C  247  1  0.68931250  0.34397500  0.61881450  1
  C  248  1  0.67303350  0.34729500  0.63890350  1
  C  249  1  0.73226650  0.35278850  0.71713800  1
  C  250  1  0.64514600  0.35312600  0.63000700  1
  C  252  1  0.66732400  0.34652200  0.68848700  1
  C  253  1  0.68070950  0.34713900  0.72037550  1
  C  254  1  0.66110400  0.34384500  0.73714100  1
  C  255  1  0.62815450  0.33937950  0.72047100  1
  C  256  1  0.61605050  0.34399550  0.69207700  1
  C  257  1  0.63613450  0.34729400  0.67579150  1
  C  258  1  0.71436300  0.35278800  0.73503600  1
  C  260  1  0.62724600  0.35313100  0.64790600  1
  C  529  1  0.65715800  0.41792400  0.32869100  1
  C  530  1  0.67696700  0.44605750  0.36240350  1
  C  531  1  0.67731400  0.47763300  0.37073500  1
  C  532  1  0.65999300  0.48300700  0.34399200  1
  C  533  1  0.64085300  0.45500300  0.31021900  1
  C  534  1  0.63811000  0.42302900  0.30304500  1
  C  537  1  0.66460650  0.51599600  0.34856050  1
  C  538  1  0.69840050  0.54394100  0.36755050  1
  C  539  1  0.70559300  0.57589350  0.37022350  1
  C  540  1  0.67993000  0.58102700  0.35125100  1
  C  541  1  0.64619550  0.55293850  0.33157300  1
  C  542  1  0.63785900  0.52140300  0.33131300  1
  C  553  1  0.34825850  0.66802350  0.76970700  1
  C  554  1  0.32842850  0.68190150  0.77802000  1
  C  555  1  0.32807350  0.68988150  0.80924400  1
  C  556  1  0.34540150  0.68046750  0.83194500  1
  C  557  1  0.36455400  0.66584900  0.82308900  1
  C  558  1  0.36730150  0.66142400  0.79386150  1
  C  561  1  0.34078600  0.68041650  0.86031750  1
  C  562  1  0.30699100  0.66560050  0.85446550  1
  C  563  1  0.29979550  0.66106600  0.87921750  1
  C  564  1  0.32546000  0.66773750  0.91000150  1
  C  565  1  0.35919800  0.68183100  0.91566800  1
  C  566  1  0.36753450  0.68992200  0.89247450  1
  C  577  1  0.90720900  0.58052050  0.24121650  1
  C  578  1  0.91279850  0.55239450  0.23289100  1
  C  579  1  0.88955750  0.52081800  0.20166050  1
  C  580  1  0.85743750  0.51544150  0.17896200  1
  C  581  1  0.85166950  0.54344700  0.18782450  1
  C  582  1  0.87646550  0.57542000  0.21705550  1
  C  585  1  0.82901950  0.48245250  0.15058700  1
  C  586  1  0.82006500  0.45450800  0.15643800  1
  C  587  1  0.79078400  0.42255800  0.13168300  1
  C  588  1  0.76667150  0.41742900  0.10089350  1
  C  589  1  0.77508350  0.44550850  0.09523700  1
  C  590  1  0.80636250  0.47704450  0.11843300  1
  C  601  1  0.09814000  0.33044750  0.68220150  1
  C  602  1  0.09256300  0.31654500  0.64849100  1
  C  603  1  0.11580750  0.30855900  0.64016150  1
  C  604  1  0.14792200  0.31797800  0.66690700  1
  C  605  1  0.15368650  0.33260950  0.70067800  1
  C  606  1  0.12888650  0.33704100  0.70784850  1
  C  609  1  0.17634550  0.31802500  0.66234250  1
  C  610  1  0.18530700  0.33283300  0.64335800  1
  C  611  1  0.21458900  0.33735950  0.64069350  1
  C  612  1  0.23869500  0.33067000  0.65967100  1
  C  613  1  0.23027900  0.31660850  0.67934250  1
  C  614  1  0.19899900  0.30852600  0.67959400  1
  C  625  1  0.33390250  0.67597800  0.10090450  1
  C  626  1  0.32001100  0.64226900  0.09533400  1
  C  627  1  0.31202750  0.63393600  0.11857850  1
  C  628  1  0.32145150  0.66068000  0.15069650  1
  C  629  1  0.33608150  0.69445250  0.15646300  1
  C  630  1  0.34050900  0.70162600  0.13166200  1
  C  633  1  0.32149750  0.65611350  0.17911800  1
  C  634  1  0.33630300  0.63712450  0.18807350  1
  C  635  1  0.34082400  0.63445200  0.21735400  1
  C  636  1  0.33413150  0.65342400  0.24145850  1
  C  637  1  0.32007450  0.67309950  0.23304800  1
  C  638  1  0.31199700  0.67335950  0.20177150  1
  C  649  1  0.58400350  0.23496700  0.90998850  1
  C  650  1  0.55586200  0.22665450  0.91555450  1
  C  651  1  0.52428200  0.19543200  0.89231000  1
  C  652  1  0.51890950  0.17272850  0.86019500  1
  C  653  1  0.54691800  0.18158600  0.85443200  1
  C  654  1  0.57889300  0.21081200  0.87923400  1
  C  657  1  0.48592050  0.14435650  0.83177100  1
  C  658  1  0.45797800  0.15020950  0.82280850  1
  C  659  1  0.42603100  0.12545750  0.79352250  1
  C  660  1  0.42091050  0.09467200  0.76941050  1
  C  661  1  0.44898300  0.08900600  0.77783600  1
  C  662  1  0.48051200  0.11220000  0.80912000  1
  C  673  1  0.67144350  0.76345400  0.35098350  1
  C  674  1  0.68535700  0.77178000  0.33118400  1
  C  675  1  0.69334600  0.80301000  0.33083800  1
  C  676  1  0.68392500  0.82570700  0.34815800  1
  C  677  1  0.66929600  0.81684650  0.36730250  1
  C  678  1  0.66486000  0.78761550  0.37004350  1
  C  681  1  0.68388100  0.85408250  0.34354350  1
  C  682  1  0.66907650  0.84823200  0.30974950  1
  C  683  1  0.66455050  0.87298800  0.30255450  1
  C  684  1  0.67122650  0.90377650  0.32821600  1
  C  685  1  0.68529550  0.90943100  0.36194950  1
  C  686  1  0.69337850  0.88623500  0.37028950  1
  C  697  1  0.42138450  0.32246750  0.65991700  1
  C  698  1  0.44951950  0.35617950  0.67972500  1
  C  699  1  0.48109400  0.36450800  0.68006800  1
  C  700  1  0.48646250  0.33776200  0.66274150  1
  C  701  1  0.45845450  0.30399200  0.64360150  1
  C  702  1  0.42648400  0.29682050  0.64086350  1
  C  705  1  0.51945000  0.34232700  0.66735400  1
  C  706  1  0.54739500  0.36130950  0.70114550  1
  C  707  1  0.57934200  0.36397300  0.70833600  1
  C  708  1  0.58447050  0.34499700  0.68266850  1
  C  709  1  0.55638300  0.32532600  0.64893600  1
  C  710  1  0.52485100  0.32507550  0.64060250  1
  C  721  1  0.23844900  0.90376750  0.58674950  1
  C  722  1  0.23012750  0.90933950  0.55861200  1
  C  723  1  0.19890150  0.88609500  0.52703550  1
  C  724  1  0.17620500  0.85397600  0.52166100  1
  C  725  1  0.18506950  0.84821050  0.54966600  1
  C  726  1  0.21429900  0.87301200  0.58164100  1
  C  729  1  0.14782950  0.82555450  0.48867200  1
  C  730  1  0.15367950  0.81659950  0.46072800  1
  C  731  1  0.12892100  0.78732050  0.42877750  1
  C  732  1  0.09812300  0.76321350  0.42364350  1
  C  733  1  0.09247700  0.77162500  0.45172900  1
  C  734  1  0.11567650  0.80290250  0.48326600  1
  C  745  1  0.67946200  0.09467900  0.33665500  1
  C  746  1  0.64575250  0.08911300  0.32277750  1
  C  747  1  0.63741700  0.11235800  0.31479700  1
  C  748  1  0.66415900  0.14447300  0.32421100  1
  C  749  1  0.69793050  0.15023450  0.33882900  1
  C  750  1  0.70510400  0.12543350  0.34325450  1
  C  753  1  0.65959350  0.17289600  0.32426050  1
  C  754  1  0.64061450  0.18185850  0.33907600  1
  C  755  1  0.63795400  0.21114600  0.34360900  1
  C  756  1  0.65694650  0.23525800  0.33693650  1
  C  757  1  0.67659150  0.22683050  0.32284400  1
  C  758  1  0.67683650  0.19554550  0.31475400  1
  C  769  1  0.32590950  0.65368700  0.42415050  1
  C  770  1  0.35962400  0.67348700  0.45227600  1
  C  771  1  0.36796000  0.67383200  0.48385200  1
  C  772  1  0.34121800  0.65651100  0.48922900  1
  C  773  1  0.30744450  0.63736900  0.46122450  1
  C  774  1  0.30026650  0.63462750  0.42925200  1
  C  777  1  0.34578850  0.66112700  0.52221850  1
  C  778  1  0.36477900  0.69492100  0.55016400  1
  C  779  1  0.36744900  0.70211750  0.58211350  1
  C  780  1  0.34846300  0.67645600  0.58724200  1
  C  781  1  0.32879700  0.64272050  0.55916150  1
  C  782  1  0.32854000  0.63438100  0.52762700  1
  C  793  1  0.76691550  0.34475300  0.67422450  1
  C  794  1  0.77524200  0.32494450  0.68812650  1
  C  795  1  0.80647350  0.32460200  0.69611350  1
  C  796  1  0.82916800  0.34192850  0.68669350  1
  C  797  1  0.82030150  0.36106950  0.67206400  1
  C  798  1  0.79107000  0.36380750  0.66763050  1
  C  801  1  0.85754550  0.33732000  0.68664850  1
  C  802  1  0.85169800  0.30352550  0.67183750  1
  C  803  1  0.87645550  0.29633650  0.66731200  1
  C  804  1  0.90724950  0.32200300  0.67400250  1
  C  805  1  0.91289550  0.35573550  0.68806500  1
  C  806  1  0.88969650  0.36406900  0.69614750  1
  C  1105  1  0.34846300  0.58101750  0.68268750  1
  C  1106  1  0.32879700  0.55293550  0.64895250  1
  C  1107  1  0.32854200  0.52140250  0.64061550  1
  C  1108  1  0.34579200  0.51599700  0.66736300  1
  C  1109  1  0.36478250  0.54394200  0.70115650  1
  C  1110  1  0.36744950  0.57589200  0.70834950  1
  C  1113  1  0.34122200  0.48300700  0.66275000  1
  C  1114  1  0.30745000  0.45500150  0.64360750  1
  C  1115  1  0.30027350  0.42303000  0.64086750  1
  C  1116  1  0.32591850  0.41793100  0.65993050  1
  C  1117  1  0.35963150  0.44605800  0.67973050  1
  C  1118  1  0.36796550  0.47763300  0.68007450  1
  C  1129  1  0.65693200  0.33068750  0.24148150  1
  C  1130  1  0.67658950  0.31660900  0.23305950  1
  C  1131  1  0.67683950  0.30852350  0.20177800  1
  C  1132  1  0.65959600  0.31802850  0.17912750  1
  C  1133  1  0.64061600  0.33284350  0.18809050  1
  C  1134  1  0.63795000  0.33737100  0.21737300  1
  C  1137  1  0.66416200  0.31797950  0.15070450  1
  C  1138  1  0.69793350  0.33260400  0.15646850  1
  C  1139  1  0.70510750  0.33702900  0.13166850  1
  C  1140  1  0.67946350  0.33042450  0.10091100  1
  C  1141  1  0.64575450  0.31654400  0.09534350  1
  C  1142  1  0.63742000  0.30856400  0.11859000  1
  C  1153  1  0.09813050  0.41745100  0.76940650  1
  C  1154  1  0.09246850  0.44552550  0.77783500  1
  C  1155  1  0.11566500  0.47705350  0.80912050  1
  C  1156  1  0.14781850  0.48245600  0.83177050  1
  C  1157  1  0.15366700  0.45450900  0.82280400  1
  C  1158  1  0.12891250  0.42256600  0.79351650  1
  C  1161  1  0.17619200  0.51544100  0.86019400  1
  C  1162  1  0.18505950  0.54345250  0.85443600  1
  C  1163  1  0.21428950  0.57542100  0.87923550  1
  C  1164  1  0.23844350  0.58052000  0.90998250  1
  C  1165  1  0.23011850  0.55238350  0.91555600  1
  C  1166  1  0.19888850  0.52080800  0.89230950  1
  C  1177  1  0.90724800  0.66778100  0.32821900  1
  C  1178  1  0.91290150  0.68184800  0.36195450  1
  C  1179  1  0.88970650  0.68993150  0.37029400  1
  C  1180  1  0.85754850  0.68042600  0.34354650  1
  C  1181  1  0.85169250  0.66560850  0.30975000  1
  C  1182  1  0.87644750  0.66108300  0.30255550  1
  C  1185  1  0.82917700  0.68047250  0.34816450  1
  C  1186  1  0.82032200  0.66585150  0.36731650  1
  C  1187  1  0.79109850  0.66142700  0.37006950  1
  C  1188  1  0.76694150  0.66802500  0.35102550  1
  C  1189  1  0.77524850  0.68190450  0.33119500  1
  C  1190  1  0.80647300  0.68988500  0.33083800  1
  C  1201  1  0.67124600  0.32198600  0.91001500  1
  C  1202  1  0.68529850  0.35571850  0.91565800  1
  C  1203  1  0.69337500  0.36405450  0.89245850  1
  C  1204  1  0.68387800  0.33730650  0.86030550  1
  C  1205  1  0.66907800  0.30351250  0.85446050  1
  C  1206  1  0.66455800  0.29632150  0.87921950  1
  C  1209  1  0.68391700  0.34191550  0.83192650  1
  C  1210  1  0.66928350  0.36105550  0.82306200  1
  C  1211  1  0.66484750  0.36379500  0.79382950  1
  C  1212  1  0.67143050  0.34473450  0.76966900  1
  C  1213  1  0.68534600  0.32493550  0.77799750  1
  C  1214  1  0.69333650  0.32459300  0.80922950  1
  C  1225  1  0.42089700  0.76318650  0.10088550  1
  C  1226  1  0.44897650  0.77160750  0.09523000  1
  C  1227  1  0.48050950  0.80288900  0.11842650  1
  C  1228  1  0.48591550  0.82554050  0.15058200  1
  C  1229  1  0.45797250  0.81657850  0.15643300  1
  C  1230  1  0.42602350  0.78729450  0.13167800  1
  C  1233  1  0.51890400  0.85396250  0.17895550  1
  C  1234  1  0.54691150  0.84819950  0.18781500  1
  C  1235  1  0.57888700  0.87300150  0.21704050  1
  C  1236  1  0.58399900  0.90375750  0.24119350  1
  C  1237  1  0.55585850  0.90932500  0.23288050  1
  C  1238  1  0.52427750  0.88607800  0.20165550  1
  C  1249  1  0.33417200  0.23526700  0.65971700  1
  C  1250  1  0.32008050  0.22683650  0.67936200  1
  C  1251  1  0.31199350  0.19555100  0.67960650  1
  C  1252  1  0.32149650  0.17290250  0.66235900  1
  C  1253  1  0.33630950  0.18186550  0.64337700  1
  C  1254  1  0.34084250  0.21115450  0.64072000  1
  C  1257  1  0.32144700  0.14447700  0.66692000  1
  C  1258  1  0.33607250  0.15023700  0.70069050  1
  C  1259  1  0.34050350  0.12543650  0.70785900  1
  C  1260  1  0.33391100  0.09468950  0.68221050  1
  C  1261  1  0.32001000  0.08911600  0.64850100  1
  C  1262  1  0.31202800  0.11236250  0.64017250  1
  C  1273  1  0.58447850  0.67645100  0.35124050  1
  C  1274  1  0.55639700  0.64271650  0.33157350  1
  C  1275  1  0.52486250  0.63437700  0.33131750  1
  C  1276  1  0.51945150  0.66112300  0.34855850  1
  C  1277  1  0.54739250  0.69491950  0.36753800  1
  C  1278  1  0.57934250  0.70211450  0.37020700  1
  C  1281  1  0.48646200  0.65650550  0.34398850  1
  C  1282  1  0.45845600  0.63735400  0.31021600  1
  C  1283  1  0.42648050  0.63460300  0.30303950  1
  C  1284  1  0.42136550  0.65364600  0.32868050  1
  C  1285  1  0.44950400  0.67347500  0.36239000  1
  C  1286  1  0.48108450  0.67383100  0.37072750  1
  C  1297  1  0.76667800  0.09465450  0.42364850  1
  C  1298  1  0.77508850  0.08901300  0.45173650  1
  C  1299  1  0.80636600  0.11221300  0.48327300  1
  C  1300  1  0.82902000  0.14436550  0.48867650  1
  C  1301  1  0.82006300  0.15020800  0.46072700  1
  C  1302  1  0.79078550  0.12545000  0.42877750  1
  C  1305  1  0.85743950  0.17274450  0.52166400  1
  C  1306  1  0.85167000  0.18160800  0.54966900  1
  C  1307  1  0.87646650  0.21084050  0.58164100  1
  C  1308  1  0.90721000  0.23500200  0.58674000  1
  C  1309  1  0.91279700  0.22667300  0.55861300  1
  C  1310  1  0.88955550  0.19544050  0.52703800  1
  C  1321  1  0.32546300  0.90378700  0.67397700  1
  C  1322  1  0.35919950  0.90944300  0.68805350  1
  C  1323  1  0.36753400  0.88624650  0.69613750  1
  C  1324  1  0.34078500  0.85409150  0.68663450  1
  C  1325  1  0.30699050  0.84824000  0.67182150  1
  C  1326  1  0.29979800  0.87299550  0.66729350  1
  C  1329  1  0.34540100  0.82571800  0.68668300  1
  C  1330  1  0.36454900  0.81685850  0.67206150  1
  C  1331  1  0.36729750  0.78763250  0.66763900  1
  C  1332  1  0.34825850  0.76348050  0.67424300  1
  C  1333  1  0.32843000  0.77179350  0.68812250  1
  C  1334  1  0.32807500  0.80301850  0.69610150  1
  C  1345  1  0.67990550  0.34495550  0.58722300  1
  C  1346  1  0.64616600  0.32530800  0.55914700  1
  C  1347  1  0.63783450  0.32506450  0.52761900  1
  C  1348  1  0.66458550  0.34231200  0.52221650  1
  C  1349  1  0.69838050  0.36129300  0.55016150  1
  C  1350  1  0.70557050  0.36394950  0.58210500  1
  C  1353  1  0.65997350  0.33775050  0.48922900  1
  C  1354  1  0.64082950  0.30398000  0.46122050  1
  C  1355  1  0.63809000  0.29681050  0.42924950  1
  C  1356  1  0.65714600  0.32245900  0.42415100  1
  C  1357  1  0.67695600  0.35616850  0.45228650  1
  C  1358  1  0.67730100  0.36449700  0.48386200  1
  C  1369  1  0.23868950  0.65343100  0.33689050  1
  C  1370  1  0.23027350  0.67309850  0.32282300  1
  C  1371  1  0.19899550  0.67335400  0.31473950  1
  C  1372  1  0.17634350  0.65611300  0.32424550  1
  C  1373  1  0.18530400  0.63713250  0.33906150  1
  C  1374  1  0.21458600  0.63446400  0.34358800  1
  C  1377  1  0.14792350  0.66068300  0.32419650  1
  C  1378  1  0.15369050  0.69445600  0.33881750  1
  C  1379  1  0.12889150  0.70163300  0.34324350  1
  C  1380  1  0.09813450  0.67599100  0.33664350  1
  C  1381  1  0.09256400  0.64228150  0.32276450  1
  C  1382  1  0.11580800  0.63394350  0.31478350  1
  H  9  1  0.66794400  0.38960650  0.28065250  1
  H  17  1  0.66794450  0.27442900  0.39584650  1
  H  19  1  0.64482200  0.36536600  0.40138800  1
  H  20  1  0.64482450  0.39515900  0.37159350  1
  H  21  1  0.64434750  0.24561450  0.28164300  1
  H  22  1  0.64434850  0.27540600  0.25184950  1
  H  31  1  0.33747350  0.60919550  0.73060900  1
  H  39  1  0.33746650  0.72437400  0.61541350  1
  H  41  1  0.36056650  0.75303450  0.72946400  1
  H  42  1  0.36056350  0.72324100  0.75925650  1
  H  43  1  0.36103700  0.63375400  0.61019000  1
  H  44  1  0.36103350  0.60396100  0.63998150  1
  H  53  1  0.88749450  0.60884850  0.28031200  1
  H  61  1  0.11786850  0.72403950  0.39547000  1
  H  63  1  0.03246650  0.63308150  0.28142700  1
  H  64  1  0.97287800  0.60329000  0.25163800  1
  H  65  1  0.03247900  0.75284350  0.40069750  1
  H  66  1  0.97289550  0.72305300  0.37091050  1
  H  75  1  0.11786700  0.38927750  0.73023050  1
  H  83  1  0.88749550  0.27409700  0.61507050  1
  H  85  1  0.97288100  0.24542650  0.60950650  1
  H  86  1  0.03246950  0.27521850  0.63929600  1
  H  87  1  0.97289900  0.36470650  0.72926750  1
  H  88  1  0.03248350  0.39449650  0.75905400  1
  H  97  1  0.39273300  0.72401400  0.12063200  1
  H  105  1  0.27754950  0.60882650  0.89026100  1
  H  107  1  0.24888050  0.60327950  0.97565300  1
  H  108  1  0.27867350  0.63307250  0.03524000  1
  H  109  1  0.36815550  0.72302950  0.97565400  1
  H  110  1  0.39794850  0.75282200  0.03523850  1
  H  119  1  0.61232550  0.27406550  0.89026300  1
  H  127  1  0.72750150  0.38925450  0.12063700  1
  H  129  1  0.63655000  0.27520450  0.03524250  1
  H  130  1  0.60675700  0.24541450  0.97565550  1
  H  131  1  0.75630150  0.39448300  0.03524450  1
  H  132  1  0.72650900  0.36469300  0.97566100  1
  H  141  1  0.61263250  0.72435750  0.34021600  1
  H  149  1  0.72784800  0.60919800  0.34025000  1
  H  151  1  0.75648850  0.72324300  0.36333350  1
  H  152  1  0.72669000  0.75303250  0.36333150  1
  H  153  1  0.63723050  0.60397250  0.36382500  1
  H  154  1  0.60743350  0.63375950  0.36382100  1
  H  163  1  0.39308350  0.27444050  0.67071900  1
  H  171  1  0.27787150  0.38960100  0.67069250  1
  H  173  1  0.36882200  0.39516450  0.64758950  1
  H  174  1  0.39862100  0.36537600  0.64759400  1
  H  175  1  0.24907850  0.27540450  0.64710900  1
  H  176  1  0.27887750  0.24561900  0.64711450  1
  H  185  1  0.27755200  0.88404100  0.61505800  1
  H  193  1  0.39273950  0.11441250  0.73023900  1
  H  195  1  0.27867850  0.02901950  0.63930300  1
  H  196  1  0.24888500  0.96943350  0.60951050  1
  H  197  1  0.39795400  0.02902100  0.75905000  1
  H  198  1  0.36816400  0.96943700  0.72925900  1
  H  207  1  0.72750850  0.11440700  0.39547950  1
  H  215  1  0.61231300  0.88403300  0.28029800  1
  H  217  1  0.60675250  0.96942500  0.25164050  1
  H  218  1  0.63654800  0.02901300  0.28143600  1
  H  219  1  0.72650400  0.96942500  0.37091700  1
  H  220  1  0.75629500  0.02900850  0.40070950  1
  H  229  1  0.27786700  0.66445450  0.39582150  1
  H  237  1  0.39305050  0.66442350  0.28063200  1
  H  239  1  0.39860450  0.64133600  0.37158850  1
  H  240  1  0.36880950  0.64133950  0.40138100  1
  H  241  1  0.27885850  0.64084850  0.25183000  1
  H  242  1  0.24906450  0.64085150  0.28161900  1
  H  251  1  0.72781300  0.33395200  0.61539500  1
  H  259  1  0.61262050  0.33397100  0.73057450  1
  H  261  1  0.72667650  0.35707600  0.75924450  1
  H  262  1  0.75647450  0.35707600  0.72945450  1
  H  263  1  0.60741650  0.35756050  0.63996700  1
  H  264  1  0.63721150  0.35755600  0.61017650  1
  H  535  1  0.62902050  0.45767100  0.28992950  1
  H  536  1  0.62348100  0.40383850  0.27806250  1
  H  543  1  0.71868750  0.54124200  0.37932050  1
  H  544  1  0.73059150  0.59504450  0.38475200  1
  H  545  1  0.62710200  0.55540900  0.31685900  1
  H  546  1  0.69172750  0.44359700  0.38147950  1
  H  548  1  0.70483550  0.49715850  0.42226500  1
  H  549  1  0.69206950  0.52200750  0.41172400  1
  H  551  1  0.59687800  0.47714500  0.31678700  1
  H  552  1  0.58632650  0.50197500  0.30399750  1
  H  559  1  0.37639000  0.65739500  0.83759100  1
  H  560  1  0.38193850  0.65107850  0.78930500  1
  H  567  1  0.28670400  0.65708500  0.83147900  1
  H  568  1  0.27479850  0.65058900  0.87337150  1
  H  569  1  0.37829600  0.68621300  0.93723300  1
  H  570  1  0.31366200  0.68621150  0.76079550  1
  H  572  1  0.30053350  0.71387000  0.80123750  1
  H  573  1  0.31329850  0.71609850  0.83885300  1
  H  575  1  0.40851350  0.71640300  0.88920850  1
  H  576  1  0.41906850  0.71416050  0.92458700  1
  H  583  1  0.82871300  0.54077800  0.17332000  1
  H  584  1  0.87067350  0.59461000  0.22161450  1
  H  591  1  0.83453750  0.45720850  0.17942300  1
  H  592  1  0.78616100  0.40340450  0.13752850  1
  H  593  1  0.75789700  0.44303950  0.07367250  1
  H  594  1  0.93433350  0.55485500  0.25011050  1
  H  596  1  0.92156250  0.50129500  0.20965650  1
  H  597  1  0.88617600  0.47644750  0.17204150  1
  H  599  1  0.83609750  0.52129750  0.12170400  1
  H  600  1  0.79847600  0.49646850  0.08632550  1
  H  607  1  0.17664150  0.34106450  0.72096900  1
  H  608  1  0.13467550  0.34739550  0.73283100  1
  H  615  1  0.17083950  0.34135150  0.63158800  1
  H  616  1  0.21922000  0.34783300  0.62617000  1
  H  617  1  0.24746350  0.31223100  0.69406150  1
  H  618  1  0.07102850  0.31223100  0.62941250  1
  H  620  1  0.08381050  0.28455450  0.58863100  1
  H  621  1  0.11919700  0.28232800  0.59917500  1
  H  623  1  0.16925800  0.28206350  0.69410750  1
  H  624  1  0.20688100  0.28430700  0.70690700  1
  H  631  1  0.34454000  0.71474200  0.17942100  1
  H  632  1  0.35086150  0.72660800  0.13745150  1
  H  639  1  0.34482100  0.62535700  0.17360500  1
  H  640  1  0.35129350  0.61992300  0.22197650  1
  H  641  1  0.31569450  0.68781450  0.25023300  1
  H  642  1  0.31569500  0.62319100  0.07379700  1
  H  644  1  0.28802500  0.58240750  0.08657850  1
  H  645  1  0.28580150  0.59294750  0.12196700  1
  H  647  1  0.28553950  0.68788250  0.17203900  1
  H  648  1  0.28777750  0.70067250  0.20965900  1
  H  655  1  0.54425150  0.16708450  0.83147700  1
  H  656  1  0.59808650  0.21536850  0.87344700  1
  H  663  1  0.46067700  0.17319500  0.83727800  1
  H  664  1  0.40687850  0.13130350  0.78889200  1
  H  665  1  0.44651600  0.06744200  0.76065500  1
  H  666  1  0.55832000  0.24387900  0.93708900  1
  H  668  1  0.50475000  0.20343900  0.92430600  1
  H  669  1  0.47989950  0.16582450  0.88891700  1
  H  671  1  0.52475700  0.11546750  0.83886850  1
  H  672  1  0.49993550  0.08008950  0.80124800  1
  H  679  1  0.66084200  0.83134900  0.37913700  1
  H  680  1  0.65450850  0.78305350  0.38467400  1
  H  687  1  0.66056400  0.82524800  0.28946500  1
  H  688  1  0.65408050  0.86714150  0.27755600  1
  H  689  1  0.68967300  0.93099550  0.38104550  1
  H  690  1  0.68967250  0.75455800  0.31642250  1
  H  692  1  0.71735450  0.79501300  0.30331750  1
  H  693  1  0.71958300  0.83262800  0.31608400  1
  H  695  1  0.71984300  0.88296550  0.41127050  1
  H  696  1  0.71760000  0.91834500  0.42182300  1
  H  703  1  0.46111850  0.28370050  0.63176600  1
  H  704  1  0.40729050  0.27183950  0.62623600  1
  H  711  1  0.54469800  0.37308050  0.72143350  1
  H  712  1  0.59849500  0.37849550  0.73333250  1
  H  713  1  0.55884800  0.31060750  0.62983950  1
  H  714  1  0.44706400  0.37525750  0.69449050  1
  H  716  1  0.50062650  0.41603850  0.70759500  1
  H  717  1  0.52547050  0.40549350  0.69482300  1
  H  719  1  0.48059750  0.31056250  0.59962600  1
  H  720  1  0.50542000  0.29776300  0.58907000  1
  H  727  1  0.17057050  0.82525150  0.54699900  1
  H  728  1  0.21886100  0.86722100  0.60083200  1
  H  735  1  0.17666550  0.83106750  0.46342800  1
  H  736  1  0.13476650  0.78269500  0.40962450  1
  H  737  1  0.07091200  0.75444050  0.44926050  1
  H  738  1  0.24734800  0.93087500  0.56107000  1
  H  740  1  0.20689800  0.91809550  0.50750650  1
  H  741  1  0.16928400  0.88270550  0.48265750  1
  H  743  1  0.11895100  0.83263450  0.52752150  1
  H  744  1  0.08357000  0.79501500  0.50269200  1
  H  751  1  0.71822050  0.17319100  0.34728350  1
  H  752  1  0.73008550  0.13122150  0.35359800  1
  H  759  1  0.62884550  0.16739150  0.34759300  1
  H  760  1  0.62343350  0.21577750  0.35408700  1
  H  761  1  0.69130550  0.24401200  0.31845950  1
  H  762  1  0.62667900  0.06758050  0.31846950  1
  H  764  1  0.58588950  0.08036250  0.29081100  1
  H  765  1  0.59642600  0.11574950  0.28858250  1
  H  767  1  0.69133250  0.16579700  0.28827250  1
  H  768  1  0.70413050  0.20341850  0.29051400  1
  H  775  1  0.28715600  0.62553300  0.46389300  1
  H  776  1  0.27528400  0.61999700  0.41006000  1
  H  783  1  0.37655150  0.71520600  0.54746350  1
  H  784  1  0.38197750  0.72711600  0.60126650  1
  H  785  1  0.31407850  0.62362600  0.56163050  1
  H  786  1  0.37869950  0.68824750  0.44981600  1
  H  788  1  0.41948800  0.70135150  0.50337450  1
  H  789  1  0.40895000  0.68858400  0.52822400  1
  H  791  1  0.31402150  0.59339850  0.48337400  1
  H  792  1  0.30122800  0.58284850  0.50820350  1
  H  799  1  0.83480100  0.37290500  0.66360800  1
  H  800  1  0.78650250  0.37843450  0.65727700  1
  H  807  1  0.82871250  0.28323700  0.66332050  1
  H  808  1  0.87061050  0.27133750  0.65683900  1
  H  809  1  0.93445700  0.37483300  0.69244200  1
  H  810  1  0.75802100  0.31018000  0.69244000  1
  H  812  1  0.79848050  0.29707650  0.72011700  1
  H  813  1  0.83609500  0.30984650  0.72234350  1
  H  815  1  0.88642000  0.40504500  0.72261000  1
  H  816  1  0.92179800  0.41560150  0.72036750  1
  H  1111  1  0.37655600  0.54124500  0.72144300  1
  H  1112  1  0.38197950  0.59504600  0.73334750  1
  H  1119  1  0.28716050  0.45766900  0.63177050  1
  H  1120  1  0.27529350  0.40383800  0.62623750  1
  H  1121  1  0.37870700  0.44359900  0.69449200  1
  H  1122  1  0.31407800  0.55540250  0.62985650  1
  H  1124  1  0.30122900  0.50197400  0.58908200  1
  H  1125  1  0.31402550  0.47714850  0.59963500  1
  H  1127  1  0.40895500  0.52200400  0.69482500  1
  H  1128  1  0.41949550  0.49715850  0.70759600  1
  H  1135  1  0.62884600  0.34136050  0.17362150  1
  H  1136  1  0.62342800  0.34784700  0.22200300  1
  H  1143  1  0.71822300  0.34105850  0.17942550  1
  H  1144  1  0.73008900  0.34737600  0.13745600  1
  H  1145  1  0.62667750  0.31223250  0.07380900  1
  H  1146  1  0.69130600  0.31222850  0.25024250  1
  H  1148  1  0.70414100  0.28429150  0.20965550  1
  H  1149  1  0.69134550  0.28205150  0.17203400  1
  H  1151  1  0.59642750  0.28234650  0.12197900  1
  H  1152  1  0.58589050  0.28457250  0.08659100  1
  H  1159  1  0.17665000  0.45720600  0.83727400  1
  H  1160  1  0.13475700  0.40341050  0.78888450  1
  H  1167  1  0.17055800  0.54078750  0.83148150  1
  H  1168  1  0.21885650  0.59461600  0.87345050  1
  H  1169  1  0.24733750  0.55483800  0.93708950  1
  H  1170  1  0.07090450  0.44305900  0.76065450  1
  H  1172  1  0.08355950  0.49648100  0.80124850  1
  H  1173  1  0.11893750  0.52130050  0.83886900  1
  H  1175  1  0.16926750  0.47642750  0.88891400  1
  H  1176  1  0.20688200  0.50127100  0.92430200  1
  H  1183  1  0.82870250  0.65708450  0.28946400  1
  H  1184  1  0.87059650  0.65060400  0.27755550  1
  H  1191  1  0.83482650  0.65739800  0.37915050  1
  H  1192  1  0.78654300  0.65108100  0.38470500  1
  H  1193  1  0.75802400  0.68621300  0.31643200  1
  H  1194  1  0.93446850  0.68623050  0.38105000  1
  H  1196  1  0.92181950  0.71416400  0.42182550  1
  H  1197  1  0.88643900  0.71640400  0.41127500  1
  H  1199  1  0.83607550  0.71610200  0.31605950  1
  H  1200  1  0.79846000  0.71387250  0.30329750  1
  H  1207  1  0.66056100  0.28322500  0.83147600  1
  H  1208  1  0.65409150  0.27132350  0.87337700  1
  H  1215  1  0.66083100  0.37289050  0.83756450  1
  H  1216  1  0.65449500  0.37842500  0.78926800  1
  H  1217  1  0.68966050  0.31017300  0.76077550  1
  H  1218  1  0.68967450  0.37481300  0.93721950  1
  H  1220  1  0.71758950  0.41558700  0.92455950  1
  H  1221  1  0.71983000  0.40503350  0.88917850  1
  H  1223  1  0.71957950  0.30984500  0.83885050  1
  H  1224  1  0.71734850  0.29707500  0.80123450  1
  H  1231  1  0.46067100  0.83104600  0.17941900  1
  H  1232  1  0.40687150  0.78266500  0.13752350  1
  H  1239  1  0.54424500  0.82524300  0.17331400  1
  H  1240  1  0.59808050  0.86721250  0.22159900  1
  H  1241  1  0.55831650  0.93085850  0.25010200  1
  H  1242  1  0.44650850  0.75442400  0.07366550  1
  H  1244  1  0.49993350  0.79501250  0.08631800  1
  H  1245  1  0.52475750  0.83263200  0.12169750  1
  H  1247  1  0.47989650  0.88268800  0.17204750  1
  H  1248  1  0.50474550  0.91807600  0.20966050  1
  H  1255  1  0.34482250  0.16739700  0.63160350  1
  H  1256  1  0.35132050  0.21578650  0.62619900  1
  H  1263  1  0.34452650  0.17319150  0.72098100  1
  H  1264  1  0.35085600  0.13122250  0.73284050  1
  H  1265  1  0.31569650  0.06758250  0.62942200  1
  H  1266  1  0.31569800  0.24401800  0.69407800  1
  H  1268  1  0.28776050  0.20342400  0.70690750  1
  H  1269  1  0.28551850  0.16580350  0.69410600  1
  H  1271  1  0.28580150  0.11575850  0.59918900  1
  H  1272  1  0.28802650  0.08036850  0.58864300  1
  H  1279  1  0.54468900  0.71520550  0.37930150  1
  H  1280  1  0.59849150  0.72711450  0.38473000  1
  H  1287  1  0.46112650  0.62552150  0.28992900  1
  H  1288  1  0.40728900  0.61996700  0.27805800  1
  H  1289  1  0.44704300  0.68824000  0.38146300  1
  H  1290  1  0.55886650  0.62361950  0.31685900  1
  H  1292  1  0.50544350  0.58284500  0.30401850  1
  H  1293  1  0.48061400  0.59339600  0.31680800  1
  H  1295  1  0.52546650  0.68861150  0.41172300  1
  H  1296  1  0.50061250  0.70137200  0.42225650  1
  H  1303  1  0.83453250  0.17319400  0.46342450  1
  H  1304  1  0.78616200  0.13129300  0.40962300  1
  H  1311  1  0.82871550  0.16710550  0.54700300  1
  H  1312  1  0.87067650  0.21540250  0.60083200  1
  H  1313  1  0.93433250  0.24389400  0.56107150  1
  H  1314  1  0.75790350  0.06745100  0.44927150  1
  H  1316  1  0.79847850  0.08011150  0.50270400  1
  H  1317  1  0.83610000  0.11549250  0.52753050  1
  H  1319  1  0.88617450  0.16581850  0.48266900  1
  H  1320  1  0.92156100  0.20343550  0.50751450  1
  H  1327  1  0.28670400  0.82525400  0.66330400  1
  H  1328  1  0.27480050  0.86714950  0.65681800  1
  H  1335  1  0.37638250  0.83135800  0.66360450  1
  H  1336  1  0.38193200  0.78307400  0.65729100  1
  H  1337  1  0.31366550  0.75457150  0.69243500  1
  H  1338  1  0.37829650  0.93100750  0.69243500  1
  H  1340  1  0.41906700  0.91835500  0.72036900  1
  H  1341  1  0.40851200  0.88297400  0.72261000  1
  H  1343  1  0.31330200  0.83262850  0.72231950  1
  H  1344  1  0.30053800  0.79501450  0.72009350  1
  H  1351  1  0.71866700  0.37306600  0.54746500  1
  H  1352  1  0.73056800  0.37847100  0.60126000  1
  H  1359  1  0.62899100  0.28368900  0.46388400  1
  H  1360  1  0.62346150  0.27182950  0.41005500  1
  H  1361  1  0.69172200  0.37524600  0.44983200  1
  H  1362  1  0.62706850  0.31059300  0.56161350  1
  H  1364  1  0.58630050  0.29776400  0.50819150  1
  H  1365  1  0.59686050  0.31056650  0.48337200  1
  H  1367  1  0.69206050  0.40548150  0.52824100  1
  H  1368  1  0.70483200  0.41602600  0.50339800  1
  H  1375  1  0.17083750  0.62537000  0.34758350  1
  H  1376  1  0.21921350  0.61994250  0.35406600  1
  H  1383  1  0.17664950  0.71474350  0.34727200  1
  H  1384  1  0.13468200  0.72661500  0.35358800  1
  H  1385  1  0.07103100  0.62320800  0.31845600  1
  H  1386  1  0.24745850  0.68781200  0.31844050  1
  H  1388  1  0.20687750  0.70065400  0.29050650  1
  H  1389  1  0.16925700  0.68786300  0.28826800  1
  H  1391  1  0.11919500  0.59294900  0.28856700  1
  H  1392  1  0.08380900  0.58241600  0.29079600  1
  N  547  1  0.69402200  0.50161400  0.40438400  1
  N  550  1  0.60420450  0.49749400  0.31476050  1
  N  571  1  0.31135200  0.70680900  0.81651000  1
  N  574  1  0.40119050  0.70704150  0.90222600  1
  N  595  1  0.89922600  0.49683750  0.19438550  1
  N  598  1  0.81372050  0.50095150  0.10868500  1
  N  619  1  0.10614550  0.29162050  0.60651400  1
  N  622  1  0.19163750  0.29142150  0.69614300  1
  N  643  1  0.29509200  0.60028850  0.10891350  1
  N  646  1  0.29489300  0.68991100  0.19441400  1
  N  667  1  0.50029500  0.18816650  0.90197150  1
  N  670  1  0.50441650  0.10244900  0.81648850  1
  N  691  1  0.71029000  0.81028350  0.31413050  1
  N  694  1  0.71048500  0.89598450  0.40394550  1
  N  715  1  0.50507900  0.39815750  0.69677850  1
  N  718  1  0.50094100  0.30852750  0.60694850  1
  N  739  1  0.19162850  0.89576050  0.50305100  1
  N  742  1  0.10593100  0.81025850  0.50717550  1
  N  763  1  0.60376750  0.10269550  0.29787000  1
  N  766  1  0.69337250  0.18817700  0.29763450  1
  N  787  1  0.40160950  0.69053850  0.50783200  1
  N  790  1  0.31198950  0.60072500  0.50371850  1
  N  811  1  0.81374950  0.30789350  0.71305300  1
  N  814  1  0.89943950  0.39772250  0.71325300  1
  N  1123  1  0.31199200  0.49749250  0.60695950  1
  N  1126  1  0.40161450  0.50161300  0.69677950  1
  N  1147  1  0.69338150  0.29141050  0.19441300  1
  N  1150  1  0.60377100  0.29163600  0.10892600  1
  N  1171  1  0.10591800  0.50096100  0.81649000  1
  N  1174  1  0.19161250  0.49682050  0.90196900  1
  N  1195  1  0.89945850  0.70704400  0.40394950  1
  N  1198  1  0.81373600  0.70681300  0.31411600  1
  N  1219  1  0.71047400  0.39770800  0.90220000  1
  N  1222  1  0.71028250  0.30788900  0.81650450  1
  N  1243  1  0.50441500  0.81025350  0.10867750  1
  N  1246  1  0.50029100  0.89574100  0.19438900  1
  N  1267  1  0.29487850  0.18818250  0.69614500  1
  N  1270  1  0.29509100  0.10270200  0.60652500  1
  N  1291  1  0.50095900  0.60072150  0.31477550  1
  N  1294  1  0.50507100  0.69055500  0.40437800  1
  N  1315  1  0.81372400  0.10247150  0.50718650  1
  N  1318  1  0.89922500  0.18816500  0.50305800  1
  N  1339  1  0.40118950  0.89599500  0.71325150  1
  N  1342  1  0.31135550  0.81028700  0.71303150  1
  N  1363  1  0.60418000  0.30852600  0.50371100  1
  N  1366  1  0.69401500  0.39814450  0.50785050  1
  N  1387  1  0.19163450  0.68989650  0.29762500  1
  N  1390  1  0.10614200  0.60029400  0.29785600  1
