# generated using pymatgen
data_H15C24N7
_symmetry_space_group_name_H-M   'P 1'
_cell_length_a   51.14150000
_cell_length_b   51.14130000
_cell_length_c   51.14170000
_cell_angle_alpha   89.99990000
_cell_angle_beta   89.99980000
_cell_angle_gamma   89.99970000
_symmetry_Int_Tables_number   1
_chemical_formula_structural   H15C24N7
_chemical_formula_sum   'H360 C576 N168'
_cell_volume   133758.19073250
_cell_formula_units_Z   24
loop_
 _symmetry_equiv_pos_site_id
 _symmetry_equiv_pos_as_xyz
  1  'x, y, z'
loop_
 _atom_site_type_symbol
 _atom_site_label
 _atom_site_symmetry_multiplicity
 _atom_site_fract_x
 _atom_site_fract_y
 _atom_site_fract_z
 _atom_site_occupancy
  H  20  1  0.59057700  0.94307500  0.57397000  1
  H  21  1  0.61616400  0.98987800  0.65251100  1
  H  22  1  0.61850700  0.94295500  0.65143900  1
  H  23  1  0.58844700  0.99006200  0.57466200  1
  H  24  1  0.61595100  0.88101600  0.65387300  1
  H  25  1  0.55394900  0.90738100  0.60661100  1
  H  26  1  0.52374000  0.88234500  0.63190700  1
  H  27  1  0.58594400  0.85575900  0.67957100  1
  H  28  1  0.59231300  0.88483900  0.56951800  1
  H  29  1  0.68540200  0.88027100  0.58767700  1
  H  30  1  0.65717200  0.90481300  0.61614700  1
  H  31  1  0.62013600  0.86018400  0.54101400  1
  H  35  1  0.68746500  0.84451900  0.55212100  1
  H  36  1  0.54125200  0.83929800  0.68715000  1
  H  37  1  0.58788600  0.02885100  0.62793200  1
  H  57  1  0.35152100  0.11638000  0.57396400  1
  H  58  1  0.32593800  0.06956500  0.65249900  1
  H  59  1  0.32359600  0.11648800  0.65143500  1
  H  60  1  0.35364800  0.06939300  0.57464800  1
  H  61  1  0.32614800  0.17843400  0.65387300  1
  H  62  1  0.38815400  0.15205000  0.60662400  1
  H  63  1  0.41836200  0.17707600  0.63192900  1
  H  64  1  0.35615600  0.20368100  0.67957700  1
  H  65  1  0.34980000  0.17463300  0.56953500  1
  H  66  1  0.25670300  0.17917900  0.58766100  1
  H  67  1  0.28492500  0.15462600  0.61612900  1
  H  68  1  0.32198500  0.19930200  0.54103800  1
  H  72  1  0.25461100  0.21489600  0.55212100  1
  H  73  1  0.40085000  0.22013600  0.68715900  1
  H  74  1  0.35421700  0.03060200  0.62792200  1
  H  94  1  0.59060300  0.11637200  0.36812000  1
  H  95  1  0.61617900  0.06959200  0.28956200  1
  H  96  1  0.61850400  0.11651400  0.29063900  1
  H  97  1  0.58849300  0.06938200  0.36742000  1
  H  98  1  0.61595200  0.17844900  0.28822500  1
  H  99  1  0.55395400  0.15206900  0.33548400  1
  H  100  1  0.52374200  0.17710200  0.31019100  1
  H  101  1  0.58594000  0.20370200  0.26252900  1
  H  102  1  0.59232600  0.17460300  0.37258800  1
  H  103  1  0.68540900  0.17918900  0.35440200  1
  H  104  1  0.65717300  0.15465800  0.32592800  1
  H  105  1  0.62015600  0.19924400  0.40109500  1
  H  109  1  0.68745600  0.21495500  0.38996700  1
  H  110  1  0.54124600  0.22016700  0.25496000  1
  H  111  1  0.58793400  0.03060000  0.31413500  1
  H  131  1  0.35151000  0.94306100  0.36813000  1
  H  132  1  0.32592600  0.98987700  0.28959700  1
  H  133  1  0.32359300  0.94295300  0.29065500  1
  H  134  1  0.35362700  0.99004900  0.36745000  1
  H  135  1  0.32614500  0.88100900  0.28822100  1
  H  136  1  0.38814300  0.90738000  0.33548400  1
  H  137  1  0.41835600  0.88234900  0.31018700  1
  H  138  1  0.35615600  0.85575700  0.26252200  1
  H  139  1  0.34977900  0.88482700  0.37257500  1
  H  140  1  0.25669000  0.88026300  0.35441700  1
  H  141  1  0.28492000  0.90480500  0.32594500  1
  H  142  1  0.32195600  0.86017300  0.40107800  1
  H  146  1  0.25462900  0.84451000  0.38997300  1
  H  147  1  0.40084900  0.83928600  0.25495800  1
  H  148  1  0.35418900  0.02884300  0.31417400  1
  H  168  1  0.88438900  0.63265300  0.59058300  1
  H  169  1  0.93120200  0.71119000  0.61616600  1
  H  170  1  0.88427900  0.71012600  0.61850700  1
  H  171  1  0.93137700  0.63333900  0.58845700  1
  H  172  1  0.82233300  0.71255900  0.61595500  1
  H  173  1  0.84871000  0.66529600  0.55395700  1
  H  174  1  0.82367700  0.69059100  0.52374700  1
  H  175  1  0.79707800  0.73825500  0.58594500  1
  H  176  1  0.82616800  0.62820100  0.59231500  1
  H  177  1  0.82158100  0.64635600  0.68540300  1
  H  178  1  0.84612100  0.67483200  0.65718000  1
  H  179  1  0.80151500  0.59969200  0.62013200  1
  H  183  1  0.78581100  0.61080200  0.68743900  1
  H  184  1  0.78061600  0.74582400  0.54125100  1
  H  185  1  0.97016900  0.68662000  0.58789400  1
  H  205  1  0.05769400  0.63265700  0.35151300  1
  H  206  1  0.01090200  0.71119700  0.32589800  1
  H  207  1  0.05782500  0.71012500  0.32357300  1
  H  208  1  0.01070600  0.63335200  0.35362300  1
  H  209  1  0.11977000  0.71255100  0.32615100  1
  H  210  1  0.09337100  0.66530400  0.38815100  1
  H  211  1  0.11839700  0.69060200  0.41836300  1
  H  212  1  0.14502000  0.73824900  0.35616100  1
  H  213  1  0.11592800  0.62820100  0.34979500  1
  H  214  1  0.12052500  0.64635300  0.25670600  1
  H  215  1  0.09597600  0.67482700  0.28492600  1
  H  216  1  0.14059100  0.59969500  0.32198200  1
  H  220  1  0.15627700  0.61079800  0.25465900  1
  H  221  1  0.16147200  0.74582600  0.40085900  1
  H  222  1  0.97191700  0.68661900  0.35417500  1
  H  242  1  0.05771000  0.42680800  0.59058500  1
  H  243  1  0.01089100  0.34827700  0.61617200  1
  H  244  1  0.05781400  0.34933400  0.61850500  1
  H  245  1  0.01072100  0.42612800  0.58846900  1
  H  246  1  0.11976200  0.34689600  0.61595100  1
  H  247  1  0.09337400  0.39414700  0.55394900  1
  H  248  1  0.11840300  0.36884700  0.52373900  1
  H  249  1  0.14501100  0.32119600  0.58594300  1
  H  250  1  0.11595800  0.43123500  0.59230300  1
  H  251  1  0.12050800  0.41311000  0.68540000  1
  H  252  1  0.09595300  0.38464200  0.65718000  1
  H  253  1  0.14062900  0.45973200  0.62011400  1
  H  257  1  0.15622900  0.44865100  0.68748600  1
  H  258  1  0.16146200  0.31361100  0.54124700  1
  H  259  1  0.97192300  0.37285700  0.58790400  1
  H  279  1  0.88440100  0.42680000  0.35149800  1
  H  280  1  0.93119500  0.34824300  0.32593600  1
  H  281  1  0.88427300  0.34931700  0.32359900  1
  H  282  1  0.93138900  0.42610400  0.35361900  1
  H  283  1  0.82233500  0.34689400  0.32614300  1
  H  284  1  0.84870400  0.39416100  0.38814100  1
  H  285  1  0.82366700  0.36886900  0.41835100  1
  H  286  1  0.79707700  0.32120100  0.35615400  1
  H  287  1  0.82617100  0.43125700  0.34977100  1
  H  288  1  0.82159900  0.41308600  0.25668700  1
  H  289  1  0.84613000  0.38461000  0.28492000  1
  H  290  1  0.80153000  0.45976600  0.32194500  1
  H  294  1  0.78583600  0.44864600  0.25463600  1
  H  295  1  0.78060500  0.31363800  0.40084500  1
  H  296  1  0.97017700  0.37282000  0.35419000  1
  H  316  1  0.57396500  0.64925100  0.88438500  1
  H  317  1  0.65249000  0.67482500  0.93122300  1
  H  318  1  0.65143600  0.67717900  0.88430000  1
  H  319  1  0.57463900  0.64711200  0.93137100  1
  H  320  1  0.65388700  0.67462300  0.82235000  1
  H  321  1  0.60661400  0.61262700  0.84870900  1
  H  322  1  0.63190800  0.58241600  0.82367600  1
  H  323  1  0.67958200  0.64461200  0.79709500  1
  H  324  1  0.56953000  0.65098700  0.82616000  1
  H  325  1  0.58768200  0.74407800  0.82159600  1
  H  326  1  0.61615200  0.71585100  0.84614100  1
  H  327  1  0.54102900  0.67880900  0.80150200  1
  H  331  1  0.55213000  0.74613800  0.78584000  1
  H  332  1  0.68715700  0.59992100  0.78063500  1
  H  333  1  0.62790500  0.64654600  0.97018000  1
  H  353  1  0.57396200  0.41019500  0.05770800  1
  H  354  1  0.65249900  0.38460900  0.01089500  1
  H  355  1  0.65143300  0.38226600  0.05781800  1
  H  356  1  0.57465000  0.41232500  0.01072100  1
  H  357  1  0.65386700  0.38481800  0.11976500  1
  H  358  1  0.60662400  0.44682700  0.09337800  1
  H  359  1  0.63192600  0.47703300  0.11840800  1
  H  360  1  0.67957100  0.41482500  0.14501700  1
  H  361  1  0.56953300  0.40847500  0.11595800  1
  H  362  1  0.58765500  0.31537800  0.12050800  1
  H  363  1  0.61612300  0.34359700  0.09595500  1
  H  364  1  0.54103300  0.38066300  0.14062900  1
  H  368  1  0.55211200  0.31328700  0.15622300  1
  H  369  1  0.68714900  0.45952100  0.16147500  1
  H  370  1  0.62792700  0.41288400  0.97193000  1
  H  390  1  0.36811700  0.64927700  0.05768500  1
  H  391  1  0.28955300  0.67486500  0.01092100  1
  H  392  1  0.29064000  0.67718400  0.05784300  1
  H  393  1  0.36741000  0.64717100  0.01069600  1
  H  394  1  0.28823100  0.67462900  0.11977500  1
  H  395  1  0.33547900  0.61262400  0.09338400  1
  H  396  1  0.31018400  0.58241500  0.11842000  1
  H  397  1  0.26253600  0.64462200  0.14503200  1
  H  398  1  0.37258500  0.65099200  0.11593100  1
  H  399  1  0.35441200  0.74407900  0.12051400  1
  H  400  1  0.32594000  0.71584800  0.09597600  1
  H  401  1  0.40109000  0.67881600  0.14058200  1
  H  405  1  0.38997400  0.74614200  0.15625800  1
  H  406  1  0.25496100  0.59992600  0.16149000  1
  H  407  1  0.31413100  0.64661200  0.97192400  1
  H  427  1  0.36812800  0.41018500  0.88438400  1
  H  428  1  0.28960500  0.38461500  0.93122300  1
  H  429  1  0.29065300  0.38227100  0.88430100  1
  H  430  1  0.36745700  0.41231500  0.93137100  1
  H  431  1  0.28820500  0.38481900  0.82235200  1
  H  432  1  0.33548200  0.44681300  0.84871000  1
  H  433  1  0.31018500  0.47702600  0.82367800  1
  H  434  1  0.26251000  0.41483000  0.79709900  1
  H  435  1  0.37256300  0.40844900  0.82615900  1
  H  436  1  0.35440800  0.31536000  0.82160100  1
  H  437  1  0.32593800  0.34359000  0.84614300  1
  H  438  1  0.40106500  0.38062600  0.80150400  1
  H  442  1  0.38996400  0.31329700  0.78584800  1
  H  443  1  0.25494300  0.45952400  0.78062900  1
  H  444  1  0.31418400  0.41287800  0.97017900  1
  H  464  1  0.88439000  0.64926000  0.36812200  1
  H  465  1  0.93120100  0.67484200  0.28958400  1
  H  466  1  0.88427800  0.67718300  0.29064900  1
  H  467  1  0.93137800  0.64713400  0.36743600  1
  H  468  1  0.82233500  0.67463100  0.28821500  1
  H  469  1  0.84870900  0.61263000  0.33547800  1
  H  470  1  0.82367700  0.58242000  0.31018100  1
  H  471  1  0.79708300  0.64462100  0.26251800  1
  H  472  1  0.82616600  0.65098900  0.37257500  1
  H  473  1  0.82158100  0.74407800  0.35442100  1
  H  474  1  0.84612200  0.71585400  0.32594300  1
  H  475  1  0.80151200  0.67880800  0.40108400  1
  H  479  1  0.78581000  0.74611600  0.38997300  1
  H  480  1  0.78061100  0.59992700  0.25495400  1
  H  481  1  0.97017000  0.64657100  0.31415600  1
  H  501  1  0.05769500  0.41018200  0.36811100  1
  H  502  1  0.01090600  0.38456700  0.28957000  1
  H  503  1  0.05782900  0.38224200  0.29064300  1
  H  504  1  0.01070600  0.41229200  0.36741400  1
  H  505  1  0.11977400  0.38481900  0.28822100  1
  H  506  1  0.09337500  0.44681700  0.33546800  1
  H  507  1  0.11840600  0.47703000  0.31017300  1
  H  508  1  0.14502600  0.41482900  0.26252500  1
  H  509  1  0.11593000  0.40846100  0.37257100  1
  H  510  1  0.12052300  0.31537200  0.35441900  1
  H  511  1  0.09597800  0.34359400  0.32594300  1
  H  512  1  0.14058900  0.38064800  0.40107800  1
  H  516  1  0.15627300  0.31332200  0.38997500  1
  H  517  1  0.16148000  0.45952700  0.25495000  1
  H  518  1  0.97191900  0.41284400  0.31415300  1
  H  538  1  0.05770800  0.64925400  0.57396800  1
  H  539  1  0.01089100  0.67485000  0.65249700  1
  H  540  1  0.05781400  0.67717900  0.65144100  1
  H  541  1  0.01072100  0.64714100  0.57464800  1
  H  542  1  0.11976100  0.67462100  0.65387700  1
  H  543  1  0.09337000  0.61261600  0.60663400  1
  H  544  1  0.11839700  0.58240600  0.63193600  1
  H  545  1  0.14500900  0.64461200  0.67958000  1
  H  546  1  0.11595900  0.65096700  0.56954300  1
  H  547  1  0.12051200  0.74406400  0.58766100  1
  H  548  1  0.09595500  0.71584800  0.61613100  1
  H  549  1  0.14063100  0.67877600  0.54104400  1
  H  553  1  0.15623100  0.74615000  0.55212100  1
  H  554  1  0.16145500  0.59991600  0.68716900  1
  H  555  1  0.97192300  0.64657600  0.62791800  1
  H  575  1  0.88439100  0.41018100  0.57397000  1
  H  576  1  0.93120100  0.38462200  0.65251600  1
  H  577  1  0.88427800  0.38227800  0.65144900  1
  H  578  1  0.93137900  0.41231000  0.57465600  1
  H  579  1  0.82233700  0.38482000  0.65388100  1
  H  580  1  0.84869900  0.44681900  0.60661100  1
  H  581  1  0.82366200  0.47702700  0.63190300  1
  H  582  1  0.79707800  0.41482900  0.67957500  1
  H  583  1  0.82616700  0.40845300  0.56951800  1
  H  584  1  0.82159700  0.31536400  0.58768300  1
  H  585  1  0.84612900  0.34359700  0.61615900  1
  H  586  1  0.80152300  0.38062800  0.54100900  1
  H  590  1  0.78583300  0.31331500  0.55212500  1
  H  591  1  0.78061400  0.45952300  0.68714600  1
  H  592  1  0.97017000  0.41288300  0.62794200  1
  H  612  1  0.57397300  0.94307600  0.35151500  1
  H  613  1  0.65251600  0.98987600  0.32592400  1
  H  614  1  0.65144400  0.94295200  0.32358500  1
  H  615  1  0.57466700  0.99006400  0.35363900  1
  H  616  1  0.65387300  0.88101100  0.32614500  1
  H  617  1  0.60661500  0.90738700  0.38814700  1
  H  618  1  0.63191200  0.88235400  0.41835500  1
  H  619  1  0.67957000  0.85575600  0.35615400  1
  H  620  1  0.56952000  0.88483900  0.34978300  1
  H  621  1  0.58768000  0.88026700  0.25669500  1
  H  622  1  0.61615000  0.90481000  0.28492200  1
  H  623  1  0.54101700  0.86018300  0.32196200  1
  H  627  1  0.55212400  0.84451700  0.25463400  1
  H  628  1  0.68714100  0.83929000  0.40084700  1
  H  629  1  0.62793100  0.02885100  0.35420400  1
  H  649  1  0.57397000  0.11637900  0.59058500  1
  H  650  1  0.65251100  0.06958300  0.61618200  1
  H  651  1  0.65144100  0.11650600  0.61851300  1
  H  652  1  0.57466200  0.06939200  0.58847100  1
  H  653  1  0.65387000  0.17844800  0.61595300  1
  H  654  1  0.60662600  0.15205700  0.55394700  1
  H  655  1  0.63192900  0.17708500  0.52373700  1
  H  656  1  0.67957100  0.20369800  0.58594500  1
  H  657  1  0.56953300  0.17463700  0.59230100  1
  H  658  1  0.58766100  0.17918700  0.68539800  1
  H  659  1  0.61613100  0.15463600  0.65717600  1
  H  660  1  0.54103400  0.19930400  0.62011600  1
  H  664  1  0.55211600  0.21490000  0.68749000  1
  H  665  1  0.68714600  0.22016000  0.54125100  1
  H  666  1  0.62793800  0.03060500  0.58791700  1
  H  686  1  0.36812600  0.11637900  0.35150600  1
  H  687  1  0.28958000  0.06957000  0.32594900  1
  H  688  1  0.29064500  0.11649300  0.32360700  1
  H  689  1  0.36744000  0.06939100  0.35363300  1
  H  690  1  0.28821500  0.17843500  0.32615100  1
  H  691  1  0.33548100  0.15206400  0.38814700  1
  H  692  1  0.31018500  0.17709500  0.41835900  1
  H  693  1  0.26251700  0.20368800  0.35616100  1
  H  694  1  0.37257700  0.17460600  0.34977900  1
  H  695  1  0.35440600  0.17918100  0.25669500  1
  H  696  1  0.32593200  0.15464800  0.28492600  1
  H  697  1  0.40108400  0.19925300  0.32195200  1
  H  701  1  0.38996400  0.21494500  0.25464500  1
  H  702  1  0.25494600  0.22014900  0.40085500  1
  H  703  1  0.31415600  0.03060100  0.35421000  1
  H  723  1  0.36813500  0.94305900  0.59058100  1
  H  724  1  0.28959800  0.98987300  0.61616400  1
  H  725  1  0.29066000  0.94295100  0.61850100  1
  H  726  1  0.36745100  0.99004700  0.58846100  1
  H  727  1  0.28822300  0.88100900  0.61594900  1
  H  728  1  0.33548700  0.90737700  0.55394900  1
  H  729  1  0.31018400  0.88234800  0.52373900  1
  H  730  1  0.26252200  0.85575900  0.58594100  1
  H  731  1  0.37257800  0.88482300  0.59231300  1
  H  732  1  0.35442200  0.88026200  0.68540300  1
  H  733  1  0.32595200  0.90480400  0.65717400  1
  H  734  1  0.40108100  0.86016800  0.62013600  1
  H  738  1  0.38997800  0.84450900  0.68746600  1
  H  739  1  0.25495700  0.83928600  0.54124900  1
  H  740  1  0.31416900  0.02884300  0.58790400  1
  H  760  1  0.59057900  0.63264100  0.05772200  1
  H  761  1  0.61615300  0.71116700  0.01088500  1
  H  762  1  0.61850100  0.71011500  0.05780800  1
  H  763  1  0.58844500  0.63331600  0.01073500  1
  H  764  1  0.61595300  0.71256100  0.11975500  1
  H  765  1  0.55395500  0.66529000  0.09339500  1
  H  766  1  0.52374400  0.69058700  0.11842600  1
  H  767  1  0.58594200  0.73826000  0.14500700  1
  H  768  1  0.59231300  0.62820100  0.11593900  1
  H  769  1  0.68540300  0.64635200  0.12051600  1
  H  770  1  0.65717800  0.67482600  0.09597400  1
  H  771  1  0.62013200  0.59969100  0.14059200  1
  H  775  1  0.68744100  0.61080100  0.15628900  1
  H  776  1  0.54125000  0.74582600  0.16147900  1
  H  777  1  0.58788900  0.68659600  0.97192700  1
  H  797  1  0.35151200  0.63266100  0.88441400  1
  H  798  1  0.32589400  0.71121400  0.93118100  1
  H  799  1  0.32357300  0.71012900  0.88425800  1
  H  800  1  0.35361700  0.63336900  0.93140200  1
  H  801  1  0.32615100  0.71254400  0.82232200  1
  H  802  1  0.38815300  0.66530000  0.84872300  1
  H  803  1  0.41836400  0.69059600  0.82369100  1
  H  804  1  0.35616000  0.73823900  0.79706800  1
  H  805  1  0.34979300  0.62819300  0.82617100  1
  H  806  1  0.25670400  0.64635300  0.82157700  1
  H  807  1  0.28492800  0.67482700  0.84612300  1
  H  808  1  0.32197600  0.59968800  0.80151200  1
  H  812  1  0.25465300  0.61079700  0.78582600  1
  H  813  1  0.40085500  0.74581000  0.78060800  1
  H  814  1  0.35417300  0.68663500  0.97017600  1
  H  834  1  0.59057400  0.42681200  0.88438900  1
  H  835  1  0.61616300  0.34827900  0.93120400  1
  H  836  1  0.61849600  0.34933900  0.88428100  1
  H  837  1  0.58845600  0.42613000  0.93137700  1
  H  838  1  0.61594300  0.34690300  0.82233700  1
  H  839  1  0.55393600  0.39414800  0.84872300  1
  H  840  1  0.52372600  0.36884400  0.82369900  1
  H  841  1  0.58593400  0.32119700  0.79709100  1
  H  842  1  0.59229100  0.43123900  0.82613800  1
  H  843  1  0.68538700  0.41311700  0.82158900  1
  H  844  1  0.65716800  0.38464900  0.84614500  1
  H  845  1  0.62010200  0.45973700  0.80146700  1
  H  849  1  0.68747600  0.44865500  0.78586900  1
  H  850  1  0.54123800  0.31361700  0.78063300  1
  H  851  1  0.58789300  0.37285400  0.97017100  1
  H  871  1  0.35150500  0.42681100  0.05772000  1
  H  872  1  0.32595800  0.34827000  0.01089100  1
  H  873  1  0.32360800  0.34932800  0.05781400  1
  H  874  1  0.35364000  0.42613100  0.01073300  1
  H  875  1  0.32614500  0.34688800  0.11975900  1
  H  876  1  0.38814000  0.39416400  0.09340300  1
  H  877  1  0.41835000  0.36886900  0.11843600  1
  H  878  1  0.35615600  0.32119200  0.14501300  1
  H  879  1  0.34977400  0.43125200  0.11594100  1
  H  880  1  0.25668500  0.41309100  0.12050200  1
  H  881  1  0.28491900  0.38461500  0.09597100  1
  H  882  1  0.32194700  0.45976100  0.14058400  1
  H  886  1  0.25463800  0.44864500  0.15627200  1
  H  887  1  0.40085000  0.31362300  0.16147900  1
  H  888  1  0.35422100  0.37284900  0.97193200  1
  C  2  1  0.58763600  0.89661700  0.62806100  1
  C  3  1  0.60496800  0.93876600  0.61255900  1
  C  4  1  0.62228100  0.89718500  0.59527300  1
  C  5  1  0.59633700  0.95286400  0.59043000  1
  C  6  1  0.59514100  0.98039800  0.59086800  1
  C  7  1  0.60247700  0.99446500  0.61353300  1
  C  8  1  0.61096100  0.98029300  0.63571000  1
  C  9  1  0.61237100  0.95279100  0.63513900  1
  C  10  1  0.56073800  0.89669000  0.62209500  1
  C  11  1  0.54307100  0.88183000  0.63706300  1
  C  12  1  0.55166900  0.86644300  0.65853900  1
  C  13  1  0.57877000  0.86654700  0.66430500  1
  C  14  1  0.59648400  0.88139400  0.64929800  1
  C  15  1  0.61192700  0.88402500  0.57335800  1
  C  16  1  0.62835200  0.86958700  0.55666900  1
  C  17  1  0.65560000  0.86787200  0.56146500  1
  C  18  1  0.66581700  0.88101100  0.58358000  1
  C  19  1  0.64936800  0.89557400  0.60021700  1
  C  32  1  0.67205100  0.85393500  0.54490400  1
  C  33  1  0.53441500  0.85157700  0.67370300  1
  C  34  1  0.60022400  0.02151300  0.61475100  1
  C  39  1  0.35446300  0.16282800  0.62806500  1
  C  40  1  0.33713100  0.12068400  0.61255300  1
  C  41  1  0.31982400  0.16227100  0.59527300  1
  C  42  1  0.34575800  0.10659000  0.59042200  1
  C  43  1  0.34695700  0.07905400  0.59085600  1
  C  44  1  0.33962200  0.06498600  0.61351900  1
  C  45  1  0.33113800  0.07915200  0.63570000  1
  C  46  1  0.32972000  0.10665400  0.63513100  1
  C  47  1  0.38136300  0.16274800  0.62210300  1
  C  48  1  0.39903400  0.17759700  0.63708100  1
  C  49  1  0.39043200  0.19298900  0.65855300  1
  C  50  1  0.36333100  0.19289400  0.66431300  1
  C  51  1  0.34561700  0.17805300  0.64930000  1
  C  52  1  0.33018600  0.17544200  0.57336800  1
  C  53  1  0.31376500  0.18988700  0.55667900  1
  C  54  1  0.28651500  0.19159800  0.56146700  1
  C  55  1  0.27629000  0.17844400  0.58357100  1
  C  56  1  0.29273500  0.16386900  0.60020300  1
  C  69  1  0.27007200  0.20555100  0.54491000  1
  C  70  1  0.40768800  0.20784800  0.67372200  1
  C  71  1  0.34187900  0.03793900  0.61473700  1
  C  76  1  0.58764100  0.16284300  0.31403500  1
  C  77  1  0.60497900  0.12069100  0.32952800  1
  C  78  1  0.62228800  0.16227000  0.34681900  1
  C  79  1  0.59635600  0.10658700  0.35165400  1
  C  80  1  0.59516900  0.07905200  0.35121200  1
  C  81  1  0.60250700  0.06499300  0.32854400  1
  C  82  1  0.61097800  0.07917100  0.30636400  1
  C  83  1  0.61239000  0.10667300  0.30694300  1
  C  84  1  0.56074300  0.16276300  0.32000100  1
  C  85  1  0.54307000  0.17761800  0.30503300  1
  C  86  1  0.55166800  0.19301100  0.28355900  1
  C  87  1  0.57876900  0.19291300  0.27779300  1
  C  88  1  0.59648300  0.17806800  0.29279800  1
  C  89  1  0.61193800  0.17542000  0.36874400  1
  C  90  1  0.62836700  0.18985400  0.38543300  1
  C  91  1  0.65561300  0.19157300  0.38062900  1
  C  92  1  0.66582600  0.17844400  0.35850600  1
  C  93  1  0.64937300  0.16388100  0.34187000  1
  C  106  1  0.67206900  0.20549900  0.39719200  1
  C  107  1  0.53441000  0.20787400  0.26839500  1
  C  108  1  0.60027000  0.03794400  0.32731600  1
  C  113  1  0.35445800  0.89661100  0.31403300  1
  C  114  1  0.33712000  0.93875800  0.32954100  1
  C  115  1  0.31981100  0.89717500  0.34681900  1
  C  116  1  0.34574700  0.95285200  0.35167200  1
  C  117  1  0.34694600  0.98038700  0.35123800  1
  C  118  1  0.33959800  0.99445800  0.32857900  1
  C  119  1  0.33112700  0.98028900  0.30639600  1
  C  120  1  0.32971500  0.95278700  0.30696300  1
  C  121  1  0.38135400  0.89668800  0.32000100  1
  C  122  1  0.39902500  0.88183100  0.30503300  1
  C  123  1  0.39042900  0.86644300  0.28355500  1
  C  124  1  0.36332800  0.86654400  0.27778900  1
  C  125  1  0.34561200  0.88138700  0.29279600  1
  C  126  1  0.33016700  0.88401300  0.36873400  1
  C  127  1  0.31374000  0.86957600  0.38542500  1
  C  128  1  0.28649200  0.86786200  0.38062900  1
  C  129  1  0.27627500  0.88100200  0.35851400  1
  C  130  1  0.29272400  0.89556400  0.34187600  1
  C  143  1  0.27003900  0.85392800  0.39719100  1
  C  144  1  0.40768500  0.85158200  0.26839000  1
  C  145  1  0.34185600  0.02150500  0.32736300  1
  C  150  1  0.83793800  0.68674600  0.58764400  1
  C  151  1  0.88008600  0.67124200  0.60497600  1
  C  152  1  0.83850300  0.65395900  0.62228500  1
  C  153  1  0.89418100  0.64911100  0.59634900  1
  C  154  1  0.92171400  0.64955100  0.59513500  1
  C  155  1  0.93578400  0.67221100  0.60247900  1
  C  156  1  0.92161500  0.69439100  0.61096500  1
  C  157  1  0.89411400  0.69382000  0.61238700  1
  C  158  1  0.83801700  0.68078000  0.56074600  1
  C  159  1  0.82316000  0.69574900  0.54307300  1
  C  160  1  0.80776800  0.71722300  0.55167100  1
  C  161  1  0.80786800  0.72298900  0.57877200  1
  C  162  1  0.82271300  0.70798300  0.59648800  1
  C  163  1  0.82534900  0.63203900  0.61192700  1
  C  164  1  0.81091400  0.61534600  0.62835000  1
  C  165  1  0.80918900  0.62014500  0.65559800  1
  C  166  1  0.82231900  0.64226400  0.66581700  1
  C  167  1  0.83689000  0.65889800  0.64937200  1
  C  180  1  0.79525400  0.60357900  0.67204600  1
  C  181  1  0.79290400  0.73238500  0.53441300  1
  C  182  1  0.96283000  0.67342900  0.60022400  1
  C  187  1  0.10415300  0.68674700  0.35446200  1
  C  188  1  0.06200900  0.67124500  0.33712000  1
  C  189  1  0.10359400  0.65395700  0.31982300  1
  C  190  1  0.04790700  0.64912000  0.34574900  1
  C  191  1  0.02037400  0.64956000  0.34694000  1
  C  192  1  0.00630900  0.67222300  0.33959200  1
  C  193  1  0.02048500  0.69439800  0.33111100  1
  C  194  1  0.04798700  0.69382700  0.32970900  1
  C  195  1  0.10406700  0.68078500  0.38136200  1
  C  196  1  0.11892300  0.69575500  0.39903400  1
  C  197  1  0.13432000  0.71722500  0.39043700  1
  C  198  1  0.13422600  0.72298700  0.36333600  1
  C  199  1  0.11938300  0.70798000  0.34561800  1
  C  200  1  0.11675100  0.63203900  0.33018300  1
  C  201  1  0.13119200  0.61534800  0.31376200  1
  C  202  1  0.13291400  0.62014300  0.28651600  1
  C  203  1  0.11977800  0.64225800  0.27629100  1
  C  204  1  0.10521300  0.65889800  0.29273600  1
  C  217  1  0.14685800  0.60358100  0.27006900  1
  C  218  1  0.14918100  0.73238800  0.40769500  1
  C  219  1  0.97926100  0.67344500  0.34183100  1
  C  224  1  0.10415600  0.37270700  0.58763800  1
  C  225  1  0.06201200  0.38821700  0.60497400  1
  C  226  1  0.10359700  0.40549600  0.62227900  1
  C  227  1  0.04791800  0.41035000  0.59634700  1
  C  228  1  0.02038400  0.40991400  0.59514200  1
  C  229  1  0.00631200  0.38725900  0.60249700  1
  C  230  1  0.02047800  0.36507500  0.61096900  1
  C  231  1  0.04798000  0.36564000  0.61238100  1
  C  232  1  0.10407800  0.37867300  0.56074000  1
  C  233  1  0.11892700  0.36369600  0.54307000  1
  C  234  1  0.13431900  0.34222200  0.55166700  1
  C  235  1  0.13422300  0.33646200  0.57877000  1
  C  236  1  0.11938000  0.35147100  0.59648400  1
  C  237  1  0.11676800  0.42740400  0.61191700  1
  C  238  1  0.13121200  0.44409100  0.62833700  1
  C  239  1  0.13292500  0.43930400  0.65558600  1
  C  240  1  0.11977300  0.41720100  0.66581100  1
  C  241  1  0.10520200  0.40056500  0.64936800  1
  C  254  1  0.14688200  0.45586200  0.67202700  1
  C  255  1  0.14918000  0.32705700  0.53441100  1
  C  256  1  0.97926500  0.38604200  0.60023600  1
  C  261  1  0.83793600  0.37270900  0.35445400  1
  C  262  1  0.88008800  0.38820500  0.33712400  1
  C  263  1  0.83851000  0.40549300  0.31980900  1
  C  264  1  0.89418800  0.41033400  0.34575100  1
  C  265  1  0.92172200  0.40989000  0.34695200  1
  C  266  1  0.93578600  0.38722500  0.33961100  1
  C  267  1  0.92161200  0.36504600  0.33113500  1
  C  268  1  0.89411100  0.36562300  0.32971700  1
  C  269  1  0.83801200  0.37867700  0.38135200  1
  C  270  1  0.82315400  0.36371000  0.39902300  1
  C  271  1  0.80776300  0.34223700  0.39042500  1
  C  272  1  0.80786600  0.33646700  0.36332400  1
  C  273  1  0.82271200  0.35147200  0.34561000  1
  C  274  1  0.82535700  0.42741600  0.33015900  1
  C  275  1  0.81092200  0.44410600  0.31373200  1
  C  276  1  0.80920500  0.43930500  0.28648600  1
  C  277  1  0.82233400  0.41718200  0.27627200  1
  C  278  1  0.83690300  0.40055000  0.29272200  1
  C  291  1  0.79527700  0.45587100  0.27003000  1
  C  292  1  0.79289800  0.32707500  0.40768300  1
  C  293  1  0.96283300  0.38600300  0.34186000  1
  C  298  1  0.62807000  0.64631200  0.83794800  1
  C  299  1  0.61255600  0.66364200  0.88009300  1
  C  300  1  0.59528200  0.68095700  0.83851000  1
  C  301  1  0.59042100  0.65500900  0.89418100  1
  C  302  1  0.59084900  0.65380700  0.92171500  1
  C  303  1  0.61351000  0.66113900  0.93579200  1
  C  304  1  0.63569400  0.66962500  0.92163100  1
  C  305  1  0.63513200  0.67104100  0.89412900  1
  C  306  1  0.62210000  0.61941400  0.83802100  1
  C  307  1  0.63706700  0.60174500  0.82316200  1
  C  308  1  0.65854600  0.61034100  0.80777600  1
  C  309  1  0.66431600  0.63744200  0.80788200  1
  C  310  1  0.64930900  0.65515600  0.82272800  1
  C  311  1  0.57336900  0.67060200  0.82534600  1
  C  312  1  0.55668000  0.68702500  0.81090800  1
  C  313  1  0.56147400  0.71427300  0.80919200  1
  C  314  1  0.58358700  0.72449300  0.82233500  1
  C  315  1  0.60022600  0.70804500  0.83689900  1
  C  328  1  0.54491300  0.73072400  0.79525500  1
  C  329  1  0.67370600  0.59308500  0.79290900  1
  C  330  1  0.61471600  0.65887500  0.96283800  1
  C  335  1  0.62806300  0.41313600  0.10415800  1
  C  336  1  0.61255100  0.39580400  0.06201200  1
  C  337  1  0.59526900  0.37849700  0.10359800  1
  C  338  1  0.59042000  0.40443300  0.04791800  1
  C  339  1  0.59085600  0.40563100  0.02038300  1
  C  340  1  0.61351900  0.39829700  0.00631400  1
  C  341  1  0.63569900  0.38981000  0.02048200  1
  C  342  1  0.63513000  0.38839300  0.04798400  1
  C  343  1  0.62210100  0.44003400  0.10407700  1
  C  344  1  0.63707700  0.45770400  0.11892800  1
  C  345  1  0.65854900  0.44910300  0.13432300  1
  C  346  1  0.66430700  0.42199900  0.13422500  1
  C  347  1  0.64929600  0.40428800  0.11938200  1
  C  348  1  0.57336300  0.38886000  0.11677000  1
  C  349  1  0.55667400  0.37243900  0.13121200  1
  C  350  1  0.56146100  0.34519100  0.13292700  1
  C  351  1  0.58356500  0.33496400  0.11977300  1
  C  352  1  0.60019900  0.35140700  0.10519800  1
  C  365  1  0.54490300  0.32874800  0.14688000  1
  C  366  1  0.67371400  0.46635900  0.14918300  1
  C  367  1  0.61473800  0.40055400  0.97926700  1
  C  372  1  0.31403600  0.64631500  0.10416300  1
  C  373  1  0.32952700  0.66365500  0.06201400  1
  C  374  1  0.34682300  0.68095800  0.10359200  1
  C  375  1  0.35165100  0.65503400  0.04790400  1
  C  376  1  0.35120600  0.65385500  0.02036900  1
  C  377  1  0.32853300  0.66119100  0.00631400  1
  C  378  1  0.30636000  0.66966200  0.02049800  1
  C  379  1  0.30694200  0.67107000  0.04800000  1
  C  380  1  0.31999800  0.61941500  0.10407900  1
  C  381  1  0.30502800  0.60174600  0.11893800  1
  C  382  1  0.28356000  0.61034600  0.13433500  1
  C  383  1  0.27779700  0.63744700  0.13423900  1
  C  384  1  0.29280300  0.65516100  0.11939200  1
  C  385  1  0.36874300  0.67060400  0.11674800  1
  C  386  1  0.38543200  0.68703100  0.13118400  1
  C  387  1  0.38063200  0.71427700  0.13290300  1
  C  388  1  0.35851400  0.72449400  0.11976900  1
  C  389  1  0.34188000  0.70804600  0.10520200  1
  C  402  1  0.39719300  0.73072900  0.14684100  1
  C  403  1  0.26839800  0.59309000  0.14920300  1
  C  404  1  0.32730200  0.65895900  0.97926700  1
  C  409  1  0.31402600  0.41312800  0.83794800  1
  C  410  1  0.32953700  0.39579800  0.88009300  1
  C  411  1  0.34680900  0.37848300  0.83851000  1
  C  412  1  0.35167200  0.40442700  0.89418100  1
  C  413  1  0.35124400  0.40563100  0.92171500  1
  C  414  1  0.32858900  0.39828700  0.93579300  1
  C  415  1  0.30640100  0.38981200  0.92163100  1
  C  416  1  0.30696100  0.38839500  0.89412900  1
  C  417  1  0.31999500  0.44002600  0.83802100  1
  C  418  1  0.30502700  0.45769700  0.82316300  1
  C  419  1  0.28355000  0.44910100  0.80777800  1
  C  420  1  0.27777700  0.42200000  0.80788300  1
  C  421  1  0.29278500  0.40428600  0.82272700  1
  C  422  1  0.36872500  0.38883700  0.82534600  1
  C  423  1  0.38541400  0.37241000  0.81090900  1
  C  424  1  0.38061700  0.34516200  0.80919700  1
  C  425  1  0.35850400  0.33494500  0.82233900  1
  C  426  1  0.34186600  0.35139500  0.83690100  1
  C  439  1  0.39718100  0.32870900  0.79526300  1
  C  440  1  0.26838600  0.46636000  0.79291500  1
  C  441  1  0.32737800  0.40055500  0.96283900  1
  C  446  1  0.83793900  0.64631800  0.31402700  1
  C  447  1  0.88008500  0.66365400  0.32953300  1
  C  448  1  0.83850100  0.68095900  0.34681700  1
  C  449  1  0.89418100  0.65502400  0.35166400  1
  C  450  1  0.92171500  0.65381200  0.35122400  1
  C  451  1  0.93578300  0.66115400  0.32856200  1
  C  452  1  0.92161400  0.66964100  0.30638400  1
  C  453  1  0.89411300  0.67106200  0.30695500  1
  C  454  1  0.83801700  0.61942000  0.31999300  1
  C  455  1  0.82316200  0.60174900  0.30502300  1
  C  456  1  0.80777100  0.61034700  0.28354900  1
  C  457  1  0.80787100  0.63744800  0.27778300  1
  C  458  1  0.82271500  0.65516400  0.29279000  1
  C  459  1  0.82534600  0.67060100  0.36873400  1
  C  460  1  0.81090700  0.68702400  0.38542500  1
  C  461  1  0.80918600  0.71427200  0.38063100  1
  C  462  1  0.82231700  0.72449300  0.35851200  1
  C  463  1  0.83688800  0.70804800  0.34187800  1
  C  476  1  0.79525300  0.73072100  0.39719600  1
  C  477  1  0.79290700  0.59309100  0.26838600  1
  C  478  1  0.96282900  0.65890000  0.32734500  1
  C  483  1  0.10415700  0.41313000  0.31402500  1
  C  484  1  0.06201100  0.39578800  0.32952400  1
  C  485  1  0.10359600  0.37848900  0.34681500  1
  C  486  1  0.04790900  0.40441800  0.35165000  1
  C  487  1  0.02037400  0.40560800  0.35120800  1
  C  488  1  0.00631300  0.39826000  0.32854400  1
  C  489  1  0.02048900  0.38978000  0.30636800  1
  C  490  1  0.04799100  0.38837800  0.30694100  1
  C  491  1  0.10407300  0.44002800  0.31998700  1
  C  492  1  0.11893000  0.45770100  0.30502100  1
  C  493  1  0.13432600  0.44910300  0.28355100  1
  C  494  1  0.13423200  0.42200200  0.27778700  1
  C  495  1  0.11938700  0.40428600  0.29279200  1
  C  496  1  0.11675100  0.38884900  0.36873200  1
  C  497  1  0.13118900  0.37242700  0.38542300  1
  C  498  1  0.13291200  0.34517900  0.38062900  1
  C  499  1  0.11977800  0.33495700  0.35851400  1
  C  500  1  0.10521300  0.35140100  0.34187400  1
  C  513  1  0.14685400  0.32873500  0.39719200  1
  C  514  1  0.14918900  0.46636300  0.26838800  1
  C  515  1  0.97926400  0.40049800  0.32732200  1
  C  520  1  0.10415400  0.64630700  0.62807100  1
  C  521  1  0.06201000  0.66364400  0.61255900  1
  C  522  1  0.10359900  0.68094700  0.59527900  1
  C  523  1  0.04791800  0.65501700  0.59042600  1
  C  524  1  0.02038200  0.65381400  0.59086200  1
  C  525  1  0.00631000  0.66117000  0.61351700  1
  C  526  1  0.02047800  0.66964500  0.63570000  1
  C  527  1  0.04798000  0.67105500  0.63513500  1
  C  528  1  0.10407400  0.61940700  0.62210700  1
  C  529  1  0.11892100  0.60173600  0.63708500  1
  C  530  1  0.13431500  0.61033600  0.65855600  1
  C  531  1  0.13421900  0.63743900  0.66431700  1
  C  532  1  0.11938000  0.65515300  0.64930600  1
  C  533  1  0.11676800  0.67058100  0.57337400  1
  C  534  1  0.13121600  0.68700000  0.55668500  1
  C  535  1  0.13292900  0.71425000  0.56146900  1
  C  536  1  0.11977500  0.72447700  0.58357300  1
  C  537  1  0.10520400  0.70803600  0.60020900  1
  C  550  1  0.14688700  0.73068900  0.54491100  1
  C  551  1  0.14917600  0.59308000  0.67372400  1
  C  552  1  0.97926400  0.65891100  0.61473300  1
  C  557  1  0.83793400  0.41313200  0.62806500  1
  C  558  1  0.88008600  0.39580500  0.61256300  1
  C  559  1  0.83850700  0.37848700  0.59527900  1
  C  560  1  0.89418100  0.40443400  0.59043400  1
  C  561  1  0.92171500  0.40564000  0.59087200  1
  C  562  1  0.93578400  0.39830000  0.61353500  1
  C  563  1  0.92161400  0.38982200  0.63571600  1
  C  564  1  0.89411300  0.38839800  0.63514300  1
  C  565  1  0.83800800  0.44003000  0.62209500  1
  C  566  1  0.82314800  0.45769900  0.63706100  1
  C  567  1  0.80776000  0.44910300  0.65853700  1
  C  568  1  0.80786600  0.42200100  0.66430700  1
  C  569  1  0.82271300  0.40428800  0.64930200  1
  C  570  1  0.82535300  0.38884100  0.57335800  1
  C  571  1  0.81091700  0.37241400  0.55666900  1
  C  572  1  0.80920000  0.34516600  0.56146700  1
  C  573  1  0.82233100  0.33495100  0.58358800  1
  C  574  1  0.83690100  0.35139900  0.60022100  1
  C  587  1  0.79527200  0.32871100  0.54490200  1
  C  588  1  0.79289300  0.46635900  0.67369900  1
  C  589  1  0.96283000  0.40055400  0.61475300  1
  C  594  1  0.62806400  0.89661700  0.35446000  1
  C  595  1  0.61256200  0.93876500  0.33712400  1
  C  596  1  0.59527600  0.89718400  0.31981500  1
  C  597  1  0.59043300  0.95286500  0.34575300  1
  C  598  1  0.59087300  0.98039900  0.34694800  1
  C  599  1  0.61353700  0.99446400  0.33960900  1
  C  600  1  0.63571500  0.98029100  0.33112900  1
  C  601  1  0.63514400  0.95278900  0.32971900  1
  C  602  1  0.62209800  0.89669400  0.38135800  1
  C  603  1  0.63706600  0.88183500  0.39902700  1
  C  604  1  0.65854000  0.86644500  0.39042900  1
  C  605  1  0.66430600  0.86654600  0.36332800  1
  C  606  1  0.64929900  0.88139200  0.34561400  1
  C  607  1  0.57336100  0.88402300  0.33017100  1
  C  608  1  0.55667000  0.86958600  0.31374400  1
  C  609  1  0.56146800  0.86786900  0.28649800  1
  C  610  1  0.58358400  0.88100800  0.27627900  1
  C  611  1  0.60022000  0.89557100  0.29272800  1
  C  624  1  0.54490500  0.85393200  0.27004600  1
  C  625  1  0.67370400  0.85158100  0.40768500  1
  C  626  1  0.61475600  0.02151100  0.34186000  1
  C  631  1  0.62806500  0.16283800  0.58763800  1
  C  632  1  0.61255900  0.12069300  0.60497400  1
  C  633  1  0.59527300  0.16227700  0.62227700  1
  C  634  1  0.59043000  0.10659300  0.59634900  1
  C  635  1  0.59086800  0.07905700  0.59516000  1
  C  636  1  0.61353300  0.06499200  0.60249900  1
  C  637  1  0.63571000  0.07916600  0.61097900  1
  C  638  1  0.63513700  0.10666900  0.61238900  1
  C  639  1  0.62210300  0.16275600  0.56073800  1
  C  640  1  0.63707900  0.17760700  0.54306800  1
  C  641  1  0.65854900  0.19300200  0.55166900  1
  C  642  1  0.66430700  0.19290600  0.57877000  1
  C  643  1  0.64929800  0.17806500  0.59648400  1
  C  644  1  0.57336600  0.17544900  0.61191500  1
  C  645  1  0.55667700  0.18989100  0.62833800  1
  C  646  1  0.56146500  0.19160400  0.65558600  1
  C  647  1  0.58357000  0.17845200  0.66581100  1
  C  648  1  0.60020500  0.16387700  0.64936600  1
  C  661  1  0.54490700  0.20555600  0.67203100  1
  C  662  1  0.67371900  0.20786100  0.53441300  1
  C  663  1  0.61475700  0.03794500  0.60025600  1
  C  668  1  0.31402900  0.16283300  0.35446200  1
  C  669  1  0.32953300  0.12068500  0.33712800  1
  C  670  1  0.34681500  0.16226700  0.31981500  1
  C  671  1  0.35166400  0.10658800  0.34575700  1
  C  672  1  0.35122800  0.07905500  0.34695400  1
  C  673  1  0.32856200  0.06498600  0.33962300  1
  C  674  1  0.30638000  0.07915700  0.33114700  1
  C  675  1  0.30695300  0.10665700  0.32972300  1
  C  676  1  0.31999700  0.16275400  0.38136000  1
  C  677  1  0.30502700  0.17760900  0.39903000  1
  C  678  1  0.28355100  0.19300000  0.39043500  1
  C  679  1  0.27778500  0.19289900  0.36333400  1
  C  680  1  0.29279000  0.17805500  0.34561800  1
  C  681  1  0.36873400  0.17542100  0.33016700  1
  C  682  1  0.38542500  0.18985700  0.31374000  1
  C  683  1  0.38062500  0.19157200  0.28649400  1
  C  684  1  0.35850600  0.17843800  0.27627700  1
  C  685  1  0.34187200  0.16387300  0.29272800  1
  C  698  1  0.39719100  0.20550200  0.27003800  1
  C  699  1  0.26838700  0.20786300  0.40769100  1
  C  700  1  0.32734300  0.03794000  0.34187800  1
  C  705  1  0.31403800  0.89660900  0.58763600  1
  C  706  1  0.32954400  0.93875600  0.60497200  1
  C  707  1  0.34682400  0.89717300  0.62228100  1
  C  708  1  0.35167500  0.95285100  0.59634300  1
  C  709  1  0.35123900  0.98038500  0.59514200  1
  C  710  1  0.32858000  0.99445600  0.60249100  1
  C  711  1  0.30639900  0.98028600  0.61096300  1
  C  712  1  0.30696600  0.95278400  0.61237700  1
  C  713  1  0.32000200  0.89668600  0.56073800  1
  C  714  1  0.30503200  0.88183000  0.54307000  1
  C  715  1  0.28355400  0.86644400  0.55166700  1
  C  716  1  0.27779000  0.86654500  0.57876800  1
  C  717  1  0.29280100  0.88138600  0.59648200  1
  C  718  1  0.36873900  0.88401000  0.61192700  1
  C  719  1  0.38542800  0.86957300  0.62835200  1
  C  720  1  0.38063200  0.86785900  0.65560000  1
  C  721  1  0.35851800  0.88100000  0.66581700  1
  C  722  1  0.34188000  0.89556300  0.64936800  1
  C  735  1  0.39719500  0.85392400  0.67205200  1
  C  736  1  0.26838700  0.85158500  0.53441100  1
  C  737  1  0.32736200  0.02150200  0.60022800  1
  C  742  1  0.58764200  0.68674400  0.10416000  1
  C  743  1  0.60497200  0.67123100  0.06201400  1
  C  744  1  0.62228300  0.65395500  0.10359800  1
  C  745  1  0.59634100  0.64909600  0.04792600  1
  C  746  1  0.59512500  0.64953000  0.02039200  1
  C  747  1  0.60246700  0.67218700  0.00631600  1
  C  748  1  0.61095400  0.69437000  0.02047800  1
  C  749  1  0.61238100  0.69380500  0.04797800  1
  C  750  1  0.56074400  0.68077500  0.10408500  1
  C  751  1  0.54307300  0.69574700  0.11894000  1
  C  752  1  0.55167100  0.71722500  0.13432700  1
  C  753  1  0.57877200  0.72299300  0.13422300  1
  C  754  1  0.59648600  0.70798400  0.11937800  1
  C  755  1  0.61192700  0.63203700  0.11675400  1
  C  756  1  0.62835000  0.61534400  0.13119000  1
  C  757  1  0.65559600  0.62014200  0.13291300  1
  C  758  1  0.66581700  0.64225900  0.11977900  1
  C  759  1  0.64937000  0.65889400  0.10520800  1
  C  772  1  0.67204600  0.60357600  0.14684700  1
  C  773  1  0.53441300  0.73238900  0.14918700  1
  C  774  1  0.60020600  0.67339700  0.97926900  1
  C  779  1  0.35446400  0.68674000  0.83794000  1
  C  780  1  0.33712000  0.67124800  0.88008700  1
  C  781  1  0.31982300  0.65395100  0.83850500  1
  C  782  1  0.34574700  0.64912500  0.89419600  1
  C  783  1  0.34693600  0.64957300  0.92173000  1
  C  784  1  0.33958600  0.67223900  0.93578600  1
  C  785  1  0.33110700  0.69441300  0.92160400  1
  C  786  1  0.32970700  0.69383300  0.89410200  1
  C  787  1  0.38136400  0.68078000  0.83802600  1
  C  788  1  0.39903500  0.69575100  0.82317000  1
  C  789  1  0.39043500  0.71721700  0.80777100  1
  C  790  1  0.36333400  0.72297700  0.80786300  1
  C  791  1  0.34561800  0.70797200  0.82270900  1
  C  792  1  0.33018100  0.63203300  0.82535000  1
  C  793  1  0.31375800  0.61534300  0.81091100  1
  C  794  1  0.28651200  0.62013900  0.80918900  1
  C  795  1  0.27628900  0.64225600  0.82232300  1
  C  796  1  0.29273600  0.65889400  0.83688700  1
  C  809  1  0.27006300  0.60357700  0.79524700  1
  C  810  1  0.40769300  0.73238000  0.79290700  1
  C  811  1  0.34182100  0.67346900  0.96283300  1
  C  816  1  0.58762700  0.37271200  0.83794100  1
  C  817  1  0.60496100  0.38822100  0.88008600  1
  C  818  1  0.62226600  0.40550300  0.83849900  1
  C  819  1  0.59633400  0.41035400  0.89418000  1
  C  820  1  0.59513200  0.40991600  0.92171500  1
  C  821  1  0.60248600  0.38725900  0.93578600  1
  C  822  1  0.61096000  0.36507700  0.92161700  1
  C  823  1  0.61237200  0.36564500  0.89411400  1
  C  824  1  0.56072900  0.37867400  0.83802000  1
  C  825  1  0.54305700  0.36369600  0.82317400  1
  C  826  1  0.55165700  0.34222200  0.80778300  1
  C  827  1  0.57876000  0.33646300  0.80787800  1
  C  828  1  0.59647300  0.35147600  0.82271700  1
  C  829  1  0.61190500  0.42740900  0.82532800  1
  C  830  1  0.62832400  0.44409400  0.81088000  1
  C  831  1  0.65557400  0.43930900  0.80917000  1
  C  832  1  0.66579900  0.41720500  0.82232400  1
  C  833  1  0.64935600  0.40057100  0.83689600  1
  C  846  1  0.67201500  0.45586700  0.79521400  1
  C  847  1  0.53440100  0.32705000  0.79292800  1
  C  848  1  0.60022300  0.38604100  0.96283100  1
  C  853  1  0.35445500  0.37270800  0.10416500  1
  C  854  1  0.33712900  0.38821400  0.06201600  1
  C  855  1  0.31981000  0.40549200  0.10359600  1
  C  856  1  0.34576000  0.41034700  0.04792600  1
  C  857  1  0.34696800  0.40991500  0.02039200  1
  C  858  1  0.33963400  0.38725400  0.00631800  1
  C  859  1  0.33115400  0.36507100  0.02048200  1
  C  860  1  0.32972600  0.36563800  0.04798200  1
  C  861  1  0.38135300  0.37867800  0.10409100  1
  C  862  1  0.39902400  0.36370900  0.11894800  1
  C  863  1  0.39042800  0.34223200  0.13433300  1
  C  864  1  0.36332700  0.33645900  0.13422900  1
  C  865  1  0.34561300  0.35146700  0.11938400  1
  C  866  1  0.33016200  0.42741200  0.11675200  1
  C  867  1  0.31373500  0.44410300  0.13118800  1
  C  868  1  0.28648700  0.43930200  0.13290300  1
  C  869  1  0.27627200  0.41718300  0.11977100  1
  C  870  1  0.29272100  0.40055100  0.10520000  1
  C  883  1  0.27003200  0.45587000  0.14683100  1
  C  884  1  0.40768600  0.32706800  0.14919700  1
  C  885  1  0.34189700  0.38604200  0.97927200  1
  C  889  1  0.70960200  0.81594600  0.47793100  1
  C  891  1  0.67997200  0.84408800  0.49974900  1
  C  893  1  0.68132300  0.84344400  0.45359700  1
  C  898  1  0.23249400  0.24350300  0.47793500  1
  C  900  1  0.26214100  0.21538300  0.49975500  1
  C  902  1  0.26077700  0.21600900  0.45360200  1
  C  907  1  0.70961900  0.24349100  0.46416500  1
  C  909  1  0.67999400  0.21534400  0.44234700  1
  C  911  1  0.68134500  0.21599100  0.48850000  1
  C  916  1  0.23248500  0.81595400  0.46416700  1
  C  918  1  0.26211400  0.84409000  0.44234700  1
  C  920  1  0.26076100  0.84345400  0.48850000  1
  C  925  1  0.75726700  0.53660800  0.70959900  1
  C  927  1  0.78538500  0.55842400  0.67995000  1
  C  929  1  0.78475100  0.51227100  0.68130900  1
  C  934  1  0.18483300  0.53660900  0.23250300  1
  C  936  1  0.15672300  0.55842600  0.26216200  1
  C  938  1  0.15734500  0.51227500  0.26078900  1
  C  943  1  0.18483400  0.52283700  0.70960300  1
  C  945  1  0.15672100  0.50101700  0.67995200  1
  C  947  1  0.15733700  0.54716800  0.68132300  1
  C  952  1  0.75727800  0.52284100  0.23248900  1
  C  954  1  0.78542700  0.50102400  0.26211100  1
  C  956  1  0.78477400  0.54717700  0.26076600  1
  C  961  1  0.47794000  0.76827300  0.75726900  1
  C  963  1  0.49975700  0.73864300  0.78540800  1
  C  965  1  0.45360500  0.73999600  0.78476700  1
  C  970  1  0.47792800  0.29117300  0.18483500  1
  C  972  1  0.49974800  0.32082200  0.15671700  1
  C  974  1  0.45359800  0.31945900  0.15734300  1
  C  979  1  0.46416600  0.76829000  0.18481800  1
  C  981  1  0.44234800  0.73865600  0.15668200  1
  C  983  1  0.48850100  0.74001100  0.15732000  1
  C  988  1  0.46415800  0.29115000  0.75729200  1
  C  990  1  0.44233600  0.32078400  0.78542600  1
  C  992  1  0.48848900  0.31943000  0.78479000  1
  C  997  1  0.75726800  0.76827800  0.46416700  1
  C  999  1  0.78538400  0.73862500  0.44234900  1
  C  1001  1  0.78475400  0.73998900  0.48850200  1
  C  1006  1  0.18482700  0.29117000  0.46416500  1
  C  1008  1  0.15671600  0.32082700  0.44234700  1
  C  1010  1  0.15733800  0.31945800  0.48850000  1
  C  1015  1  0.18483600  0.76826700  0.47793700  1
  C  1017  1  0.15672600  0.73861200  0.49975700  1
  C  1019  1  0.15734200  0.73998500  0.45360600  1
  C  1024  1  0.75727300  0.29117100  0.47792900  1
  C  1026  1  0.78541900  0.32079600  0.49974700  1
  C  1028  1  0.78476400  0.31945300  0.45359500  1
  C  1033  1  0.47793400  0.81594700  0.23249500  1
  C  1035  1  0.49975100  0.84408500  0.26212700  1
  C  1037  1  0.45359900  0.84344300  0.26077500  1
  C  1042  1  0.47792800  0.24349800  0.70961300  1
  C  1044  1  0.49975200  0.21538600  0.67996000  1
  C  1046  1  0.45360000  0.21600400  0.68132900  1
  C  1051  1  0.46416200  0.24349100  0.23248900  1
  C  1053  1  0.44234400  0.21534900  0.26211700  1
  C  1055  1  0.48849600  0.21599600  0.26076800  1
  C  1060  1  0.46417000  0.81594900  0.70960900  1
  C  1062  1  0.44235000  0.84408200  0.67997500  1
  C  1064  1  0.48850300  0.84344300  0.68132700  1
  C  1069  1  0.70960700  0.53660500  0.18482600  1
  C  1071  1  0.67995200  0.55842300  0.15671200  1
  C  1073  1  0.68132100  0.51227100  0.15733700  1
  C  1078  1  0.23249500  0.53660600  0.75727400  1
  C  1080  1  0.26215400  0.55842200  0.78538500  1
  C  1082  1  0.26078300  0.51227200  0.78476300  1
  C  1087  1  0.70959100  0.52284000  0.75725900  1
  C  1089  1  0.67993800  0.50102000  0.78537100  1
  C  1091  1  0.68130900  0.54717300  0.78475300  1
  C  1096  1  0.23249500  0.52284400  0.18483000  1
  C  1098  1  0.26211500  0.50102500  0.15668200  1
  C  1100  1  0.26077600  0.54717800  0.15733500  1
  N  1  1  0.60558600  0.91100300  0.61255500  1
  N  38  1  0.33651300  0.14844700  0.61255500  1
  N  75  1  0.60559300  0.14845500  0.32953700  1
  N  112  1  0.33650400  0.91099500  0.32953900  1
  N  149  1  0.85232300  0.67124200  0.60559600  1
  N  186  1  0.08977100  0.67124100  0.33651000  1
  N  223  1  0.08977400  0.38821500  0.60559200  1
  N  260  1  0.85232500  0.38821100  0.33650200  1
  N  297  1  0.61256400  0.66426600  0.85233100  1
  N  334  1  0.61255300  0.39518600  0.08977400  1
  N  371  1  0.32954200  0.66426500  0.08977600  1
  N  408  1  0.32953000  0.39517600  0.85233100  1
  N  445  1  0.85232300  0.66427000  0.32953300  1
  N  482  1  0.08977500  0.39517600  0.32952900  1
  N  519  1  0.08977400  0.66425900  0.61256100  1
  N  556  1  0.85232300  0.39518000  0.61256100  1
  N  593  1  0.61255800  0.91100200  0.33650800  1
  N  630  1  0.61255500  0.14845500  0.60558600  1
  N  667  1  0.32953300  0.14844900  0.33651000  1
  N  704  1  0.32954400  0.91099300  0.60558800  1
  N  741  1  0.60559400  0.67123800  0.08977600  1
  N  778  1  0.33651200  0.67123400  0.85232400  1
  N  815  1  0.60557700  0.38822100  0.85232300  1
  N  852  1  0.33650300  0.38821000  0.08977800  1
  N  890  1  0.69913700  0.82563000  0.50044300  1
  N  892  1  0.67132400  0.85257900  0.47628400  1
  N  894  1  0.70052100  0.82498100  0.45445700  1
  N  895  1  0.72790600  0.79774900  0.48009400  1
  N  896  1  0.67079000  0.85379600  0.43249800  1
  N  897  1  0.66808900  0.85443300  0.52013900  1
  N  899  1  0.24297100  0.23383400  0.50044700  1
  N  901  1  0.27078800  0.20688700  0.47629200  1
  N  903  1  0.24157300  0.23446400  0.45446100  1
  N  904  1  0.21418800  0.26170000  0.48009500  1
  N  905  1  0.27130800  0.20565300  0.43250600  1
  N  906  1  0.27404400  0.20506100  0.52014700  1
  N  908  1  0.69915400  0.23380600  0.44165300  1
  N  910  1  0.67134700  0.20685200  0.46581200  1
  N  912  1  0.70053700  0.23445900  0.48763900  1
  N  913  1  0.72791600  0.26169600  0.46200100  1
  N  914  1  0.67080900  0.20563900  0.50959800  1
  N  915  1  0.66811500  0.20499200  0.42195900  1
  N  917  1  0.24295200  0.82563200  0.44165500  1
  N  919  1  0.27076300  0.85258500  0.46581000  1
  N  921  1  0.24156700  0.82498800  0.48764100  1
  N  922  1  0.21418800  0.79774800  0.46200500  1
  N  923  1  0.27129600  0.85380500  0.50959600  1
  N  924  1  0.27400100  0.85443100  0.42195700  1
  N  926  1  0.76694400  0.55912000  0.69912800  1
  N  928  1  0.79388300  0.53495900  0.67130500  1
  N  930  1  0.76629500  0.51313300  0.70051200  1
  N  931  1  0.73906800  0.53877200  0.72790300  1
  N  932  1  0.79510300  0.49117300  0.67077700  1
  N  933  1  0.79574800  0.57881400  0.66808100  1
  N  935  1  0.17516400  0.55912200  0.24298400  1
  N  937  1  0.14822100  0.53496100  0.27080000  1
  N  939  1  0.17580000  0.51313500  0.24158400  1
  N  940  1  0.20303000  0.53877200  0.21419900  1
  N  941  1  0.14698500  0.49117700  0.27131300  1
  N  942  1  0.14636900  0.57881600  0.27403700  1
  N  944  1  0.17516800  0.50032500  0.69912400  1
  N  946  1  0.14822000  0.52448000  0.67130900  1
  N  948  1  0.17579000  0.54631100  0.70052800  1
  N  949  1  0.20302800  0.52067600  0.72791100  1
  N  950  1  0.14697600  0.56826600  0.67079500  1
  N  951  1  0.14639500  0.48062500  0.66805400  1
  N  953  1  0.76696700  0.50033000  0.24295000  1
  N  955  1  0.79391600  0.52448900  0.27076100  1
  N  957  1  0.76631000  0.54631700  0.24157000  1
  N  958  1  0.73908000  0.52067800  0.21418500  1
  N  959  1  0.79512800  0.56827500  0.27129700  1
  N  960  1  0.79577900  0.48063600  0.27399000  1
  N  962  1  0.50045200  0.75780800  0.76695100  1
  N  964  1  0.47629300  0.72999500  0.79390000  1
  N  966  1  0.45446600  0.75919400  0.76630600  1
  N  967  1  0.48010200  0.78658100  0.73907400  1
  N  968  1  0.43250700  0.72946700  0.79512400  1
  N  969  1  0.52014800  0.72676000  0.79575400  1
  N  971  1  0.50044000  0.30165100  0.17516600  1
  N  973  1  0.47628600  0.32947000  0.14822300  1
  N  975  1  0.45445600  0.30025300  0.17579800  1
  N  976  1  0.48009100  0.27286400  0.20302800  1
  N  977  1  0.43249900  0.32999100  0.14699000  1
  N  978  1  0.52014000  0.33272200  0.14639300  1
  N  980  1  0.44165400  0.75782100  0.17513900  1
  N  982  1  0.46581300  0.73000900  0.14818800  1
  N  984  1  0.48764000  0.75920700  0.17578400  1
  N  985  1  0.46200400  0.78658800  0.20302200  1
  N  986  1  0.50959900  0.72947700  0.14697000  1
  N  987  1  0.42196000  0.72677000  0.14633800  1
  N  989  1  0.44164400  0.30162100  0.76696900  1
  N  991  1  0.46580100  0.32943200  0.79392200  1
  N  993  1  0.48763000  0.30023300  0.76632800  1
  N  994  1  0.46199600  0.27285200  0.73909000  1
  N  995  1  0.50958700  0.32996400  0.79514200  1
  N  996  1  0.42194600  0.33267000  0.79576500  1
  N  998  1  0.76694300  0.75780300  0.44165500  1
  N  1000  1  0.79388400  0.72998400  0.46581400  1
  N  1002  1  0.76629900  0.75919300  0.48764100  1
  N  1003  1  0.73907100  0.78658200  0.46200300  1
  N  1004  1  0.79511100  0.72946200  0.50960000  1
  N  1005  1  0.79574500  0.72675500  0.42196100  1
  N  1007  1  0.17515500  0.30164700  0.44165300  1
  N  1009  1  0.14821400  0.32946800  0.46581200  1
  N  1011  1  0.17579300  0.30025200  0.48763900  1
  N  1012  1  0.20302300  0.27286300  0.46200300  1
  N  1013  1  0.14698000  0.32998600  0.50959600  1
  N  1014  1  0.14636300  0.33270200  0.42195700  1
  N  1016  1  0.17517300  0.75778600  0.50044900  1
  N  1018  1  0.14822400  0.72996900  0.47629400  1
  N  1020  1  0.17579300  0.75919200  0.45446300  1
  N  1021  1  0.20302500  0.78658100  0.48009700  1
  N  1022  1  0.14697900  0.72946100  0.43250800  1
  N  1023  1  0.14640000  0.72671600  0.52014900  1
  N  1025  1  0.76696200  0.30163200  0.50044100  1
  N  1027  1  0.79390500  0.32945100  0.47628300  1
  N  1029  1  0.76630500  0.30025500  0.45445500  1
  N  1030  1  0.73908300  0.27286100  0.48009400  1
  N  1031  1  0.79511600  0.32998600  0.43249600  1
  N  1032  1  0.79577000  0.33267500  0.52013500  1
  N  1034  1  0.50044400  0.82562900  0.24296200  1
  N  1036  1  0.47628700  0.85257600  0.27077500  1
  N  1038  1  0.45445800  0.82498200  0.24157600  1
  N  1039  1  0.48009600  0.79775500  0.21418500  1
  N  1040  1  0.43250100  0.85379700  0.27130500  1
  N  1041  1  0.52014000  0.85442900  0.27401100  1
  N  1043  1  0.50044200  0.23383200  0.69913200  1
  N  1045  1  0.47629000  0.20688600  0.67131300  1
  N  1047  1  0.45445600  0.23445600  0.70053400  1
  N  1048  1  0.48008900  0.26169100  0.72792300  1
  N  1049  1  0.43250300  0.20564400  0.67079900  1
  N  1050  1  0.52014400  0.20506500  0.66806000  1
  N  1052  1  0.44165000  0.23380800  0.24295400  1
  N  1054  1  0.46580800  0.20685900  0.27076500  1
  N  1056  1  0.48763600  0.23446300  0.24157400  1
  N  1057  1  0.46199800  0.26169500  0.21418900  1
  N  1058  1  0.50959500  0.20565000  0.27130500  1
  N  1059  1  0.42195600  0.20499800  0.27399600  1
  N  1061  1  0.44165800  0.82562700  0.69914200  1
  N  1063  1  0.46581500  0.85257500  0.67132500  1
  N  1065  1  0.48764400  0.82498100  0.70052400  1
  N  1066  1  0.46200800  0.79774600  0.72790900  1
  N  1067  1  0.50959900  0.85379100  0.67078900  1
  N  1068  1  0.42196000  0.85442400  0.66808900  1
  N  1070  1  0.69913000  0.55911700  0.17515300  1
  N  1072  1  0.67131100  0.53495900  0.14821000  1
  N  1074  1  0.70052400  0.51313100  0.17579400  1
  N  1075  1  0.72791100  0.53876900  0.20302200  1
  N  1076  1  0.67079300  0.49117200  0.14698000  1
  N  1077  1  0.66808100  0.57881200  0.14635000  1
  N  1079  1  0.24297400  0.55911800  0.76694600  1
  N  1081  1  0.27079500  0.53496000  0.79388600  1
  N  1083  1  0.24157800  0.51313200  0.76630800  1
  N  1084  1  0.21419300  0.53876900  0.73907600  1
  N  1085  1  0.27131100  0.49117300  0.79512000  1
  N  1086  1  0.27403100  0.57881300  0.79573800  1
  N  1088  1  0.69911200  0.50032800  0.76692600  1
  N  1090  1  0.67129300  0.52448500  0.79387100  1
  N  1092  1  0.70051400  0.54631400  0.76630000  1
  N  1093  1  0.72789900  0.52067900  0.73906400  1
  N  1094  1  0.67077900  0.56827100  0.79511000  1
  N  1095  1  0.66804100  0.48063000  0.79569900  1
  N  1097  1  0.24295500  0.50033100  0.17514100  1
  N  1099  1  0.27077000  0.52448800  0.14819400  1
  N  1101  1  0.24157800  0.54631800  0.17580000  1
  N  1102  1  0.21419100  0.52068100  0.20302800  1
  N  1103  1  0.27130900  0.56827400  0.14698400  1
  N  1104  1  0.27399400  0.48063500  0.14632900  1
