# generated using pymatgen
data_H24C38N5
_symmetry_space_group_name_H-M   'P 1'
_cell_length_a   59.74920000
_cell_length_b   59.74920000
_cell_length_c   59.74920000
_cell_angle_alpha   90.00000000
_cell_angle_beta   90.00000000
_cell_angle_gamma   90.00000000
_symmetry_Int_Tables_number   1
_chemical_formula_structural   H24C38N5
_chemical_formula_sum   'H864 C1368 N180'
_cell_volume   213302.66633972
_cell_formula_units_Z   36
loop_
 _symmetry_equiv_pos_site_id
 _symmetry_equiv_pos_as_xyz
  1  'x, y, z'
loop_
 _atom_site_type_symbol
 _atom_site_label
 _atom_site_symmetry_multiplicity
 _atom_site_fract_x
 _atom_site_fract_y
 _atom_site_fract_z
 _atom_site_occupancy
  H  73  1  0.02404800  0.70717100  0.47709100  1
  H  74  1  0.02312900  0.66727200  0.47526100  1
  H  75  1  0.99297200  0.70475400  0.54055800  1
  H  76  1  0.99257000  0.66507500  0.53892900  1
  H  77  1  0.97356400  0.63417200  0.51578800  1
  H  78  1  0.97353400  0.59413800  0.51579300  1
  H  79  1  0.04168500  0.63409900  0.49681000  1
  H  80  1  0.04162600  0.59402600  0.49699400  1
  H  81  1  0.00702800  0.58226200  0.46157100  1
  H  82  1  0.00692900  0.55237000  0.43168800  1
  H  83  1  0.00702200  0.52135800  0.49259900  1
  H  84  1  0.00702000  0.49365700  0.52030300  1
  H  85  1  0.00807300  0.58297700  0.55182200  1
  H  86  1  0.00762700  0.55301000  0.58186000  1
  H  87  1  0.97363800  0.49821600  0.59310700  1
  H  88  1  0.97365000  0.49795300  0.63314100  1
  H  89  1  0.04165600  0.51722900  0.59316100  1
  H  90  1  0.04168200  0.51719000  0.63322500  1
  H  91  1  0.00754200  0.46266600  0.58119800  1
  H  92  1  0.00641300  0.43277100  0.55130800  1
  H  93  1  0.00598500  0.46212200  0.43099100  1
  H  94  1  0.00642800  0.43208900  0.46096200  1
  H  95  1  0.04031900  0.42082200  0.51584800  1
  H  96  1  0.04028200  0.38078700  0.51608400  1
  H  97  1  0.97235600  0.42082400  0.49663900  1
  H  98  1  0.97230900  0.38075800  0.49663200  1
  H  99  1  0.99109900  0.34759300  0.47520100  1
  H  100  1  0.99023600  0.30769400  0.47696700  1
  H  101  1  0.02076700  0.31008300  0.54069000  1
  H  102  1  0.02113000  0.34976500  0.53910700  1
  H  103  1  0.97235800  0.51690600  0.41995200  1
  H  104  1  0.97226900  0.51706300  0.37987900  1
  H  105  1  0.02141300  0.47499900  0.34886300  1
  H  106  1  0.02099800  0.47339000  0.30918200  1
  H  107  1  0.98984100  0.53682000  0.30681900  1
  H  108  1  0.99077600  0.53863000  0.34671100  1
  H  109  1  0.04040800  0.49814700  0.37976900  1
  H  110  1  0.04046500  0.49816900  0.41980500  1
  H  111  1  0.02305800  0.53860800  0.66638700  1
  H  112  1  0.02389900  0.53682700  0.70627900  1
  H  113  1  0.99259700  0.47490800  0.66419000  1
  H  114  1  0.99292500  0.47332000  0.70387200  1
  H  187  1  0.47320300  0.02014300  0.70486500  1
  H  188  1  0.47471300  0.02063300  0.66516700  1
  H  189  1  0.53739000  0.99055200  0.70705500  1
  H  190  1  0.53906700  0.99153600  0.66715700  1
  H  191  1  0.51746600  0.97234800  0.63414600  1
  H  192  1  0.51740300  0.97242000  0.59407300  1
  H  193  1  0.49775700  0.04026000  0.63419400  1
  H  194  1  0.49794500  0.04032800  0.59414500  1
  H  195  1  0.46263000  0.00608200  0.58228700  1
  H  196  1  0.43272000  0.00658200  0.55241600  1
  H  197  1  0.49360000  0.00633500  0.52136600  1
  H  198  1  0.52129900  0.00783900  0.49367500  1
  H  199  1  0.55289800  0.00706600  0.58297800  1
  H  200  1  0.58289300  0.00727400  0.55299300  1
  H  201  1  0.59397900  0.97370500  0.49832500  1
  H  202  1  0.63401800  0.97366500  0.49811900  1
  H  203  1  0.59409000  0.04176900  0.51721700  1
  H  204  1  0.63416100  0.04175300  0.51720800  1
  H  205  1  0.58223500  0.00798900  0.46273600  1
  H  206  1  0.55237500  0.00743900  0.43280900  1
  H  207  1  0.43203200  0.00647700  0.46208300  1
  H  208  1  0.46203800  0.00758000  0.43208600  1
  H  209  1  0.51703100  0.04163100  0.42089400  1
  H  210  1  0.51721000  0.04168400  0.38082700  1
  H  211  1  0.49798800  0.97362300  0.42079200  1
  H  212  1  0.49795100  0.97365600  0.38076300  1
  H  213  1  0.47494500  0.99264400  0.34976000  1
  H  214  1  0.47335700  0.99302200  0.31008400  1
  H  215  1  0.53684900  0.02403100  0.30772000  1
  H  216  1  0.53863300  0.02313300  0.34761000  1
  H  217  1  0.42084900  0.97239600  0.51702300  1
  H  218  1  0.38078000  0.97232200  0.51720700  1
  H  219  1  0.34972300  0.02137100  0.47498900  1
  H  220  1  0.31004600  0.02097500  0.47336700  1
  H  221  1  0.30763300  0.98995400  0.53684900  1
  H  222  1  0.34753100  0.99085200  0.53866300  1
  H  223  1  0.38067900  0.04037700  0.49804500  1
  H  224  1  0.42071000  0.04043200  0.49807500  1
  H  225  1  0.66725900  0.02305600  0.53870700  1
  H  226  1  0.70715200  0.02390500  0.53687700  1
  H  227  1  0.66499100  0.99264600  0.47497200  1
  H  228  1  0.70467000  0.99296900  0.47334200  1
  H  301  1  0.70485800  0.47321600  0.02011600  1
  H  302  1  0.66516200  0.47473100  0.02061700  1
  H  303  1  0.70704500  0.53740300  0.99052500  1
  H  304  1  0.66714700  0.53908500  0.99152300  1
  H  305  1  0.63412900  0.51748800  0.97234100  1
  H  306  1  0.59405800  0.51743300  0.97242100  1
  H  307  1  0.63419200  0.49776900  0.04024900  1
  H  308  1  0.59414300  0.49796300  0.04032700  1
  H  309  1  0.58227500  0.46265500  0.00605500  1
  H  310  1  0.55240400  0.43274500  0.00656600  1
  H  311  1  0.52135600  0.49362800  0.00637600  1
  H  312  1  0.49366500  0.52132700  0.00784500  1
  H  313  1  0.58296800  0.55292400  0.00706500  1
  H  314  1  0.55298500  0.58292000  0.00726700  1
  H  315  1  0.49830600  0.59400400  0.97368800  1
  H  316  1  0.49809400  0.63404400  0.97364500  1
  H  317  1  0.51721400  0.59412500  0.04174900  1
  H  318  1  0.51720200  0.63419200  0.04172900  1
  H  319  1  0.46272400  0.58226400  0.00796000  1
  H  320  1  0.43279900  0.55240400  0.00741700  1
  H  321  1  0.46207100  0.43206100  0.00651400  1
  H  322  1  0.43207400  0.46206800  0.00760500  1
  H  323  1  0.42087900  0.51706800  0.04162400  1
  H  324  1  0.38081200  0.51723900  0.04167300  1
  H  325  1  0.42078900  0.49800300  0.97362100  1
  H  326  1  0.38075800  0.49795800  0.97365300  1
  H  327  1  0.34976500  0.47495000  0.99266100  1
  H  328  1  0.31008800  0.47335500  0.99302700  1
  H  329  1  0.30770100  0.53687200  0.02398200  1
  H  330  1  0.34759300  0.53866100  0.02309900  1
  H  331  1  0.51698800  0.42088400  0.97240800  1
  H  332  1  0.51716800  0.38081700  0.97232400  1
  H  333  1  0.47500700  0.34971700  0.02142200  1
  H  334  1  0.47341700  0.31003800  0.02101200  1
  H  335  1  0.53685600  0.30769400  0.98989400  1
  H  336  1  0.53864000  0.34759000  0.99081100  1
  H  337  1  0.49805000  0.38070100  0.04039200  1
  H  338  1  0.49808200  0.42073200  0.04045600  1
  H  339  1  0.53870300  0.66726900  0.02302700  1
  H  340  1  0.53689400  0.70715700  0.02388700  1
  H  341  1  0.47496700  0.66504100  0.99261900  1
  H  342  1  0.47335900  0.70472400  0.99294900  1
  H  415  1  0.53004200  0.20666700  0.97909900  1
  H  416  1  0.53196900  0.16674000  0.97997800  1
  H  417  1  0.48210300  0.20547400  0.03093700  1
  H  418  1  0.48418900  0.16567600  0.03208100  1
  H  419  1  0.47325000  0.13334200  0.00833500  1
  H  420  1  0.47380200  0.09337300  0.00898600  1
  H  421  1  0.54381600  0.13420400  0.00360200  1
  H  422  1  0.54421600  0.09416000  0.00378900  1
  H  423  1  0.50929400  0.08158600  0.96167000  1
  H  424  1  0.50938200  0.05126300  0.93203400  1
  H  425  1  0.50924200  0.02101300  0.99331700  1
  H  426  1  0.50935400  0.99364500  0.02131700  1
  H  427  1  0.50899800  0.08330600  0.05183100  1
  H  428  1  0.50893900  0.05356000  0.08226500  1
  H  429  1  0.47391100  0.00519800  0.09336900  1
  H  430  1  0.47337400  0.00546100  0.13333900  1
  H  431  1  0.54423000  0.01153900  0.09416900  1
  H  432  1  0.54385700  0.01132800  0.13420700  1
  H  433  1  0.50930900  0.96337500  0.08259000  1
  H  434  1  0.50915700  0.93306300  0.05294400  1
  H  435  1  0.50879000  0.96109000  0.93236400  1
  H  436  1  0.50887400  0.93134800  0.96278900  1
  H  437  1  0.54414100  0.92053300  0.01106200  1
  H  438  1  0.54377300  0.88048900  0.01103700  1
  H  439  1  0.47376700  0.92129100  0.00526200  1
  H  440  1  0.47324300  0.88131700  0.00569500  1
  H  441  1  0.48446800  0.84912800  0.98184600  1
  H  442  1  0.48237300  0.80931800  0.98283300  1
  H  443  1  0.52977300  0.80795400  0.03517100  1
  H  444  1  0.53169200  0.84788600  0.03446000  1
  H  445  1  0.47391800  0.00963000  0.92120000  1
  H  446  1  0.47346200  0.00912500  0.88123700  1
  H  447  1  0.53189700  0.97963100  0.84806500  1
  H  448  1  0.53010900  0.97868700  0.80813500  1
  H  449  1  0.48265700  0.03098700  0.80903700  1
  H  450  1  0.48471100  0.03229700  0.84883800  1
  H  451  1  0.54391500  0.00279500  0.88055700  1
  H  452  1  0.54419600  0.00279000  0.92059000  1
  H  453  1  0.53174300  0.03451100  0.16684800  1
  H  454  1  0.52980300  0.03524200  0.20676900  1
  H  455  1  0.48457000  0.98186100  0.16560900  1
  H  456  1  0.48244500  0.98288000  0.20541200  1
  H  529  1  0.97903700  0.52997700  0.20590400  1
  H  530  1  0.97994600  0.53192300  0.16597500  1
  H  531  1  0.03091400  0.48206800  0.20472600  1
  H  532  1  0.03208600  0.48417400  0.16492600  1
  H  533  1  0.00822800  0.47322100  0.13262300  1
  H  534  1  0.00888300  0.47377900  0.09265200  1
  H  535  1  0.00370900  0.54380800  0.13349800  1
  H  536  1  0.00390100  0.54421600  0.09345200  1
  H  537  1  0.96168000  0.50932200  0.08091000  1
  H  538  1  0.93204100  0.50940400  0.05059400  1
  H  539  1  0.99331900  0.50918700  0.02032900  1
  H  540  1  0.02131700  0.50940400  0.99296000  1
  H  541  1  0.05182900  0.50898900  0.08262700  1
  H  542  1  0.08226700  0.50895400  0.05288800  1
  H  543  1  0.09336300  0.47392600  0.00460600  1
  H  544  1  0.13333100  0.47336700  0.00504600  1
  H  545  1  0.09417700  0.54424800  0.01089900  1
  H  546  1  0.13421500  0.54385200  0.01086200  1
  H  547  1  0.08259200  0.50929900  0.96270400  1
  H  548  1  0.05295000  0.50913300  0.93238400  1
  H  549  1  0.93236400  0.50879200  0.96042100  1
  H  550  1  0.96278400  0.50889400  0.93067200  1
  H  551  1  0.01116500  0.54413100  0.91981300  1
  H  552  1  0.01113700  0.54375900  0.87977100  1
  H  553  1  0.00515600  0.47378200  0.92058000  1
  H  554  1  0.00558500  0.47325100  0.88060900  1
  H  555  1  0.98184700  0.48445500  0.84838300  1
  H  556  1  0.98281500  0.48236100  0.80857600  1
  H  557  1  0.03512400  0.52977800  0.80718400  1
  H  558  1  0.03443100  0.53169900  0.84711400  1
  H  559  1  0.92119900  0.47390800  0.00904200  1
  H  560  1  0.88123300  0.47347200  0.00870300  1
  H  561  1  0.84797600  0.53188500  0.97928500  1
  H  562  1  0.80804400  0.53010400  0.97848500  1
  H  563  1  0.80911900  0.48271100  0.03083100  1
  H  564  1  0.84892700  0.48475600  0.03199800  1
  H  565  1  0.88056200  0.54391800  0.00231800  1
  H  566  1  0.92059300  0.54418100  0.00214700  1
  H  567  1  0.16675500  0.53175600  0.03417000  1
  H  568  1  0.20667900  0.52981800  0.03504300  1
  H  569  1  0.16570500  0.48452500  0.98156800  1
  H  570  1  0.20550200  0.48239800  0.98273300  1
  H  643  1  0.20631200  0.97943900  0.52971200  1
  H  644  1  0.16637000  0.98058200  0.53134600  1
  H  645  1  0.20581200  0.03137100  0.48186400  1
  H  646  1  0.16601500  0.03279200  0.48367300  1
  H  647  1  0.13373400  0.00923600  0.47234900  1
  H  648  1  0.09377200  0.00994700  0.47243000  1
  H  649  1  0.13376500  0.00424900  0.54290400  1
  H  650  1  0.09371300  0.00448700  0.54282900  1
  H  651  1  0.08206100  0.96251600  0.50729900  1
  H  652  1  0.05208000  0.93255100  0.50674300  1
  H  653  1  0.02113900  0.99349100  0.50701100  1
  H  654  1  0.99346400  0.02117100  0.50692700  1
  H  655  1  0.08277300  0.05269200  0.50728500  1
  H  656  1  0.05268500  0.08279000  0.50654700  1
  H  657  1  0.00393000  0.09369300  0.47119800  1
  H  658  1  0.00372400  0.13374000  0.47105400  1
  H  659  1  0.01049700  0.09387000  0.54150000  1
  H  660  1  0.00981200  0.13382800  0.54152300  1
  H  661  1  0.96250100  0.08209900  0.50685500  1
  H  662  1  0.93253300  0.05212300  0.50738400  1
  H  663  1  0.96191600  0.93186200  0.50662300  1
  H  664  1  0.93182700  0.96195200  0.50734700  1
  H  665  1  0.92092800  0.01031000  0.54281600  1
  H  666  1  0.88087400  0.01034900  0.54292300  1
  H  667  1  0.92083900  0.00440800  0.47244600  1
  H  668  1  0.88087400  0.00491200  0.47239500  1
  H  669  1  0.84874400  0.98120800  0.48396500  1
  H  670  1  0.80893600  0.98247200  0.48213900  1
  H  671  1  0.80825200  0.03484500  0.52951200  1
  H  672  1  0.84819700  0.03387000  0.53114800  1
  H  673  1  0.01002400  0.92096400  0.47116300  1
  H  674  1  0.01008500  0.88090900  0.47105400  1
  H  675  1  0.98136400  0.84876300  0.53017800  1
  H  676  1  0.98266100  0.80895500  0.53199000  1
  H  677  1  0.03476100  0.80830700  0.48431600  1
  H  678  1  0.03374100  0.84825400  0.48267700  1
  H  679  1  0.00515100  0.88090000  0.54161700  1
  H  680  1  0.00462200  0.92086700  0.54157200  1
  H  681  1  0.03308500  0.16610200  0.52990800  1
  H  682  1  0.03166200  0.20590100  0.53169700  1
  H  683  1  0.98035400  0.16639500  0.48280600  1
  H  684  1  0.97924600  0.20633700  0.48438000  1
  H  692  1  0.99267400  0.44954400  0.24241800  1
  H  693  1  0.99298900  0.46244300  0.21791600  1
  H  694  1  0.99803700  0.46879600  0.27680500  1
  H  702  1  0.02071900  0.44947400  0.77078500  1
  H  703  1  0.02047900  0.46237900  0.79528100  1
  H  704  1  0.01560200  0.46876100  0.73637600  1
  H  712  1  0.24327200  0.99275800  0.44948500  1
  H  713  1  0.21874600  0.99319300  0.46233200  1
  H  714  1  0.27763900  0.99804200  0.46878900  1
  H  722  1  0.77146600  0.02106200  0.44946900  1
  H  723  1  0.79598700  0.02064700  0.46233400  1
  H  724  1  0.73708400  0.01582100  0.46877300  1
  H  732  1  0.44957700  0.24322300  0.99282000  1
  H  733  1  0.46247800  0.21872300  0.99309400  1
  H  734  1  0.46882800  0.27760400  0.99816200  1
  H  742  1  0.44951700  0.77157500  0.02090100  1
  H  743  1  0.46241400  0.79607600  0.02060600  1
  H  744  1  0.46881100  0.73716500  0.01574400  1
  H  752  1  0.45019200  0.99139900  0.77173700  1
  H  753  1  0.46315100  0.99214400  0.79620600  1
  H  754  1  0.46924600  0.99707100  0.73724500  1
  H  762  1  0.44953900  0.02087100  0.24317000  1
  H  763  1  0.46247000  0.02064300  0.21868400  1
  H  764  1  0.46878100  0.01565200  0.27757700  1
  H  772  1  0.99271300  0.24319500  0.56432000  1
  H  773  1  0.99325700  0.21868700  0.55143300  1
  H  774  1  0.99797500  0.27761200  0.54508000  1
  H  782  1  0.02121400  0.77147000  0.56448900  1
  H  783  1  0.02075800  0.79600400  0.55165700  1
  H  784  1  0.01604000  0.73709100  0.54513900  1
  H  792  1  0.24316500  0.44955100  0.02086800  1
  H  793  1  0.21867400  0.46247500  0.02058400  1
  H  794  1  0.27757700  0.46879600  0.01566900  1
  H  802  1  0.77171700  0.45019200  0.99135500  1
  H  803  1  0.79618600  0.46315400  0.99205300  1
  H  804  1  0.73723300  0.46924800  0.99705600  1
  H  877  1  0.14120400  0.82432700  0.62772100  1
  H  878  1  0.14028500  0.78442800  0.62589100  1
  H  879  1  0.11012800  0.82191000  0.69118800  1
  H  880  1  0.10972600  0.78223100  0.68955900  1
  H  881  1  0.09072040  0.75132800  0.66641800  1
  H  882  1  0.09069040  0.71129400  0.66642300  1
  H  883  1  0.15884100  0.75125500  0.64744000  1
  H  884  1  0.15878200  0.71118200  0.64762400  1
  H  885  1  0.12418400  0.69941800  0.61220100  1
  H  886  1  0.12408500  0.66952600  0.58231800  1
  H  887  1  0.12417800  0.63851400  0.64322900  1
  H  888  1  0.12417600  0.61081300  0.67093300  1
  H  889  1  0.12522900  0.70013300  0.70245200  1
  H  890  1  0.12478300  0.67016600  0.73249000  1
  H  891  1  0.09079440  0.61537200  0.74373700  1
  H  892  1  0.09080640  0.61510900  0.78377100  1
  H  893  1  0.15881200  0.63438500  0.74379100  1
  H  894  1  0.15883800  0.63434600  0.78385500  1
  H  895  1  0.12469800  0.57982200  0.73182800  1
  H  896  1  0.12356900  0.54992700  0.70193800  1
  H  897  1  0.12314100  0.57927800  0.58162100  1
  H  898  1  0.12358400  0.54924500  0.61159200  1
  H  899  1  0.15747500  0.53797800  0.66647800  1
  H  900  1  0.15743800  0.49794300  0.66666667  1
  H  901  1  0.08951240  0.53798000  0.64726900  1
  H  902  1  0.08946540  0.49791400  0.64726200  1
  H  903  1  0.10825500  0.46474900  0.62583100  1
  H  904  1  0.10739200  0.42485000  0.62759700  1
  H  905  1  0.13792300  0.42723900  0.69132000  1
  H  906  1  0.13828600  0.46692100  0.68973700  1
  H  907  1  0.08951440  0.63406200  0.57058200  1
  H  908  1  0.08942540  0.63421900  0.53050900  1
  H  909  1  0.13856900  0.59215500  0.49949300  1
  H  910  1  0.13815400  0.59054600  0.45981200  1
  H  911  1  0.10699700  0.65397600  0.45744900  1
  H  912  1  0.10793200  0.65578600  0.49734100  1
  H  913  1  0.15756400  0.61530300  0.53039900  1
  H  914  1  0.15762100  0.61532500  0.57043500  1
  H  915  1  0.14021400  0.65576400  0.81701700  1
  H  916  1  0.14105500  0.65398300  0.85690900  1
  H  917  1  0.10975300  0.59206400  0.81482000  1
  H  918  1  0.11008100  0.59047600  0.85450200  1
  H  991  1  0.59035900  0.13729900  0.85549500  1
  H  992  1  0.59186900  0.13778900  0.81579700  1
  H  993  1  0.65454600  0.10770800  0.85768500  1
  H  994  1  0.65622300  0.10869200  0.81778700  1
  H  995  1  0.63462200  0.08950440  0.78477600  1
  H  996  1  0.63455900  0.08957640  0.74470300  1
  H  997  1  0.61491300  0.15741600  0.78482400  1
  H  998  1  0.61510100  0.15748400  0.74477500  1
  H  999  1  0.57978600  0.12323800  0.73291700  1
  H  1000  1  0.54987600  0.12373800  0.70304600  1
  H  1001  1  0.61075600  0.12349100  0.67199600  1
  H  1002  1  0.63845500  0.12499500  0.64430500  1
  H  1003  1  0.67005400  0.12422200  0.73360800  1
  H  1004  1  0.70004900  0.12443000  0.70362300  1
  H  1005  1  0.71113500  0.09086140  0.64895500  1
  H  1006  1  0.75117400  0.09082140  0.64874900  1
  H  1007  1  0.71124600  0.15892500  0.66784700  1
  H  1008  1  0.75131700  0.15890900  0.66783800  1
  H  1009  1  0.69939100  0.12514500  0.61336600  1
  H  1010  1  0.66953100  0.12459500  0.58343900  1
  H  1011  1  0.54918800  0.12363300  0.61271300  1
  H  1012  1  0.57919400  0.12473600  0.58271600  1
  H  1013  1  0.63418700  0.15878700  0.57152400  1
  H  1014  1  0.63436600  0.15884000  0.53145700  1
  H  1015  1  0.61514400  0.09077940  0.57142200  1
  H  1016  1  0.61510700  0.09081240  0.53139300  1
  H  1017  1  0.59210100  0.10980000  0.50039000  1
  H  1018  1  0.59051300  0.11017800  0.46071400  1
  H  1019  1  0.65400500  0.14118700  0.45835000  1
  H  1020  1  0.65578900  0.14028900  0.49824000  1
  H  1021  1  0.53800500  0.08955240  0.66765300  1
  H  1022  1  0.49793600  0.08947840  0.66783700  1
  H  1023  1  0.46687900  0.13852700  0.62561900  1
  H  1024  1  0.42720200  0.13813100  0.62399700  1
  H  1025  1  0.42478900  0.10711000  0.68747900  1
  H  1026  1  0.46468700  0.10800800  0.68929300  1
  H  1027  1  0.49783500  0.15753300  0.64867500  1
  H  1028  1  0.53786600  0.15758800  0.64870500  1
  H  1029  1  0.78441500  0.14021200  0.68933700  1
  H  1030  1  0.82430800  0.14106100  0.68750700  1
  H  1031  1  0.78214700  0.10980200  0.62560200  1
  H  1032  1  0.82182600  0.11012500  0.62397200  1
  H  1105  1  0.82201400  0.59037200  0.17074600  1
  H  1106  1  0.78231800  0.59188700  0.17124700  1
  H  1107  1  0.82420100  0.65455900  0.14115500  1
  H  1108  1  0.78430300  0.65624100  0.14215300  1
  H  1109  1  0.75128500  0.63464400  0.12297100  1
  H  1110  1  0.71121400  0.63458900  0.12305100  1
  H  1111  1  0.75134800  0.61492500  0.19087900  1
  H  1112  1  0.71129900  0.61511900  0.19095700  1
  H  1113  1  0.69943100  0.57981100  0.15668500  1
  H  1114  1  0.66956000  0.54990100  0.15719600  1
  H  1115  1  0.63851200  0.61078400  0.15700600  1
  H  1116  1  0.61082100  0.63848300  0.15847500  1
  H  1117  1  0.70012400  0.67008000  0.15769500  1
  H  1118  1  0.67014100  0.70007600  0.15789700  1
  H  1119  1  0.61546200  0.71116000  0.12431800  1
  H  1120  1  0.61525000  0.75120000  0.12427500  1
  H  1121  1  0.63437000  0.71128100  0.19237900  1
  H  1122  1  0.63435800  0.75134800  0.19235900  1
  H  1123  1  0.57988000  0.69942000  0.15859000  1
  H  1124  1  0.54995500  0.66956000  0.15804700  1
  H  1125  1  0.57922700  0.54921700  0.15714400  1
  H  1126  1  0.54923000  0.57922400  0.15823500  1
  H  1127  1  0.53803500  0.63422400  0.19225400  1
  H  1128  1  0.49796800  0.63439500  0.19230300  1
  H  1129  1  0.53794500  0.61515900  0.12425100  1
  H  1130  1  0.49791400  0.61511400  0.12428300  1
  H  1131  1  0.46692100  0.59210600  0.14329100  1
  H  1132  1  0.42724400  0.59051100  0.14365700  1
  H  1133  1  0.42485700  0.65402800  0.17461200  1
  H  1134  1  0.46474900  0.65581700  0.17372900  1
  H  1135  1  0.63414400  0.53804000  0.12303800  1
  H  1136  1  0.63432400  0.49797300  0.12295400  1
  H  1137  1  0.59216300  0.46687300  0.17205200  1
  H  1138  1  0.59057300  0.42719400  0.17164200  1
  H  1139  1  0.65401200  0.42485000  0.14052400  1
  H  1140  1  0.65579600  0.46474600  0.14144100  1
  H  1141  1  0.61520600  0.49785700  0.19102200  1
  H  1142  1  0.61523800  0.53788800  0.19108600  1
  H  1143  1  0.65585900  0.78442500  0.17365700  1
  H  1144  1  0.65405000  0.82431300  0.17451700  1
  H  1145  1  0.59212300  0.78219700  0.14324900  1
  H  1146  1  0.59051500  0.82188000  0.14357900  1
  H  1219  1  0.64719800  0.32382300  0.12972900  1
  H  1220  1  0.64912500  0.28389600  0.13060800  1
  H  1221  1  0.59925900  0.32263000  0.18156700  1
  H  1222  1  0.60134500  0.28283200  0.18271100  1
  H  1223  1  0.59040600  0.25049800  0.15896500  1
  H  1224  1  0.59095800  0.21052900  0.15961600  1
  H  1225  1  0.66097200  0.25136000  0.15423200  1
  H  1226  1  0.66137200  0.21131600  0.15441900  1
  H  1227  1  0.62645000  0.19874200  0.11230000  1
  H  1228  1  0.62653800  0.16841900  0.08266360  1
  H  1229  1  0.62639800  0.13816900  0.14394700  1
  H  1230  1  0.62651000  0.11080100  0.17194700  1
  H  1231  1  0.62615400  0.20046200  0.20246100  1
  H  1232  1  0.62609500  0.17071600  0.23289500  1
  H  1233  1  0.59106700  0.12235400  0.24399900  1
  H  1234  1  0.59053000  0.12261700  0.28396900  1
  H  1235  1  0.66138600  0.12869500  0.24479900  1
  H  1236  1  0.66101300  0.12848400  0.28483700  1
  H  1237  1  0.62646500  0.08053140  0.23322000  1
  H  1238  1  0.62631300  0.05021940  0.20357400  1
  H  1239  1  0.62594600  0.07824640  0.08299360  1
  H  1240  1  0.62603000  0.04850440  0.11341900  1
  H  1241  1  0.66129700  0.03768940  0.16169200  1
  H  1242  1  0.66092900  0.99764500  0.16166700  1
  H  1243  1  0.59092300  0.03844740  0.15589200  1
  H  1244  1  0.59039900  0.99847300  0.15632500  1
  H  1245  1  0.60162400  0.96628400  0.13247600  1
  H  1246  1  0.59952900  0.92647400  0.13346300  1
  H  1247  1  0.64692900  0.92511000  0.18580100  1
  H  1248  1  0.64884800  0.96504200  0.18509000  1
  H  1249  1  0.59107400  0.12678600  0.07182960  1
  H  1250  1  0.59061800  0.12628100  0.03186660  1
  H  1251  1  0.64905300  0.09678740  0.99869500  1
  H  1252  1  0.64726500  0.09584340  0.95876500  1
  H  1253  1  0.59981300  0.14814300  0.95966700  1
  H  1254  1  0.60186700  0.14945300  0.99946800  1
  H  1255  1  0.66107100  0.11995100  0.03118660  1
  H  1256  1  0.66135200  0.11994600  0.07121960  1
  H  1257  1  0.64889900  0.15166700  0.31747800  1
  H  1258  1  0.64695900  0.15239800  0.35739900  1
  H  1259  1  0.60172600  0.09901740  0.31623900  1
  H  1260  1  0.59960100  0.10003600  0.35604200  1
  H  1333  1  0.09619340  0.64713300  0.35653400  1
  H  1334  1  0.09710240  0.64907900  0.31660500  1
  H  1335  1  0.14807000  0.59922400  0.35535600  1
  H  1336  1  0.14924200  0.60133000  0.31555600  1
  H  1337  1  0.12538400  0.59037700  0.28325300  1
  H  1338  1  0.12603900  0.59093500  0.24328200  1
  H  1339  1  0.12086500  0.66096400  0.28412800  1
  H  1340  1  0.12105700  0.66137200  0.24408200  1
  H  1341  1  0.07883640  0.62647800  0.23154000  1
  H  1342  1  0.04919740  0.62656000  0.20122400  1
  H  1343  1  0.11047500  0.62634300  0.17095900  1
  H  1344  1  0.13847300  0.62656000  0.14359000  1
  H  1345  1  0.16898500  0.62614500  0.23325700  1
  H  1346  1  0.19942300  0.62611000  0.20351800  1
  H  1347  1  0.21051900  0.59108200  0.15523600  1
  H  1348  1  0.25048700  0.59052300  0.15567600  1
  H  1349  1  0.21133300  0.66140400  0.16152900  1
  H  1350  1  0.25137100  0.66100800  0.16149200  1
  H  1351  1  0.19974800  0.62645500  0.11333400  1
  H  1352  1  0.17010600  0.62628900  0.08301360  1
  H  1353  1  0.04952040  0.62594800  0.11105100  1
  H  1354  1  0.07994040  0.62605000  0.08130160  1
  H  1355  1  0.12832100  0.66128700  0.07044260  1
  H  1356  1  0.12829300  0.66091500  0.03040060  1
  H  1357  1  0.12231200  0.59093800  0.07120960  1
  H  1358  1  0.12274100  0.59040700  0.03123860  1
  H  1359  1  0.09900340  0.60161100  0.99901300  1
  H  1360  1  0.09997140  0.59951700  0.95920600  1
  H  1361  1  0.15228000  0.64693400  0.95781400  1
  H  1362  1  0.15158700  0.64885500  0.99774400  1
  H  1363  1  0.03835540  0.59106400  0.15967200  1
  H  1364  1  0.99838900  0.59062800  0.15933300  1
  H  1365  1  0.96513200  0.64904100  0.12991500  1
  H  1366  1  0.92520000  0.64726000  0.12911500  1
  H  1367  1  0.92627500  0.59986700  0.18146100  1
  H  1368  1  0.96608300  0.60191200  0.18262800  1
  H  1369  1  0.99771800  0.66107400  0.15294800  1
  H  1370  1  0.03774940  0.66133700  0.15277700  1
  H  1371  1  0.28391100  0.64891200  0.18480000  1
  H  1372  1  0.32383500  0.64697400  0.18567300  1
  H  1373  1  0.28286100  0.60168100  0.13219800  1
  H  1374  1  0.32265800  0.59955400  0.13336300  1
  H  1447  1  0.32346800  0.09659540  0.68034200  1
  H  1448  1  0.28352600  0.09773840  0.68197600  1
  H  1449  1  0.32296800  0.14852700  0.63249400  1
  H  1450  1  0.28317100  0.14994800  0.63430300  1
  H  1451  1  0.25089000  0.12639200  0.62297900  1
  H  1452  1  0.21092800  0.12710300  0.62306000  1
  H  1453  1  0.25092100  0.12140500  0.69353400  1
  H  1454  1  0.21086900  0.12164300  0.69345900  1
  H  1455  1  0.19921700  0.07967240  0.65792900  1
  H  1456  1  0.16923600  0.04970740  0.65737300  1
  H  1457  1  0.13829500  0.11064700  0.65764100  1
  H  1458  1  0.11062000  0.13832700  0.65755700  1
  H  1459  1  0.19992900  0.16984800  0.65791500  1
  H  1460  1  0.16984100  0.19994600  0.65717700  1
  H  1461  1  0.12108600  0.21084900  0.62182800  1
  H  1462  1  0.12088000  0.25089600  0.62168400  1
  H  1463  1  0.12765300  0.21102600  0.69213000  1
  H  1464  1  0.12696800  0.25098400  0.69215300  1
  H  1465  1  0.07965740  0.19925500  0.65748500  1
  H  1466  1  0.04968940  0.16927900  0.65801400  1
  H  1467  1  0.07907240  0.04901840  0.65725300  1
  H  1468  1  0.04898340  0.07910840  0.65797700  1
  H  1469  1  0.03808440  0.12746600  0.69344600  1
  H  1470  1  0.99803000  0.12750500  0.69355300  1
  H  1471  1  0.03799540  0.12156400  0.62307600  1
  H  1472  1  0.99803000  0.12206800  0.62302500  1
  H  1473  1  0.96590000  0.09836440  0.63459500  1
  H  1474  1  0.92609200  0.09962840  0.63276900  1
  H  1475  1  0.92540800  0.15200100  0.68014200  1
  H  1476  1  0.96535300  0.15102600  0.68177800  1
  H  1477  1  0.12718000  0.03812040  0.62179300  1
  H  1478  1  0.12724100  0.99806500  0.62168400  1
  H  1479  1  0.09852040  0.96591900  0.68080800  1
  H  1480  1  0.09981740  0.92611100  0.68262000  1
  H  1481  1  0.15191700  0.92546300  0.63494600  1
  H  1482  1  0.15089700  0.96541000  0.63330700  1
  H  1483  1  0.12230700  0.99805600  0.69224700  1
  H  1484  1  0.12177800  0.03802340  0.69220200  1
  H  1485  1  0.15024100  0.28325800  0.68053800  1
  H  1486  1  0.14881800  0.32305700  0.68232700  1
  H  1487  1  0.09751040  0.28355100  0.63343600  1
  H  1488  1  0.09640240  0.32349300  0.63501000  1
  H  1496  1  0.10983000  0.56670000  0.39304800  1
  H  1497  1  0.11014500  0.57959900  0.36854600  1
  H  1498  1  0.11519300  0.58595200  0.42743500  1
  H  1506  1  0.13787500  0.56663000  0.92141500  1
  H  1507  1  0.13763500  0.57953500  0.94591100  1
  H  1508  1  0.13275800  0.58591700  0.88700600  1
  H  1516  1  0.36042800  0.10991400  0.60011500  1
  H  1517  1  0.33590200  0.11034900  0.61296200  1
  H  1518  1  0.39479500  0.11519800  0.61941900  1
  H  1526  1  0.88862200  0.13821800  0.60009900  1
  H  1527  1  0.91314300  0.13780300  0.61296400  1
  H  1528  1  0.85424000  0.13297700  0.61940300  1
  H  1536  1  0.56673300  0.36037900  0.14345000  1
  H  1537  1  0.57963400  0.33587900  0.14372400  1
  H  1538  1  0.58598400  0.39476000  0.14879200  1
  H  1546  1  0.56667300  0.88873100  0.17153100  1
  H  1547  1  0.57957000  0.91323200  0.17123600  1
  H  1548  1  0.58596700  0.85432100  0.16637400  1
  H  1556  1  0.56734800  0.10855500  0.92236700  1
  H  1557  1  0.58030700  0.10930000  0.94683600  1
  H  1558  1  0.58640200  0.11422700  0.88787500  1
  H  1566  1  0.56669500  0.13802700  0.39380000  1
  H  1567  1  0.57962600  0.13779900  0.36931400  1
  H  1568  1  0.58593700  0.13280800  0.42820700  1
  H  1576  1  0.10986900  0.36035100  0.71495000  1
  H  1577  1  0.11041300  0.33584300  0.70206300  1
  H  1578  1  0.11513100  0.39476800  0.69571000  1
  H  1586  1  0.13837000  0.88862600  0.71511900  1
  H  1587  1  0.13791400  0.91316000  0.70228700  1
  H  1588  1  0.13319600  0.85424700  0.69576900  1
  H  1596  1  0.36032100  0.56670700  0.17149800  1
  H  1597  1  0.33583000  0.57963100  0.17121400  1
  H  1598  1  0.39473300  0.58595200  0.16629900  1
  H  1606  1  0.88887300  0.56734800  0.14198500  1
  H  1607  1  0.91334200  0.58031000  0.14268300  1
  H  1608  1  0.85438900  0.58640400  0.14768600  1
  H  1681  1  0.25836100  0.94148400  0.77835000  1
  H  1682  1  0.25744200  0.90158500  0.77652000  1
  H  1683  1  0.22728500  0.93906700  0.84181700  1
  H  1684  1  0.22688300  0.89938800  0.84018800  1
  H  1685  1  0.20787700  0.86848500  0.81704700  1
  H  1686  1  0.20784700  0.82845100  0.81705200  1
  H  1687  1  0.27599800  0.86841200  0.79806900  1
  H  1688  1  0.27593900  0.82833900  0.79825300  1
  H  1689  1  0.24134100  0.81657500  0.76283000  1
  H  1690  1  0.24124200  0.78668300  0.73294700  1
  H  1691  1  0.24133500  0.75567100  0.79385800  1
  H  1692  1  0.24133300  0.72797000  0.82156200  1
  H  1693  1  0.24238600  0.81729000  0.85308100  1
  H  1694  1  0.24194000  0.78732300  0.88311900  1
  H  1695  1  0.20795100  0.73252900  0.89436600  1
  H  1696  1  0.20796300  0.73226600  0.93440000  1
  H  1697  1  0.27596900  0.75154200  0.89442000  1
  H  1698  1  0.27599500  0.75150300  0.93448400  1
  H  1699  1  0.24185500  0.69697900  0.88245700  1
  H  1700  1  0.24072600  0.66708400  0.85256700  1
  H  1701  1  0.24029800  0.69643500  0.73225000  1
  H  1702  1  0.24074100  0.66640200  0.76222100  1
  H  1703  1  0.27463200  0.65513500  0.81710700  1
  H  1704  1  0.27459500  0.61510000  0.81734300  1
  H  1705  1  0.20666900  0.65513700  0.79789800  1
  H  1706  1  0.20662200  0.61507100  0.79789100  1
  H  1707  1  0.22541200  0.58190600  0.77646000  1
  H  1708  1  0.22454900  0.54200700  0.77822600  1
  H  1709  1  0.25508000  0.54439600  0.84194900  1
  H  1710  1  0.25544300  0.58407800  0.84036600  1
  H  1711  1  0.20667100  0.75121900  0.72121100  1
  H  1712  1  0.20658200  0.75137600  0.68113800  1
  H  1713  1  0.25572600  0.70931200  0.65012200  1
  H  1714  1  0.25531100  0.70770300  0.61044100  1
  H  1715  1  0.22415400  0.77113300  0.60807800  1
  H  1716  1  0.22508900  0.77294300  0.64797000  1
  H  1717  1  0.27472100  0.73246000  0.68102800  1
  H  1718  1  0.27477800  0.73248200  0.72106400  1
  H  1719  1  0.25737100  0.77292100  0.96764600  1
  H  1720  1  0.25821200  0.77114000  0.00753826  1
  H  1721  1  0.22691000  0.70922100  0.96544900  1
  H  1722  1  0.22723800  0.70763300  0.00513126  1
  H  1795  1  0.70751600  0.25445600  0.00612426  1
  H  1796  1  0.70902600  0.25494600  0.96642600  1
  H  1797  1  0.77170300  0.22486500  0.00831426  1
  H  1798  1  0.77338000  0.22584900  0.96841600  1
  H  1799  1  0.75177900  0.20666100  0.93540500  1
  H  1800  1  0.75171600  0.20673300  0.89533200  1
  H  1801  1  0.73207000  0.27457300  0.93545300  1
  H  1802  1  0.73225800  0.27464100  0.89540400  1
  H  1803  1  0.69694300  0.24039500  0.88354600  1
  H  1804  1  0.66703300  0.24089500  0.85367500  1
  H  1805  1  0.72791300  0.24064800  0.82262500  1
  H  1806  1  0.75561200  0.24215200  0.79493400  1
  H  1807  1  0.78721100  0.24137900  0.88423700  1
  H  1808  1  0.81720600  0.24158700  0.85425200  1
  H  1809  1  0.82829200  0.20801800  0.79958400  1
  H  1810  1  0.86833100  0.20797800  0.79937800  1
  H  1811  1  0.82840300  0.27608200  0.81847600  1
  H  1812  1  0.86847400  0.27606600  0.81846700  1
  H  1813  1  0.81654800  0.24230200  0.76399500  1
  H  1814  1  0.78668800  0.24175200  0.73406800  1
  H  1815  1  0.66634500  0.24079000  0.76334200  1
  H  1816  1  0.69635100  0.24189300  0.73334500  1
  H  1817  1  0.75134400  0.27594400  0.72215300  1
  H  1818  1  0.75152300  0.27599700  0.68208600  1
  H  1819  1  0.73230100  0.20793600  0.72205100  1
  H  1820  1  0.73226400  0.20796900  0.68202200  1
  H  1821  1  0.70925800  0.22695700  0.65101900  1
  H  1822  1  0.70767000  0.22733500  0.61134300  1
  H  1823  1  0.77116200  0.25834400  0.60897900  1
  H  1824  1  0.77294600  0.25744600  0.64886900  1
  H  1825  1  0.65516200  0.20670900  0.81828200  1
  H  1826  1  0.61509300  0.20663500  0.81846600  1
  H  1827  1  0.58403600  0.25568400  0.77624800  1
  H  1828  1  0.54435900  0.25528800  0.77462600  1
  H  1829  1  0.54194600  0.22426700  0.83810800  1
  H  1830  1  0.58184400  0.22516500  0.83992200  1
  H  1831  1  0.61499200  0.27469000  0.79930400  1
  H  1832  1  0.65502300  0.27474500  0.79933400  1
  H  1833  1  0.90157200  0.25736900  0.83996600  1
  H  1834  1  0.94146500  0.25821800  0.83813600  1
  H  1835  1  0.89930400  0.22695900  0.77623100  1
  H  1836  1  0.93898300  0.22728200  0.77460100  1
  H  1909  1  0.93917100  0.70752900  0.32137500  1
  H  1910  1  0.89947500  0.70904400  0.32187600  1
  H  1911  1  0.94135800  0.77171600  0.29178400  1
  H  1912  1  0.90146000  0.77339800  0.29278200  1
  H  1913  1  0.86844200  0.75180100  0.27360000  1
  H  1914  1  0.82837100  0.75174600  0.27368000  1
  H  1915  1  0.86850500  0.73208200  0.34150800  1
  H  1916  1  0.82845600  0.73227600  0.34158600  1
  H  1917  1  0.81658800  0.69696800  0.30731400  1
  H  1918  1  0.78671700  0.66705800  0.30782500  1
  H  1919  1  0.75566900  0.72794100  0.30763500  1
  H  1920  1  0.72797800  0.75564000  0.30910400  1
  H  1921  1  0.81728100  0.78723700  0.30832400  1
  H  1922  1  0.78729800  0.81723300  0.30852600  1
  H  1923  1  0.73261900  0.82831700  0.27494700  1
  H  1924  1  0.73240700  0.86835700  0.27490400  1
  H  1925  1  0.75152700  0.82843800  0.34300800  1
  H  1926  1  0.75151500  0.86850500  0.34298800  1
  H  1927  1  0.69703700  0.81657700  0.30921900  1
  H  1928  1  0.66711200  0.78671700  0.30867600  1
  H  1929  1  0.69638400  0.66637400  0.30777300  1
  H  1930  1  0.66638700  0.69638100  0.30886400  1
  H  1931  1  0.65519200  0.75138100  0.34288300  1
  H  1932  1  0.61512500  0.75155200  0.34293200  1
  H  1933  1  0.65510200  0.73231600  0.27488000  1
  H  1934  1  0.61507100  0.73227100  0.27491200  1
  H  1935  1  0.58407800  0.70926300  0.29392000  1
  H  1936  1  0.54440100  0.70766800  0.29428600  1
  H  1937  1  0.54201400  0.77118500  0.32524100  1
  H  1938  1  0.58190600  0.77297400  0.32435800  1
  H  1939  1  0.75130100  0.65519700  0.27366700  1
  H  1940  1  0.75148100  0.61513000  0.27358300  1
  H  1941  1  0.70932000  0.58403000  0.32268100  1
  H  1942  1  0.70773000  0.54435100  0.32227100  1
  H  1943  1  0.77116900  0.54200700  0.29115300  1
  H  1944  1  0.77295300  0.58190300  0.29207000  1
  H  1945  1  0.73236300  0.61501400  0.34165100  1
  H  1946  1  0.73239500  0.65504500  0.34171500  1
  H  1947  1  0.77301600  0.90158200  0.32428600  1
  H  1948  1  0.77120700  0.94147000  0.32514600  1
  H  1949  1  0.70928000  0.89935400  0.29387800  1
  H  1950  1  0.70767200  0.93903700  0.29420800  1
  H  2023  1  0.76435500  0.44098000  0.28035800  1
  H  2024  1  0.76628200  0.40105300  0.28123700  1
  H  2025  1  0.71641600  0.43978700  0.33219600  1
  H  2026  1  0.71850200  0.39998900  0.33333333  1
  H  2027  1  0.70756300  0.36765500  0.30959400  1
  H  2028  1  0.70811500  0.32768600  0.31024500  1
  H  2029  1  0.77812900  0.36851700  0.30486100  1
  H  2030  1  0.77852900  0.32847300  0.30504800  1
  H  2031  1  0.74360700  0.31589900  0.26292900  1
  H  2032  1  0.74369500  0.28557600  0.23329300  1
  H  2033  1  0.74355500  0.25532600  0.29457600  1
  H  2034  1  0.74366700  0.22795800  0.32257600  1
  H  2035  1  0.74331100  0.31761900  0.35309000  1
  H  2036  1  0.74325200  0.28787300  0.38352400  1
  H  2037  1  0.70822400  0.23951100  0.39462800  1
  H  2038  1  0.70768700  0.23977400  0.43459800  1
  H  2039  1  0.77854300  0.24585200  0.39542800  1
  H  2040  1  0.77817000  0.24564100  0.43546600  1
  H  2041  1  0.74362200  0.19768800  0.38384900  1
  H  2042  1  0.74347000  0.16737600  0.35420300  1
  H  2043  1  0.74310300  0.19540300  0.23362300  1
  H  2044  1  0.74318700  0.16566100  0.26404800  1
  H  2045  1  0.77845400  0.15484600  0.31232100  1
  H  2046  1  0.77808600  0.11480200  0.31229600  1
  H  2047  1  0.70808000  0.15560400  0.30652100  1
  H  2048  1  0.70755600  0.11563000  0.30695400  1
  H  2049  1  0.71878100  0.08344080  0.28310500  1
  H  2050  1  0.71668600  0.04363080  0.28409200  1
  H  2051  1  0.76408600  0.04226680  0.33643000  1
  H  2052  1  0.76600500  0.08219880  0.33571900  1
  H  2053  1  0.70823100  0.24394300  0.22245900  1
  H  2054  1  0.70777500  0.24343800  0.18249600  1
  H  2055  1  0.76621000  0.21394400  0.14932400  1
  H  2056  1  0.76442200  0.21300000  0.10939400  1
  H  2057  1  0.71697000  0.26530000  0.11029600  1
  H  2058  1  0.71902400  0.26661000  0.15009700  1
  H  2059  1  0.77822800  0.23710800  0.18181600  1
  H  2060  1  0.77850900  0.23710300  0.22184900  1
  H  2061  1  0.76605600  0.26882400  0.46810700  1
  H  2062  1  0.76411600  0.26955500  0.50802800  1
  H  2063  1  0.71888300  0.21617400  0.46686800  1
  H  2064  1  0.71675800  0.21719300  0.50667100  1
  H  2137  1  0.21335000  0.76429000  0.50716300  1
  H  2138  1  0.21425900  0.76623600  0.46723400  1
  H  2139  1  0.26522700  0.71638100  0.50598500  1
  H  2140  1  0.26639900  0.71848700  0.46618500  1
  H  2141  1  0.24254100  0.70753400  0.43388200  1
  H  2142  1  0.24319600  0.70809200  0.39391100  1
  H  2143  1  0.23802200  0.77812100  0.43475700  1
  H  2144  1  0.23821400  0.77852900  0.39471100  1
  H  2145  1  0.19599300  0.74363500  0.38216900  1
  H  2146  1  0.16635400  0.74371700  0.35185300  1
  H  2147  1  0.22763200  0.74350000  0.32158800  1
  H  2148  1  0.25563000  0.74371700  0.29421900  1
  H  2149  1  0.28614200  0.74330200  0.38388600  1
  H  2150  1  0.31658000  0.74326700  0.35414700  1
  H  2151  1  0.32767600  0.70823900  0.30586500  1
  H  2152  1  0.36764400  0.70768000  0.30630500  1
  H  2153  1  0.32849000  0.77856100  0.31215800  1
  H  2154  1  0.36852800  0.77816500  0.31212100  1
  H  2155  1  0.31690500  0.74361200  0.26396300  1
  H  2156  1  0.28726300  0.74344600  0.23364300  1
  H  2157  1  0.16667700  0.74310500  0.26168000  1
  H  2158  1  0.19709700  0.74320700  0.23193100  1
  H  2159  1  0.24547800  0.77844400  0.22107200  1
  H  2160  1  0.24545000  0.77807200  0.18103000  1
  H  2161  1  0.23946900  0.70809500  0.22183900  1
  H  2162  1  0.23989800  0.70756400  0.18186800  1
  H  2163  1  0.21616000  0.71876800  0.14964200  1
  H  2164  1  0.21712800  0.71667400  0.10983500  1
  H  2165  1  0.26943700  0.76409100  0.10844300  1
  H  2166  1  0.26874400  0.76601200  0.14837300  1
  H  2167  1  0.15551200  0.70822100  0.31030100  1
  H  2168  1  0.11554600  0.70778500  0.30996200  1
  H  2169  1  0.08228880  0.76619800  0.28054400  1
  H  2170  1  0.04235680  0.76441700  0.27974400  1
  H  2171  1  0.04343180  0.71702400  0.33209000  1
  H  2172  1  0.08323980  0.71906900  0.33325700  1
  H  2173  1  0.11487500  0.77823100  0.30357700  1
  H  2174  1  0.15490600  0.77849400  0.30340600  1
  H  2175  1  0.40106800  0.76606900  0.33542900  1
  H  2176  1  0.44099200  0.76413100  0.33630200  1
  H  2177  1  0.40001800  0.71883800  0.28282700  1
  H  2178  1  0.43981500  0.71671100  0.28399200  1
  H  2251  1  0.44062500  0.21375200  0.83097100  1
  H  2252  1  0.40068300  0.21489500  0.83260500  1
  H  2253  1  0.44012500  0.26568400  0.78312300  1
  H  2254  1  0.40032800  0.26710500  0.78493200  1
  H  2255  1  0.36804700  0.24354900  0.77360800  1
  H  2256  1  0.32808500  0.24426000  0.77368900  1
  H  2257  1  0.36807800  0.23856200  0.84416300  1
  H  2258  1  0.32802600  0.23880000  0.84408800  1
  H  2259  1  0.31637400  0.19682900  0.80855800  1
  H  2260  1  0.28639300  0.16686400  0.80800200  1
  H  2261  1  0.25545200  0.22780400  0.80827000  1
  H  2262  1  0.22777700  0.25548400  0.80818600  1
  H  2263  1  0.31708600  0.28700500  0.80854400  1
  H  2264  1  0.28699800  0.31710300  0.80780600  1
  H  2265  1  0.23824300  0.32800600  0.77245700  1
  H  2266  1  0.23803700  0.36805300  0.77231300  1
  H  2267  1  0.24481000  0.32818300  0.84275900  1
  H  2268  1  0.24412500  0.36814100  0.84278200  1
  H  2269  1  0.19681400  0.31641200  0.80811400  1
  H  2270  1  0.16684600  0.28643600  0.80864300  1
  H  2271  1  0.19622900  0.16617500  0.80788200  1
  H  2272  1  0.16614000  0.19626500  0.80860600  1
  H  2273  1  0.15524100  0.24462300  0.84407500  1
  H  2274  1  0.11518700  0.24466200  0.84418200  1
  H  2275  1  0.15515200  0.23872100  0.77370500  1
  H  2276  1  0.11518700  0.23922500  0.77365400  1
  H  2277  1  0.08305680  0.21552100  0.78522400  1
  H  2278  1  0.04324880  0.21678500  0.78339800  1
  H  2279  1  0.04256480  0.26915800  0.83077100  1
  H  2280  1  0.08250980  0.26818300  0.83240700  1
  H  2281  1  0.24433700  0.15527700  0.77242200  1
  H  2282  1  0.24439800  0.11522200  0.77231300  1
  H  2283  1  0.21567700  0.08307580  0.83143700  1
  H  2284  1  0.21697400  0.04326780  0.83324900  1
  H  2285  1  0.26907400  0.04261980  0.78557500  1
  H  2286  1  0.26805400  0.08256680  0.78393600  1
  H  2287  1  0.23946400  0.11521300  0.84287600  1
  H  2288  1  0.23893500  0.15518000  0.84283100  1
  H  2289  1  0.26739800  0.40041500  0.83116700  1
  H  2290  1  0.26597500  0.44021400  0.83295600  1
  H  2291  1  0.21466700  0.40070800  0.78406500  1
  H  2292  1  0.21355900  0.44065000  0.78563900  1
  H  2300  1  0.22698700  0.68385700  0.54367700  1
  H  2301  1  0.22730200  0.69675600  0.51917500  1
  H  2302  1  0.23235000  0.70310900  0.57806400  1
  H  2310  1  0.25503200  0.68378700  0.07204430  1
  H  2311  1  0.25479200  0.69669200  0.09654030  1
  H  2312  1  0.24991500  0.70307400  0.03763530  1
  H  2320  1  0.47758500  0.22707100  0.75074400  1
  H  2321  1  0.45305900  0.22750600  0.76359100  1
  H  2322  1  0.51195200  0.23235500  0.77004800  1
  H  2330  1  0.00577876  0.25537500  0.75072800  1
  H  2331  1  0.03029980  0.25496000  0.76359300  1
  H  2332  1  0.97139700  0.25013400  0.77003200  1
  H  2340  1  0.68389000  0.47753600  0.29407900  1
  H  2341  1  0.69679100  0.45303600  0.29435300  1
  H  2342  1  0.70314100  0.51191700  0.29942100  1
  H  2350  1  0.68383000  0.00588776  0.32216000  1
  H  2351  1  0.69672700  0.03038880  0.32186500  1
  H  2352  1  0.70312400  0.97147800  0.31700300  1
  H  2360  1  0.68450500  0.22571200  0.07299630  1
  H  2361  1  0.69746400  0.22645700  0.09746530  1
  H  2362  1  0.70355900  0.23138400  0.03850430  1
  H  2370  1  0.68385200  0.25518400  0.54442900  1
  H  2371  1  0.69678300  0.25495600  0.51994300  1
  H  2372  1  0.70309400  0.24996500  0.57883600  1
  H  2380  1  0.22702600  0.47750800  0.86557900  1
  H  2381  1  0.22757000  0.45300000  0.85269200  1
  H  2382  1  0.23228800  0.51192500  0.84633900  1
  H  2390  1  0.25552700  0.00578276  0.86574800  1
  H  2391  1  0.25507100  0.03031680  0.85291600  1
  H  2392  1  0.25035300  0.97140400  0.84639800  1
  H  2400  1  0.47747800  0.68386400  0.32212700  1
  H  2401  1  0.45298700  0.69678800  0.32184300  1
  H  2402  1  0.51189000  0.70310900  0.31692800  1
  H  2410  1  0.00602976  0.68450500  0.29261400  1
  H  2411  1  0.03049880  0.69746700  0.29331200  1
  H  2412  1  0.97154600  0.70356100  0.29831500  1
  C  1  1  0.00702900  0.56546400  0.46480900  1
  C  2  1  0.00692500  0.54913700  0.44848500  1
  C  3  1  0.00671000  0.52822600  0.45897200  1
  C  5  1  0.00727300  0.55498300  0.48572200  1
  C  6  1  0.00755400  0.56635900  0.50667800  1
  C  7  1  0.00762800  0.55553900  0.52787800  1
  C  9  1  0.00768700  0.52898300  0.55448400  1
  C  10  1  0.00770400  0.54984200  0.56504800  1
  C  11  1  0.00789500  0.56615500  0.54870300  1
  C  12  1  0.00759900  0.50779400  0.56534000  1
  C  13  1  0.00725900  0.48682300  0.55394200  1
  C  15  1  0.00674000  0.46002100  0.52714500  1
  C  16  1  0.00670600  0.44956600  0.54807100  1
  C  17  1  0.00726700  0.46589900  0.56440100  1
  C  18  1  0.00640700  0.44861800  0.50617600  1
  C  19  1  0.00632600  0.45947000  0.48498500  1
  C  21  1  0.00639700  0.48607000  0.45842400  1
  C  22  1  0.00614500  0.46524100  0.44781200  1
  C  23  1  0.00633800  0.44890100  0.46412800  1
  C  24  1  0.00645300  0.50726900  0.44760100  1
  C  25  1  0.00640700  0.50749500  0.42365400  1
  C  26  1  0.02600600  0.50219400  0.41153300  1
  C  27  1  0.02589800  0.50209700  0.38797500  1
  C  28  1  0.00634600  0.50767000  0.37577700  1
  C  29  1  0.98686300  0.51332900  0.38803500  1
  C  30  1  0.98682000  0.51304900  0.41160900  1
  C  31  1  0.00612500  0.50697600  0.35185900  1
  C  32  1  0.99703700  0.52467300  0.33899500  1
  C  33  1  0.99672600  0.52370200  0.31541800  1
  C  34  1  0.00500200  0.50477500  0.30379100  1
  C  35  1  0.01425200  0.48719100  0.31673900  1
  C  36  1  0.01487800  0.48829300  0.34025100  1
  C  37  1  0.00632000  0.42464000  0.50631000  1
  C  38  1  0.02587700  0.41252900  0.51180800  1
  C  39  1  0.02578300  0.38896100  0.51202900  1
  C  40  1  0.00630300  0.37670600  0.50632500  1
  C  41  1  0.98685300  0.38894100  0.50050700  1
  C  42  1  0.98679000  0.41252100  0.50068400  1
  C  43  1  0.00612400  0.35277000  0.50700400  1
  C  44  1  0.01471700  0.34115300  0.52575400  1
  C  45  1  0.01413000  0.31763100  0.52683000  1
  C  46  1  0.00507900  0.30465800  0.50915700  1
  C  47  1  0.99697500  0.31629700  0.49016000  1
  C  48  1  0.99723300  0.33988200  0.48921600  1
  C  49  1  0.00766600  0.50766400  0.58931700  1
  C  50  1  0.98808700  0.50220600  0.60141200  1
  C  51  1  0.98816700  0.50196800  0.62497900  1
  C  52  1  0.00765600  0.50760300  0.63725400  1
  C  53  1  0.02712500  0.51338900  0.62503300  1
  C  54  1  0.02720400  0.51322200  0.60145100  1
  C  55  1  0.00781600  0.50691200  0.66119400  1
  C  56  1  0.01681600  0.52463600  0.67409100  1
  C  57  1  0.01706300  0.52368400  0.69767400  1
  C  58  1  0.00882100  0.50474500  0.70931100  1
  C  59  1  0.99965300  0.48713600  0.69633100  1
  C  60  1  0.99907900  0.48822600  0.67280900  1
  C  61  1  0.00758900  0.59030600  0.50644500  1
  C  62  1  0.98798600  0.60241600  0.51175400  1
  C  63  1  0.02716100  0.60236100  0.50086200  1
  C  64  1  0.02710200  0.62593500  0.50057400  1
  C  65  1  0.00761600  0.63818200  0.50623600  1
  C  66  1  0.98807800  0.62597500  0.51183600  1
  C  67  1  0.00782200  0.66210100  0.50693200  1
  C  68  1  0.99909100  0.67369600  0.52563400  1
  C  69  1  0.99971000  0.69720600  0.52674800  1
  C  70  1  0.00892900  0.71016800  0.50915800  1
  C  71  1  0.01717800  0.69855600  0.49021100  1
  C  72  1  0.01688800  0.67498000  0.48923200  1
  C  115  1  0.46585200  0.00620900  0.56548700  1
  C  116  1  0.44951400  0.00643500  0.54916400  1
  C  117  1  0.45996900  0.00636500  0.52823600  1
  C  119  1  0.48676100  0.00641200  0.55500300  1
  C  120  1  0.50772900  0.00645300  0.56637900  1
  C  121  1  0.52891700  0.00676800  0.55555500  1
  C  123  1  0.55547700  0.00742700  0.52900600  1
  C  124  1  0.56607800  0.00721500  0.54984300  1
  C  125  1  0.54975100  0.00704900  0.56616300  1
  C  126  1  0.56630700  0.00772000  0.50782300  1
  C  127  1  0.55493800  0.00772500  0.48685000  1
  C  129  1  0.52818400  0.00771600  0.46004500  1
  C  130  1  0.54911700  0.00762500  0.44960100  1
  C  131  1  0.56543300  0.00786800  0.46594800  1
  C  132  1  0.50722800  0.00761400  0.44863700  1
  C  133  1  0.48602600  0.00729400  0.45948200  1
  C  135  1  0.45942200  0.00676800  0.48607800  1
  C  136  1  0.44884600  0.00675100  0.46522800  1
  C  137  1  0.46517800  0.00730500  0.44890000  1
  C  138  1  0.44857000  0.00645000  0.50727500  1
  C  139  1  0.42459300  0.00640800  0.50750300  1
  C  140  1  0.41244600  0.02598400  0.50215100  1
  C  141  1  0.38887900  0.02587700  0.50204500  1
  C  142  1  0.37665900  0.00635600  0.50768900  1
  C  143  1  0.38893600  0.98689800  0.51340300  1
  C  144  1  0.41251800  0.98685300  0.51312300  1
  C  145  1  0.35272300  0.00613700  0.50698700  1
  C  146  1  0.33982700  0.99709100  0.52469100  1
  C  147  1  0.31624200  0.99680000  0.52371600  1
  C  148  1  0.30461300  0.00504300  0.50477300  1
  C  149  1  0.31759100  0.01423700  0.48717800  1
  C  150  1  0.34110700  0.01485600  0.48829100  1
  C  151  1  0.50746100  0.00763500  0.42466000  1
  C  152  1  0.51310500  0.02717700  0.41257100  1
  C  153  1  0.51337100  0.02712000  0.38898900  1
  C  154  1  0.50763000  0.00766500  0.37672300  1
  C  155  1  0.50195800  0.98816000  0.38895400  1
  C  156  1  0.50207400  0.98806300  0.41252100  1
  C  157  1  0.50694400  0.00786900  0.35278300  1
  C  158  1  0.52465800  0.01690700  0.33989900  1
  C  159  1  0.52370400  0.01718700  0.31631400  1
  C  160  1  0.50477200  0.00894500  0.30466300  1
  C  161  1  0.48716800  0.99975500  0.31763400  1
  C  162  1  0.48825200  0.99916100  0.34115400  1
  C  163  1  0.59025500  0.00776300  0.50769900  1
  C  164  1  0.60230400  0.98814500  0.50230300  1
  C  165  1  0.62586600  0.98819700  0.50209700  1
  C  166  1  0.63813600  0.00769400  0.50770200  1
  C  167  1  0.62595000  0.02720300  0.51342100  1
  C  168  1  0.60237800  0.02730700  0.51324000  1
  C  169  1  0.66205400  0.00783900  0.50699700  1
  C  170  1  0.67495300  0.01682400  0.52472500  1
  C  171  1  0.69852800  0.01708600  0.52373900  1
  C  172  1  0.71012500  0.00885700  0.50477200  1
  C  173  1  0.69714100  0.99969700  0.48716600  1
  C  174  1  0.67362700  0.99912100  0.48828100  1
  C  175  1  0.50759800  0.00635600  0.59032900  1
  C  176  1  0.51330700  0.98682600  0.60239800  1
  C  177  1  0.50204300  0.02589800  0.60243100  1
  C  178  1  0.50186400  0.02579000  0.62599300  1
  C  179  1  0.50765700  0.00631100  0.63819900  1
  C  180  1  0.51351800  0.98687700  0.62596800  1
  C  181  1  0.50703300  0.00610900  0.66210700  1
  C  182  1  0.52498800  0.99745900  0.67491600  1
  C  183  1  0.52408900  0.99712900  0.69849300  1
  C  184  1  0.50498400  0.00491700  0.71016800  1
  C  185  1  0.48714800  0.01374400  0.69726800  1
  C  186  1  0.48817400  0.01440800  0.67375300  1
  C  229  1  0.56547500  0.46587900  0.00620600  1
  C  230  1  0.54915400  0.44954100  0.00643200  1
  C  231  1  0.52822600  0.45999600  0.00638000  1
  C  233  1  0.55499300  0.48678800  0.00641800  1
  C  234  1  0.56637100  0.50775600  0.00645800  1
  C  235  1  0.55554500  0.52894400  0.00677800  1
  C  237  1  0.52899600  0.55550400  0.00743300  1
  C  238  1  0.54983500  0.56610500  0.00721800  1
  C  239  1  0.56615300  0.54977800  0.00706500  1
  C  240  1  0.50781300  0.56633600  0.00770700  1
  C  241  1  0.48684000  0.55496600  0.00769800  1
  C  243  1  0.46003600  0.52821300  0.00770000  1
  C  244  1  0.44959100  0.54914500  0.00759200  1
  C  245  1  0.46593800  0.56546200  0.00783100  1
  C  246  1  0.44862700  0.50725700  0.00761200  1
  C  247  1  0.45947200  0.48605500  0.00730900  1
  C  249  1  0.48606700  0.45945000  0.00679300  1
  C  250  1  0.46521600  0.44887500  0.00678600  1
  C  251  1  0.44889000  0.46520800  0.00733100  1
  C  252  1  0.50726500  0.44859700  0.00647200  1
  C  253  1  0.50748800  0.42462100  0.00642700  1
  C  254  1  0.50214600  0.41247100  0.02600200  1
  C  255  1  0.50203200  0.38890200  0.02588800  1
  C  256  1  0.50766500  0.37668800  0.00636100  1
  C  257  1  0.51336200  0.38896900  0.98690300  1
  C  258  1  0.51309300  0.41254900  0.98686500  1
  C  259  1  0.50698100  0.35274900  0.00614200  1
  C  260  1  0.52467800  0.33987200  0.99706100  1
  C  261  1  0.52372400  0.31628900  0.99676500  1
  C  262  1  0.50480500  0.30463700  0.00503400  1
  C  263  1  0.48721600  0.31759600  0.01426500  1
  C  264  1  0.48830800  0.34111600  0.01488500  1
  C  265  1  0.42465000  0.50749100  0.00763100  1
  C  266  1  0.41255900  0.51314300  0.02716800  1
  C  267  1  0.38897800  0.51342300  0.02710500  1
  C  268  1  0.37671500  0.50765700  0.00765400  1
  C  269  1  0.38894700  0.50198000  0.98815200  1
  C  270  1  0.41251600  0.50209500  0.98806000  1
  C  271  1  0.35277500  0.50696400  0.00785600  1
  C  272  1  0.33988400  0.52468500  0.01687300  1
  C  273  1  0.31630000  0.52372600  0.01714700  1
  C  274  1  0.30465700  0.50478200  0.00892200  1
  C  275  1  0.31763400  0.48717000  0.99975700  1
  C  276  1  0.34115300  0.48826600  0.99915000  1
  C  277  1  0.50768900  0.59028400  0.00774500  1
  C  278  1  0.50228400  0.60233100  0.98812900  1
  C  279  1  0.50207700  0.62589100  0.98817500  1
  C  280  1  0.50768000  0.63816400  0.00767200  1
  C  281  1  0.51340300  0.62598100  0.02718100  1
  C  282  1  0.51323200  0.60241000  0.02728700  1
  C  283  1  0.50699100  0.66208200  0.00780900  1
  C  284  1  0.52472300  0.67497000  0.01679900  1
  C  285  1  0.52375900  0.69854600  0.01704500  1
  C  286  1  0.50479700  0.71015700  0.00882700  1
  C  287  1  0.48718300  0.69718400  0.99966300  1
  C  288  1  0.48828100  0.67366900  0.99909100  1
  C  289  1  0.59031900  0.50762500  0.00635800  1
  C  290  1  0.60238500  0.51333600  0.98682600  1
  C  291  1  0.60242600  0.50206200  0.02589600  1
  C  292  1  0.62598800  0.50187100  0.02578000  1
  C  293  1  0.63818900  0.50767700  0.00630100  1
  C  294  1  0.62595600  0.51356000  0.98687500  1
  C  295  1  0.66209900  0.50704900  0.00609200  1
  C  296  1  0.67490800  0.52500100  0.99743700  1
  C  297  1  0.69848300  0.52409700  0.99709300  1
  C  298  1  0.71016000  0.50499600  0.00488400  1
  C  299  1  0.69726100  0.48716100  0.01371700  1
  C  300  1  0.67374600  0.48818900  0.01438800  1
  C  343  1  0.50931400  0.06481000  0.96503700  1
  C  344  1  0.50934900  0.04828000  0.94888300  1
  C  345  1  0.50928700  0.02749600  0.95961600  1
  C  347  1  0.50932900  0.05455700  0.98606200  1
  C  348  1  0.50928000  0.06613000  0.00690500  1
  C  349  1  0.50923500  0.05559000  0.02823300  1
  C  351  1  0.50929200  0.02933700  0.05509700  1
  C  352  1  0.50908500  0.05028700  0.06547000  1
  C  353  1  0.50910000  0.06644000  0.04894200  1
  C  354  1  0.50932600  0.00825700  0.06612100  1
  C  355  1  0.50932700  0.98715600  0.05501900  1
  C  357  1  0.50931400  0.96010100  0.02856400  1
  C  358  1  0.50925200  0.94984000  0.04958400  1
  C  359  1  0.50932100  0.96636600  0.06574200  1
  C  360  1  0.50922200  0.94853500  0.00771900  1
  C  361  1  0.50914800  0.95906700  0.98639100  1
  C  363  1  0.50919300  0.98531200  0.95953900  1
  C  364  1  0.50895200  0.96436400  0.94915900  1
  C  365  1  0.50898200  0.94821300  0.96568300  1
  C  366  1  0.50925400  0.00639200  0.94852300  1
  C  367  1  0.50910000  0.00629900  0.92462000  1
  C  368  1  0.52921200  0.00416900  0.91239200  1
  C  369  1  0.52896100  0.00400200  0.88881300  1
  C  370  1  0.50866800  0.00603300  0.87668800  1
  C  371  1  0.48859400  0.00808900  0.88919300  1
  C  372  1  0.48876100  0.00821300  0.91275300  1
  C  373  1  0.50834000  0.00592800  0.85267600  1
  C  374  1  0.49428600  0.02072900  0.84059900  1
  C  375  1  0.49314300  0.02007800  0.81708500  1
  C  376  1  0.50591600  0.00446200  0.80473400  1
  C  377  1  0.52065800  0.99024400  0.81655000  1
  C  378  1  0.52171600  0.99087700  0.84011300  1
  C  379  1  0.50899600  0.92463500  0.00815600  1
  C  380  1  0.52911700  0.91236500  0.00996800  1
  C  381  1  0.52882000  0.88878700  0.01010600  1
  C  382  1  0.50847700  0.87671600  0.00830300  1
  C  383  1  0.48839500  0.88925400  0.00658900  1
  C  384  1  0.48860700  0.91281200  0.00652700  1
  C  385  1  0.50810500  0.85271300  0.00823700  1
  C  386  1  0.52147600  0.84002800  0.02318200  1
  C  387  1  0.52033300  0.81646400  0.02367500  1
  C  388  1  0.50555000  0.80476700  0.00939200  1
  C  389  1  0.49285500  0.81726100  0.99382200  1
  C  390  1  0.49403000  0.84077900  0.99334700  1
  C  391  1  0.50911600  0.00833100  0.09003300  1
  C  392  1  0.48874500  0.00649000  0.10185400  1
  C  393  1  0.48852500  0.00646900  0.12541800  1
  C  394  1  0.50858200  0.00831100  0.13798200  1
  C  395  1  0.52891200  0.01029800  0.12590800  1
  C  396  1  0.52921500  0.01024700  0.10232500  1
  C  397  1  0.50819900  0.00825300  0.16200100  1
  C  398  1  0.52155300  0.02320500  0.17470200  1
  C  399  1  0.52038300  0.02372300  0.19826900  1
  C  400  1  0.50560300  0.00944800  0.20998100  1
  C  401  1  0.49292400  0.99387300  0.19747200  1
  C  402  1  0.49412000  0.99337500  0.17395000  1
  C  403  1  0.50905800  0.09003500  0.00644700  1
  C  404  1  0.48864700  0.10185500  0.00782600  1
  C  405  1  0.52917900  0.10231900  0.00472800  1
  C  406  1  0.52886200  0.12590000  0.00444800  1
  C  407  1  0.50849900  0.13797300  0.00601500  1
  C  408  1  0.48841800  0.12541800  0.00763200  1
  C  409  1  0.50810400  0.16198700  0.00596000  1
  C  410  1  0.49386300  0.17398200  0.02064300  1
  C  411  1  0.49268900  0.19750100  0.02007100  1
  C  412  1  0.50553800  0.20996100  0.00459600  1
  C  413  1  0.52047000  0.19820000  0.99051700  1
  C  414  1  0.52163900  0.17463500  0.99112800  1
  C  457  1  0.96504400  0.50932100  0.06413200  1
  C  458  1  0.94888800  0.50935200  0.04760700  1
  C  459  1  0.95961800  0.50927000  0.02681900  1
  C  461  1  0.98606500  0.50931700  0.05387100  1
  C  462  1  0.00690900  0.50927200  0.06543500  1
  C  463  1  0.02823800  0.50923700  0.05490400  1
  C  465  1  0.05510100  0.50931200  0.02865900  1
  C  466  1  0.06547200  0.50909800  0.04961100  1
  C  467  1  0.04894300  0.50910100  0.06576000  1
  C  468  1  0.06612200  0.50935200  0.00758000  1
  C  469  1  0.05501900  0.50934400  0.98647800  1
  C  471  1  0.02856400  0.50931700  0.95941500  1
  C  472  1  0.04958700  0.50924200  0.94916100  1
  C  473  1  0.06574400  0.50931600  0.96569000  1
  C  474  1  0.00772100  0.50922800  0.94783800  1
  C  475  1  0.98639500  0.50915300  0.95838100  1
  C  477  1  0.95954100  0.50918500  0.98463600  1
  C  478  1  0.94915900  0.50895400  0.96369000  1
  C  479  1  0.96568100  0.50899200  0.94753600  1
  C  480  1  0.94852600  0.50923300  0.00571700  1
  C  481  1  0.92462100  0.50908100  0.00564300  1
  C  482  1  0.91239400  0.52920000  0.00355800  1
  C  483  1  0.88881700  0.52896100  0.00349600  1
  C  484  1  0.87668900  0.50867600  0.00560200  1
  C  485  1  0.88919200  0.48859900  0.00762600  1
  C  486  1  0.91275300  0.48875300  0.00763300  1
  C  487  1  0.85267600  0.50836000  0.00559300  1
  C  488  1  0.84064900  0.49432500  0.02045400  1
  C  489  1  0.81713200  0.49318100  0.01988200  1
  C  490  1  0.80472900  0.50593800  0.00429400  1
  C  491  1  0.81649900  0.52065600  0.99001500  1
  C  492  1  0.84006300  0.52173700  0.99058500  1
  C  493  1  0.00815800  0.50899900  0.92393000  1
  C  494  1  0.01003400  0.52910800  0.91165100  1
  C  495  1  0.01017000  0.52880900  0.88806700  1
  C  496  1  0.00830100  0.50847400  0.87598600  1
  C  497  1  0.00652900  0.48840300  0.88853900  1
  C  498  1  0.00646700  0.48861700  0.91210200  1
  C  499  1  0.00822700  0.50810000  0.85197100  1
  C  500  1  0.02315500  0.52147500  0.83926600  1
  C  501  1  0.02363600  0.52033200  0.81569600  1
  C  502  1  0.00936200  0.50554300  0.80399200  1
  C  503  1  0.99381200  0.49284000  0.81651100  1
  C  504  1  0.99334700  0.49401700  0.84003300  1
  C  505  1  0.09003500  0.50913800  0.00766900  1
  C  506  1  0.10185100  0.48875600  0.00590400  1
  C  507  1  0.12541500  0.48852500  0.00598300  1
  C  508  1  0.13798300  0.50857600  0.00787700  1
  C  509  1  0.12591200  0.52891200  0.00979400  1
  C  510  1  0.10233000  0.52923000  0.00963300  1
  C  511  1  0.16200100  0.50817400  0.00793000  1
  C  512  1  0.17464800  0.52153300  0.02292200  1
  C  513  1  0.19821500  0.52037500  0.02351700  1
  C  514  1  0.20997800  0.50558300  0.00929500  1
  C  515  1  0.19752200  0.49287800  0.99369500  1
  C  516  1  0.17400400  0.49407700  0.99311100  1
  C  517  1  0.00645200  0.50904600  0.08933200  1
  C  518  1  0.00776700  0.48862700  0.10113900  1
  C  519  1  0.00479700  0.52917400  0.10161100  1
  C  520  1  0.00451700  0.52885600  0.12518800  1
  C  521  1  0.00601500  0.50847900  0.13724500  1
  C  522  1  0.00756800  0.48839100  0.12469800  1
  C  523  1  0.00595300  0.50808000  0.16124600  1
  C  524  1  0.02064100  0.49383900  0.17323200  1
  C  525  1  0.02005200  0.49265300  0.19674400  1
  C  526  1  0.00455400  0.50549000  0.20918600  1
  C  527  1  0.99047500  0.52042700  0.19743700  1
  C  528  1  0.99109800  0.52160200  0.17387700  1
  C  571  1  0.06525000  0.96570000  0.50720500  1
  C  572  1  0.04890700  0.94936500  0.50685000  1
  C  573  1  0.02800600  0.95986700  0.50672300  1
  C  575  1  0.05476000  0.98660900  0.50731700  1
  C  576  1  0.06610100  0.00757800  0.50753600  1
  C  577  1  0.05532600  0.02878700  0.50725900  1
  C  579  1  0.02876800  0.05535300  0.50672800  1
  C  580  1  0.04960200  0.06595900  0.50673100  1
  C  581  1  0.06594000  0.04961700  0.50715500  1
  C  582  1  0.00756100  0.06613400  0.50648000  1
  C  583  1  0.98659000  0.05479500  0.50673300  1
  C  585  1  0.95984400  0.02804300  0.50731000  1
  C  586  1  0.94934500  0.04894700  0.50724700  1
  C  587  1  0.96568300  0.06528700  0.50690900  1
  C  588  1  0.94851000  0.00707100  0.50752600  1
  C  589  1  0.95927600  0.98586200  0.50724700  1
  C  591  1  0.98582600  0.95930800  0.50672800  1
  C  592  1  0.96499500  0.94869200  0.50677500  1
  C  593  1  0.94865900  0.96503200  0.50718700  1
  C  594  1  0.00703300  0.94853800  0.50647900  1
  C  595  1  0.00723400  0.92463600  0.50636500  1
  C  596  1  0.00575900  0.91257100  0.52661900  1
  C  597  1  0.00590100  0.88901300  0.52655100  1
  C  598  1  0.00753900  0.87671800  0.50631500  1
  C  599  1  0.00918000  0.88903100  0.48610200  1
  C  600  1  0.00897600  0.91261500  0.48608800  1
  C  601  1  0.00760700  0.85271400  0.50643500  1
  C  602  1  0.02257000  0.84023500  0.49288900  1
  C  603  1  0.02325400  0.81666700  0.49387400  1
  C  604  1  0.00913900  0.80476400  0.50865300  1
  C  605  1  0.99352900  0.81705200  0.52149800  1
  C  606  1  0.99287000  0.84056800  0.52049100  1
  C  607  1  0.92460600  0.00727400  0.50763500  1
  C  608  1  0.91257900  0.00915000  0.52789700  1
  C  609  1  0.88899600  0.00933300  0.52788000  1
  C  610  1  0.87668400  0.00754100  0.50768000  1
  C  611  1  0.88898200  0.00575700  0.48745700  1
  C  612  1  0.91254100  0.00564700  0.48739100  1
  C  613  1  0.85267700  0.00758700  0.50756000  1
  C  614  1  0.84018800  0.02261000  0.52102900  1
  C  615  1  0.81661800  0.02328100  0.52002900  1
  C  616  1  0.80472500  0.00907100  0.50533200  1
  C  617  1  0.81702500  0.99340600  0.49256500  1
  C  618  1  0.84054300  0.99276300  0.49358800  1
  C  619  1  0.00734400  0.09004700  0.50634500  1
  C  620  1  0.00520800  0.10205700  0.48609800  1
  C  621  1  0.00490500  0.12564200  0.48609700  1
  C  622  1  0.00683700  0.13799600  0.50626300  1
  C  623  1  0.00886400  0.12570800  0.52647400  1
  C  624  1  0.00909800  0.10214700  0.52655900  1
  C  625  1  0.00668400  0.16201800  0.50636100  1
  C  626  1  0.02148100  0.17424000  0.52029100  1
  C  627  1  0.02075000  0.19776000  0.52128600  1
  C  628  1  0.00504400  0.20999800  0.50850900  1
  C  629  1  0.99087300  0.19802800  0.49383600  1
  C  630  1  0.99159800  0.17445100  0.49290400  1
  C  631  1  0.09001100  0.00735500  0.50763700  1
  C  632  1  0.10207500  0.00878000  0.48737500  1
  C  633  1  0.10205300  0.00553100  0.52789700  1
  C  634  1  0.12563800  0.00521800  0.52786100  1
  C  635  1  0.13795300  0.00681200  0.50764400  1
  C  636  1  0.12563500  0.00852500  0.48742400  1
  C  637  1  0.16197000  0.00664300  0.50750300  1
  C  638  1  0.17417000  0.02128600  0.49339400  1
  C  639  1  0.19769000  0.02055100  0.49238300  1
  C  640  1  0.20994900  0.00496200  0.50528700  1
  C  641  1  0.19798900  0.99093700  0.52011200  1
  C  642  1  0.17441700  0.99169500  0.52109800  1
  C  685  1  0.00411400  0.50354300  0.27989800  1
  C  686  1  0.00077800  0.48329300  0.26811600  1
  C  687  1  0.00004200  0.48286700  0.24444200  1
  C  688  1  0.00330200  0.50343800  0.23287800  1
  C  695  1  0.00967400  0.50352600  0.73322800  1
  C  696  1  0.01290500  0.48327800  0.74504600  1
  C  697  1  0.01366500  0.48287200  0.76872500  1
  C  698  1  0.01051700  0.50346400  0.78028300  1
  C  705  1  0.28070300  0.00418400  0.50352600  1
  C  706  1  0.26893600  0.00083500  0.48327000  1
  C  707  1  0.24525700  0.00017400  0.48279800  1
  C  708  1  0.23365200  0.00353100  0.50333200  1
  C  715  1  0.73402000  0.00971200  0.50352000  1
  C  716  1  0.74578200  0.01304900  0.48326000  1
  C  717  1  0.76945800  0.01372300  0.48279800  1
  C  718  1  0.78103800  0.01042400  0.50335100  1
  C  725  1  0.50358500  0.28072500  0.00415600  1
  C  726  1  0.48333700  0.26892200  0.00087300  1
  C  727  1  0.48291200  0.24524300  0.00013500  1
  C  728  1  0.50348600  0.23367000  0.00335200  1
  C  735  1  0.50356300  0.73405500  0.00969600  1
  C  736  1  0.48331300  0.74584600  0.01300300  1
  C  737  1  0.48289800  0.76952000  0.01376400  1
  C  738  1  0.50347900  0.78107500  0.01055300  1
  C  745  1  0.50383600  0.00397300  0.73406200  1
  C  746  1  0.48370300  0.00014000  0.74589300  1
  C  747  1  0.48335400  0.99941400  0.76956700  1
  C  748  1  0.50387600  0.00314300  0.78106300  1
  C  755  1  0.50356000  0.00980600  0.28074500  1
  C  756  1  0.48331200  0.01300200  0.26891700  1
  C  757  1  0.48291000  0.01373900  0.24523700  1
  C  758  1  0.50351300  0.01063100  0.23368800  1
  C  765  1  0.00423100  0.28074300  0.51036700  1
  C  766  1  0.00082200  0.26893700  0.53059300  1
  C  767  1  0.00019400  0.24525800  0.53102600  1
  C  768  1  0.00361200  0.23369500  0.51048200  1
  C  775  1  0.00980500  0.73405800  0.51041500  1
  C  776  1  0.01320400  0.74580400  0.53067300  1
  C  777  1  0.01388900  0.76947800  0.53114500  1
  C  778  1  0.01050600  0.78107300  0.51061400  1
  C  785  1  0.28074000  0.50356800  0.00977300  1
  C  786  1  0.26891400  0.48332200  0.01299000  1
  C  787  1  0.24523300  0.48291300  0.01370200  1
  C  788  1  0.23368200  0.50350800  0.01054000  1
  C  795  1  0.73405300  0.50384400  0.00392600  1
  C  796  1  0.74588300  0.48370800  0.00010400  1
  C  797  1  0.76955700  0.48335900  0.99935200  1
  C  798  1  0.78105500  0.50388800  0.00303900  1
  C  805  1  0.12418500  0.68262000  0.61543900  1
  C  806  1  0.12408100  0.66629300  0.59911500  1
  C  807  1  0.12386600  0.64538200  0.60960200  1
  C  809  1  0.12442900  0.67213900  0.63635200  1
  C  810  1  0.12471000  0.68351500  0.65730800  1
  C  811  1  0.12478400  0.67269500  0.67850800  1
  C  813  1  0.12484300  0.64613900  0.70511400  1
  C  814  1  0.12486000  0.66699800  0.71567800  1
  C  815  1  0.12505100  0.68331100  0.69933300  1
  C  816  1  0.12475500  0.62495000  0.71597000  1
  C  817  1  0.12441500  0.60397900  0.70457200  1
  C  819  1  0.12389600  0.57717700  0.67777500  1
  C  820  1  0.12386200  0.56672200  0.69870100  1
  C  821  1  0.12442300  0.58305500  0.71503100  1
  C  822  1  0.12356300  0.56577400  0.65680600  1
  C  823  1  0.12348200  0.57662600  0.63561500  1
  C  825  1  0.12355300  0.60322600  0.60905400  1
  C  826  1  0.12330100  0.58239700  0.59844200  1
  C  827  1  0.12349400  0.56605700  0.61475800  1
  C  828  1  0.12360900  0.62442500  0.59823100  1
  C  829  1  0.12356300  0.62465100  0.57428400  1
  C  830  1  0.14316200  0.61935000  0.56216300  1
  C  831  1  0.14305400  0.61925300  0.53860500  1
  C  832  1  0.12350200  0.62482600  0.52640700  1
  C  833  1  0.10401900  0.63048500  0.53866500  1
  C  834  1  0.10397600  0.63020500  0.56223900  1
  C  835  1  0.12328100  0.62413200  0.50248900  1
  C  836  1  0.11419300  0.64182900  0.48962500  1
  C  837  1  0.11388200  0.64085800  0.46604800  1
  C  838  1  0.12215800  0.62193100  0.45442100  1
  C  839  1  0.13140800  0.60434700  0.46736900  1
  C  840  1  0.13203400  0.60544900  0.49088100  1
  C  841  1  0.12347600  0.54179600  0.65694000  1
  C  842  1  0.14303300  0.52968500  0.66243800  1
  C  843  1  0.14293900  0.50611700  0.66265900  1
  C  844  1  0.12345900  0.49386200  0.65695500  1
  C  845  1  0.10400900  0.50609700  0.65113700  1
  C  846  1  0.10394600  0.52967700  0.65131400  1
  C  847  1  0.12328000  0.46992600  0.65763400  1
  C  848  1  0.13187300  0.45830900  0.67638400  1
  C  849  1  0.13128600  0.43478700  0.67746000  1
  C  850  1  0.12223500  0.42181400  0.65978700  1
  C  851  1  0.11413100  0.43345300  0.64079000  1
  C  852  1  0.11438900  0.45703800  0.63984600  1
  C  853  1  0.12482200  0.62482000  0.73994700  1
  C  854  1  0.10524300  0.61936200  0.75204200  1
  C  855  1  0.10532300  0.61912400  0.77560900  1
  C  856  1  0.12481200  0.62475900  0.78788400  1
  C  857  1  0.14428100  0.63054500  0.77566300  1
  C  858  1  0.14436000  0.63037800  0.75208100  1
  C  859  1  0.12497200  0.62406800  0.81182400  1
  C  860  1  0.13397200  0.64179200  0.82472100  1
  C  861  1  0.13421900  0.64084000  0.84830400  1
  C  862  1  0.12597700  0.62190100  0.85994100  1
  C  863  1  0.11680900  0.60429200  0.84696100  1
  C  864  1  0.11623500  0.60538200  0.82343900  1
  C  865  1  0.12474500  0.70746200  0.65707500  1
  C  866  1  0.10514200  0.71957200  0.66238400  1
  C  867  1  0.14431700  0.71951700  0.65149200  1
  C  868  1  0.14425800  0.74309100  0.65120400  1
  C  869  1  0.12477200  0.75533800  0.65686600  1
  C  870  1  0.10523400  0.74313100  0.66246600  1
  C  871  1  0.12497800  0.77925700  0.65756200  1
  C  872  1  0.11624700  0.79085200  0.67626400  1
  C  873  1  0.11686600  0.81436200  0.67737800  1
  C  874  1  0.12608500  0.82732400  0.65978800  1
  C  875  1  0.13433400  0.81571200  0.64084100  1
  C  876  1  0.13404400  0.79213600  0.63986200  1
  C  919  1  0.58300800  0.12336500  0.71611700  1
  C  920  1  0.56667000  0.12359100  0.69979400  1
  C  921  1  0.57712500  0.12352100  0.67886600  1
  C  923  1  0.60391700  0.12356800  0.70563300  1
  C  924  1  0.62488500  0.12360900  0.71700900  1
  C  925  1  0.64607300  0.12392400  0.70618500  1
  C  927  1  0.67263300  0.12458300  0.67963600  1
  C  928  1  0.68323400  0.12437100  0.70047300  1
  C  929  1  0.66690700  0.12420500  0.71679300  1
  C  930  1  0.68346300  0.12487600  0.65845300  1
  C  931  1  0.67209400  0.12488100  0.63748000  1
  C  933  1  0.64534000  0.12487200  0.61067500  1
  C  934  1  0.66627300  0.12478100  0.60023100  1
  C  935  1  0.68258900  0.12502400  0.61657800  1
  C  936  1  0.62438400  0.12477000  0.59926700  1
  C  937  1  0.60318200  0.12445000  0.61011200  1
  C  939  1  0.57657800  0.12392400  0.63670800  1
  C  940  1  0.56600200  0.12390700  0.61585800  1
  C  941  1  0.58233400  0.12446100  0.59953000  1
  C  942  1  0.56572600  0.12360600  0.65790500  1
  C  943  1  0.54174900  0.12356400  0.65813300  1
  C  944  1  0.52960200  0.14314000  0.65278100  1
  C  945  1  0.50603500  0.14303300  0.65267500  1
  C  946  1  0.49381500  0.12351200  0.65831900  1
  C  947  1  0.50609200  0.10405400  0.66403300  1
  C  948  1  0.52967400  0.10400900  0.66375300  1
  C  949  1  0.46987900  0.12329300  0.65761700  1
  C  950  1  0.45698300  0.11424700  0.67532100  1
  C  951  1  0.43339800  0.11395600  0.67434600  1
  C  952  1  0.42176900  0.12219900  0.65540300  1
  C  953  1  0.43474700  0.13139300  0.63780800  1
  C  954  1  0.45826300  0.13201200  0.63892100  1
  C  955  1  0.62461700  0.12479100  0.57529000  1
  C  956  1  0.63026100  0.14433300  0.56320100  1
  C  957  1  0.63052700  0.14427600  0.53961900  1
  C  958  1  0.62478600  0.12482100  0.52735300  1
  C  959  1  0.61911400  0.10531600  0.53958400  1
  C  960  1  0.61923000  0.10521900  0.56315100  1
  C  961  1  0.62410000  0.12502500  0.50341300  1
  C  962  1  0.64181400  0.13406300  0.49052900  1
  C  963  1  0.64086000  0.13434300  0.46694400  1
  C  964  1  0.62192800  0.12610100  0.45529300  1
  C  965  1  0.60432400  0.11691100  0.46826400  1
  C  966  1  0.60540800  0.11631700  0.49178400  1
  C  967  1  0.70741100  0.12491900  0.65832900  1
  C  968  1  0.71946000  0.10530100  0.65293300  1
  C  969  1  0.74302200  0.10535300  0.65272700  1
  C  970  1  0.75529200  0.12485000  0.65833200  1
  C  971  1  0.74310600  0.14435900  0.66405100  1
  C  972  1  0.71953400  0.14446300  0.66387000  1
  C  973  1  0.77921000  0.12499500  0.65762700  1
  C  974  1  0.79210900  0.13398000  0.67535500  1
  C  975  1  0.81568400  0.13424200  0.67436900  1
  C  976  1  0.82728100  0.12601300  0.65540200  1
  C  977  1  0.81429700  0.11685300  0.63779600  1
  C  978  1  0.79078300  0.11627700  0.63891100  1
  C  979  1  0.62475400  0.12351200  0.74095900  1
  C  980  1  0.63046300  0.10398200  0.75302800  1
  C  981  1  0.61919900  0.14305400  0.75306100  1
  C  982  1  0.61902000  0.14294600  0.77662300  1
  C  983  1  0.62481300  0.12346700  0.78882900  1
  C  984  1  0.63067400  0.10403300  0.77659800  1
  C  985  1  0.62418900  0.12326500  0.81273700  1
  C  986  1  0.64214400  0.11461500  0.82554600  1
  C  987  1  0.64124500  0.11428500  0.84912300  1
  C  988  1  0.62214000  0.12207300  0.86079800  1
  C  989  1  0.60430400  0.13090000  0.84789800  1
  C  990  1  0.60533000  0.13156400  0.82438300  1
  C  1033  1  0.68263100  0.58303500  0.15683600  1
  C  1034  1  0.66631000  0.56669700  0.15706200  1
  C  1035  1  0.64538200  0.57715200  0.15701000  1
  C  1037  1  0.67214900  0.60394400  0.15704800  1
  C  1038  1  0.68352700  0.62491200  0.15708800  1
  C  1039  1  0.67270100  0.64610000  0.15740800  1
  C  1041  1  0.64615200  0.67266000  0.15806300  1
  C  1042  1  0.66699100  0.68326100  0.15784800  1
  C  1043  1  0.68330900  0.66693400  0.15769500  1
  C  1044  1  0.62496900  0.68349200  0.15833700  1
  C  1045  1  0.60399600  0.67212200  0.15832800  1
  C  1047  1  0.57719200  0.64536900  0.15833000  1
  C  1048  1  0.56674700  0.66630100  0.15822200  1
  C  1049  1  0.58309400  0.68261800  0.15846100  1
  C  1050  1  0.56578300  0.62441300  0.15824200  1
  C  1051  1  0.57662800  0.60321100  0.15793900  1
  C  1053  1  0.60322300  0.57660600  0.15742300  1
  C  1054  1  0.58237200  0.56603100  0.15741600  1
  C  1055  1  0.56604600  0.58236400  0.15796100  1
  C  1056  1  0.62442100  0.56575300  0.15710200  1
  C  1057  1  0.62464400  0.54177700  0.15705700  1
  C  1058  1  0.61930200  0.52962700  0.17663200  1
  C  1059  1  0.61918800  0.50605800  0.17651800  1
  C  1060  1  0.62482100  0.49384400  0.15699100  1
  C  1061  1  0.63051800  0.50612500  0.13753300  1
  C  1062  1  0.63024900  0.52970500  0.13749500  1
  C  1063  1  0.62413700  0.46990500  0.15677200  1
  C  1064  1  0.64183400  0.45702800  0.14769100  1
  C  1065  1  0.64088000  0.43344500  0.14739500  1
  C  1066  1  0.62196100  0.42179300  0.15566400  1
  C  1067  1  0.60437200  0.43475200  0.16489500  1
  C  1068  1  0.60546400  0.45827200  0.16551500  1
  C  1069  1  0.54180600  0.62464700  0.15826100  1
  C  1070  1  0.52971500  0.63029900  0.17779800  1
  C  1071  1  0.50613400  0.63057900  0.17773500  1
  C  1072  1  0.49387100  0.62481300  0.15828400  1
  C  1073  1  0.50610300  0.61913600  0.13878200  1
  C  1074  1  0.52967200  0.61925100  0.13869000  1
  C  1075  1  0.46993100  0.62412000  0.15848600  1
  C  1076  1  0.45704000  0.64184100  0.16750300  1
  C  1077  1  0.43345600  0.64088200  0.16777700  1
  C  1078  1  0.42181300  0.62193800  0.15955200  1
  C  1079  1  0.43479000  0.60432600  0.15038700  1
  C  1080  1  0.45830900  0.60542200  0.14978000  1
  C  1081  1  0.62484500  0.70744000  0.15837500  1
  C  1082  1  0.61944000  0.71948700  0.13875900  1
  C  1083  1  0.61923300  0.74304700  0.13880500  1
  C  1084  1  0.62483600  0.75532000  0.15830200  1
  C  1085  1  0.63055900  0.74313700  0.17781100  1
  C  1086  1  0.63038800  0.71956600  0.17791700  1
  C  1087  1  0.62414700  0.77923800  0.15843900  1
  C  1088  1  0.64187900  0.79212600  0.16742900  1
  C  1089  1  0.64091500  0.81570200  0.16767500  1
  C  1090  1  0.62195300  0.82731300  0.15945700  1
  C  1091  1  0.60433900  0.81434000  0.15029300  1
  C  1092  1  0.60543700  0.79082500  0.14972100  1
  C  1093  1  0.70747500  0.62478100  0.15698800  1
  C  1094  1  0.71954100  0.63049200  0.13745600  1
  C  1095  1  0.71958200  0.61921800  0.17652600  1
  C  1096  1  0.74314400  0.61902700  0.17641000  1
  C  1097  1  0.75534500  0.62483300  0.15693100  1
  C  1098  1  0.74311200  0.63071600  0.13750500  1
  C  1099  1  0.77925500  0.62420500  0.15672200  1
  C  1100  1  0.79206400  0.64215700  0.14806700  1
  C  1101  1  0.81563900  0.64125300  0.14772300  1
  C  1102  1  0.82731600  0.62215200  0.15551400  1
  C  1103  1  0.81441700  0.60431700  0.16434700  1
  C  1104  1  0.79090200  0.60534500  0.16501800  1
  C  1147  1  0.62647000  0.18196600  0.11566700  1
  C  1148  1  0.62650500  0.16543600  0.09951260  1
  C  1149  1  0.62644300  0.14465200  0.11024600  1
  C  1151  1  0.62648500  0.17171300  0.13669200  1
  C  1152  1  0.62643600  0.18328600  0.15753500  1
  C  1153  1  0.62639100  0.17274600  0.17886300  1
  C  1155  1  0.62644800  0.14649300  0.20572700  1
  C  1156  1  0.62624100  0.16744300  0.21610000  1
  C  1157  1  0.62625600  0.18359600  0.19957200  1
  C  1158  1  0.62648200  0.12541300  0.21675100  1
  C  1159  1  0.62648300  0.10431200  0.20564900  1
  C  1161  1  0.62647000  0.07725740  0.17919400  1
  C  1162  1  0.62640800  0.06699640  0.20021400  1
  C  1163  1  0.62647700  0.08352240  0.21637200  1
  C  1164  1  0.62637800  0.06569140  0.15834900  1
  C  1165  1  0.62630400  0.07622340  0.13702100  1
  C  1167  1  0.62634900  0.10246800  0.11016900  1
  C  1168  1  0.62610800  0.08152040  0.09978860  1
  C  1169  1  0.62613800  0.06536940  0.11631300  1
  C  1170  1  0.62641000  0.12354800  0.09915260  1
  C  1171  1  0.62625600  0.12345500  0.07524960  1
  C  1172  1  0.64636800  0.12132500  0.06302160  1
  C  1173  1  0.64611700  0.12115800  0.03944260  1
  C  1174  1  0.62582400  0.12318900  0.02731760  1
  C  1175  1  0.60575000  0.12524500  0.03982260  1
  C  1176  1  0.60591700  0.12536900  0.06338260  1
  C  1177  1  0.62549600  0.12308400  0.00330563  1
  C  1178  1  0.61144200  0.13788500  0.99122900  1
  C  1179  1  0.61029900  0.13723400  0.96771500  1
  C  1180  1  0.62307200  0.12161800  0.95536400  1
  C  1181  1  0.63781400  0.10740000  0.96718000  1
  C  1182  1  0.63887200  0.10803300  0.99074300  1
  C  1183  1  0.62615200  0.04179140  0.15878600  1
  C  1184  1  0.64627300  0.02952140  0.16059800  1
  C  1185  1  0.64597600  0.00594338  0.16073600  1
  C  1186  1  0.62563300  0.99387200  0.15893300  1
  C  1187  1  0.60555100  0.00641038  0.15721900  1
  C  1188  1  0.60576300  0.02996840  0.15715700  1
  C  1189  1  0.62526100  0.96986900  0.15886700  1
  C  1190  1  0.63863200  0.95718400  0.17381200  1
  C  1191  1  0.63748900  0.93362000  0.17430500  1
  C  1192  1  0.62270600  0.92192300  0.16002200  1
  C  1193  1  0.61001100  0.93441700  0.14445200  1
  C  1194  1  0.61118600  0.95793500  0.14397700  1
  C  1195  1  0.62627200  0.12548700  0.24066300  1
  C  1196  1  0.60590100  0.12364600  0.25248400  1
  C  1197  1  0.60568100  0.12362500  0.27604800  1
  C  1198  1  0.62573800  0.12546700  0.28861200  1
  C  1199  1  0.64606800  0.12745400  0.27653800  1
  C  1200  1  0.64637100  0.12740300  0.25295500  1
  C  1201  1  0.62535500  0.12540900  0.31263100  1
  C  1202  1  0.63870900  0.14036100  0.32533200  1
  C  1203  1  0.63753900  0.14087900  0.34889900  1
  C  1204  1  0.62275900  0.12660400  0.36061100  1
  C  1205  1  0.61008000  0.11102900  0.34810200  1
  C  1206  1  0.61127600  0.11053100  0.32458000  1
  C  1207  1  0.62621400  0.20719100  0.15707700  1
  C  1208  1  0.60580300  0.21901100  0.15845600  1
  C  1209  1  0.64633500  0.21947500  0.15535800  1
  C  1210  1  0.64601800  0.24305600  0.15507800  1
  C  1211  1  0.62565500  0.25512900  0.15664500  1
  C  1212  1  0.60557400  0.24257400  0.15826200  1
  C  1213  1  0.62526000  0.27914300  0.15659000  1
  C  1214  1  0.61101900  0.29113800  0.17127300  1
  C  1215  1  0.60984500  0.31465700  0.17070100  1
  C  1216  1  0.62269400  0.32711700  0.15522600  1
  C  1217  1  0.63762600  0.31535600  0.14114700  1
  C  1218  1  0.63879500  0.29179100  0.14175800  1
  C  1261  1  0.08220040  0.62647700  0.21476200  1
  C  1262  1  0.06604440  0.62650800  0.19823700  1
  C  1263  1  0.07677440  0.62642600  0.17744900  1
  C  1265  1  0.10322100  0.62647300  0.20450100  1
  C  1266  1  0.12406500  0.62642800  0.21606500  1
  C  1267  1  0.14539400  0.62639300  0.20553400  1
  C  1269  1  0.17225700  0.62646800  0.17928900  1
  C  1270  1  0.18262800  0.62625400  0.20024100  1
  C  1271  1  0.16609900  0.62625700  0.21639000  1
  C  1272  1  0.18327800  0.62650800  0.15821000  1
  C  1273  1  0.17217500  0.62650000  0.13710800  1
  C  1275  1  0.14572000  0.62647300  0.11004500  1
  C  1276  1  0.16674300  0.62639800  0.09979060  1
  C  1277  1  0.18290000  0.62647200  0.11632000  1
  C  1278  1  0.12487700  0.62638400  0.09846760  1
  C  1279  1  0.10355100  0.62630900  0.10901100  1
  C  1281  1  0.07669740  0.62634100  0.13526600  1
  C  1282  1  0.06631540  0.62611000  0.11432000  1
  C  1283  1  0.08283740  0.62614800  0.09816560  1
  C  1284  1  0.06568240  0.62638900  0.15634700  1
  C  1285  1  0.04177740  0.62623700  0.15627300  1
  C  1286  1  0.02955040  0.64635600  0.15418800  1
  C  1287  1  0.00597338  0.64611700  0.15412600  1
  C  1288  1  0.99384500  0.62583200  0.15623200  1
  C  1289  1  0.00634838  0.60575500  0.15825600  1
  C  1290  1  0.02990940  0.60590900  0.15826300  1
  C  1291  1  0.96983200  0.62551600  0.15622300  1
  C  1292  1  0.95780500  0.61148100  0.17108400  1
  C  1293  1  0.93428800  0.61033700  0.17051200  1
  C  1294  1  0.92188500  0.62309400  0.15492400  1
  C  1295  1  0.93365500  0.63781200  0.14064500  1
  C  1296  1  0.95721900  0.63889300  0.14121500  1
  C  1297  1  0.12531400  0.62615500  0.07455960  1
  C  1298  1  0.12719000  0.64626400  0.06228060  1
  C  1299  1  0.12732600  0.64596500  0.03869660  1
  C  1300  1  0.12545700  0.62563000  0.02661560  1
  C  1301  1  0.12368500  0.60555900  0.03916860  1
  C  1302  1  0.12362300  0.60577300  0.06273160  1
  C  1303  1  0.12538300  0.62525600  0.00260063  1
  C  1304  1  0.14031100  0.63863100  0.98989600  1
  C  1305  1  0.14079200  0.63748800  0.96632600  1
  C  1306  1  0.12651800  0.62269900  0.95462200  1
  C  1307  1  0.11096800  0.60999600  0.96714100  1
  C  1308  1  0.11050300  0.61117300  0.99066300  1
  C  1309  1  0.20719100  0.62629400  0.15829900  1
  C  1310  1  0.21900700  0.60591200  0.15653400  1
  C  1311  1  0.24257100  0.60568100  0.15661300  1
  C  1312  1  0.25513900  0.62573200  0.15850700  1
  C  1313  1  0.24306800  0.64606800  0.16042400  1
  C  1314  1  0.21948600  0.64638600  0.16026300  1
  C  1315  1  0.27915700  0.62533000  0.15856000  1
  C  1316  1  0.29180400  0.63868900  0.17355200  1
  C  1317  1  0.31537100  0.63753100  0.17414700  1
  C  1318  1  0.32713400  0.62273900  0.15992500  1
  C  1319  1  0.31467800  0.61003400  0.14432500  1
  C  1320  1  0.29116000  0.61123300  0.14374100  1
  C  1321  1  0.12360800  0.62620200  0.23996200  1
  C  1322  1  0.12492300  0.60578300  0.25176900  1
  C  1323  1  0.12195300  0.64633000  0.25224100  1
  C  1324  1  0.12167300  0.64601200  0.27581800  1
  C  1325  1  0.12317100  0.62563500  0.28787500  1
  C  1326  1  0.12472400  0.60554700  0.27532800  1
  C  1327  1  0.12310900  0.62523600  0.31187600  1
  C  1328  1  0.13779700  0.61099500  0.32386200  1
  C  1329  1  0.13720800  0.60980900  0.34737400  1
  C  1330  1  0.12171000  0.62264600  0.35981600  1
  C  1331  1  0.10763100  0.63758300  0.34806700  1
  C  1332  1  0.10825400  0.63875800  0.32450700  1
  C  1375  1  0.18240600  0.08285640  0.65783500  1
  C  1376  1  0.16606300  0.06652140  0.65748000  1
  C  1377  1  0.14516200  0.07702340  0.65735300  1
  C  1379  1  0.17191600  0.10376500  0.65794700  1
  C  1380  1  0.18325700  0.12473400  0.65816600  1
  C  1381  1  0.17248200  0.14594300  0.65788900  1
  C  1383  1  0.14592400  0.17250900  0.65735800  1
  C  1384  1  0.16675800  0.18311500  0.65736100  1
  C  1385  1  0.18309600  0.16677300  0.65778500  1
  C  1386  1  0.12471700  0.18329000  0.65711000  1
  C  1387  1  0.10374600  0.17195100  0.65736300  1
  C  1389  1  0.07700040  0.14519900  0.65794000  1
  C  1390  1  0.06650140  0.16610300  0.65787700  1
  C  1391  1  0.08283940  0.18244300  0.65753900  1
  C  1392  1  0.06566640  0.12422700  0.65815600  1
  C  1393  1  0.07643240  0.10301800  0.65787700  1
  C  1395  1  0.10298200  0.07646440  0.65735800  1
  C  1396  1  0.08215140  0.06584840  0.65740500  1
  C  1397  1  0.06581540  0.08218840  0.65781700  1
  C  1398  1  0.12418900  0.06569440  0.65710900  1
  C  1399  1  0.12439000  0.04179240  0.65699500  1
  C  1400  1  0.12291500  0.02972740  0.67724900  1
  C  1401  1  0.12305700  0.00616938  0.67718100  1
  C  1402  1  0.12469500  0.99387400  0.65694500  1
  C  1403  1  0.12633600  0.00618738  0.63673200  1
  C  1404  1  0.12613200  0.02977140  0.63671800  1
  C  1405  1  0.12476300  0.96987000  0.65706500  1
  C  1406  1  0.13972600  0.95739100  0.64351900  1
  C  1407  1  0.14041000  0.93382300  0.64450400  1
  C  1408  1  0.12629500  0.92192000  0.65928300  1
  C  1409  1  0.11068500  0.93420800  0.67212800  1
  C  1410  1  0.11002600  0.95772400  0.67112100  1
  C  1411  1  0.04176240  0.12443000  0.65826500  1
  C  1412  1  0.02973540  0.12630600  0.67852700  1
  C  1413  1  0.00615238  0.12648900  0.67851000  1
  C  1414  1  0.99384000  0.12469700  0.65831000  1
  C  1415  1  0.00613838  0.12291300  0.63808700  1
  C  1416  1  0.02969740  0.12280300  0.63802100  1
  C  1417  1  0.96983300  0.12474300  0.65819000  1
  C  1418  1  0.95734400  0.13976600  0.67165900  1
  C  1419  1  0.93377400  0.14043700  0.67065900  1
  C  1420  1  0.92188100  0.12622700  0.65596200  1
  C  1421  1  0.93418100  0.11056200  0.64319500  1
  C  1422  1  0.95769900  0.10991900  0.64421800  1
  C  1423  1  0.12450000  0.20720300  0.65697500  1
  C  1424  1  0.12236400  0.21921300  0.63672800  1
  C  1425  1  0.12206100  0.24279800  0.63672700  1
  C  1426  1  0.12399300  0.25515200  0.65689300  1
  C  1427  1  0.12602000  0.24286400  0.67710400  1
  C  1428  1  0.12625400  0.21930300  0.67718900  1
  C  1429  1  0.12384000  0.27917400  0.65699100  1
  C  1430  1  0.13863700  0.29139600  0.67092100  1
  C  1431  1  0.13790600  0.31491600  0.67191600  1
  C  1432  1  0.12220000  0.32715400  0.65913900  1
  C  1433  1  0.10802900  0.31518400  0.64446600  1
  C  1434  1  0.10875400  0.29160700  0.64353400  1
  C  1435  1  0.20716700  0.12451100  0.65826700  1
  C  1436  1  0.21923100  0.12593600  0.63800500  1
  C  1437  1  0.21920900  0.12268700  0.67852700  1
  C  1438  1  0.24279400  0.12237400  0.67849100  1
  C  1439  1  0.25510900  0.12396800  0.65827400  1
  C  1440  1  0.24279100  0.12568100  0.63805400  1
  C  1441  1  0.27912600  0.12379900  0.65813300  1
  C  1442  1  0.29132600  0.13844200  0.64402400  1
  C  1443  1  0.31484600  0.13770700  0.64301300  1
  C  1444  1  0.32710500  0.12211800  0.65591700  1
  C  1445  1  0.31514500  0.10809300  0.67074200  1
  C  1446  1  0.29157300  0.10885100  0.67172800  1
  C  1489  1  0.12127000  0.62069900  0.43052800  1
  C  1490  1  0.11793400  0.60044900  0.41874600  1
  C  1491  1  0.11719800  0.60002300  0.39507200  1
  C  1492  1  0.12045800  0.62059400  0.38350800  1
  C  1499  1  0.12683000  0.62068200  0.88385800  1
  C  1500  1  0.13006100  0.60043400  0.89567600  1
  C  1501  1  0.13082100  0.60002800  0.91935500  1
  C  1502  1  0.12767300  0.62062000  0.93091300  1
  C  1509  1  0.39785900  0.12134000  0.65415600  1
  C  1510  1  0.38609200  0.11799100  0.63390000  1
  C  1511  1  0.36241300  0.11733000  0.63342800  1
  C  1512  1  0.35080800  0.12068700  0.65396200  1
  C  1519  1  0.85117600  0.12686800  0.65415000  1
  C  1520  1  0.86293800  0.13020500  0.63389000  1
  C  1521  1  0.88661400  0.13087900  0.63342800  1
  C  1522  1  0.89819400  0.12758000  0.65398100  1
  C  1529  1  0.62074100  0.39788100  0.15478600  1
  C  1530  1  0.60049300  0.38607800  0.15150300  1
  C  1531  1  0.60006800  0.36239900  0.15076500  1
  C  1532  1  0.62064200  0.35082600  0.15398200  1
  C  1539  1  0.62071900  0.85121100  0.16032600  1
  C  1540  1  0.60046900  0.86300200  0.16363300  1
  C  1541  1  0.60005400  0.88667600  0.16439400  1
  C  1542  1  0.62063500  0.89823100  0.16118300  1
  C  1549  1  0.62099200  0.12112900  0.88469200  1
  C  1550  1  0.60085900  0.11729600  0.89652300  1
  C  1551  1  0.60051000  0.11657000  0.92019700  1
  C  1552  1  0.62103200  0.12029900  0.93169300  1
  C  1559  1  0.62071600  0.12696200  0.43137500  1
  C  1560  1  0.60046800  0.13015800  0.41954700  1
  C  1561  1  0.60006600  0.13089500  0.39586700  1
  C  1562  1  0.62066900  0.12778700  0.38431800  1
  C  1569  1  0.12138700  0.39789900  0.66099700  1
  C  1570  1  0.11797800  0.38609300  0.68122300  1
  C  1571  1  0.11735000  0.36241400  0.68165600  1
  C  1572  1  0.12076800  0.35085100  0.66111200  1
  C  1579  1  0.12696100  0.85121400  0.66104500  1
  C  1580  1  0.13036000  0.86296000  0.68130300  1
  C  1581  1  0.13104500  0.88663400  0.68177500  1
  C  1582  1  0.12766200  0.89822900  0.66124400  1
  C  1589  1  0.39789600  0.62072400  0.16040300  1
  C  1590  1  0.38607000  0.60047800  0.16362000  1
  C  1591  1  0.36238900  0.60006900  0.16433200  1
  C  1592  1  0.35083800  0.62066400  0.16117000  1
  C  1599  1  0.85120900  0.62100000  0.15455600  1
  C  1600  1  0.86303900  0.60086400  0.15073400  1
  C  1601  1  0.88671300  0.60051500  0.14998200  1
  C  1602  1  0.89821100  0.62104400  0.15366900  1
  C  1609  1  0.24134200  0.79977700  0.76606800  1
  C  1610  1  0.24123800  0.78345000  0.74974400  1
  C  1611  1  0.24102300  0.76253900  0.76023100  1
  C  1613  1  0.24158600  0.78929600  0.78698100  1
  C  1614  1  0.24186700  0.80067200  0.80793700  1
  C  1615  1  0.24194100  0.78985200  0.82913700  1
  C  1617  1  0.24200000  0.76329600  0.85574300  1
  C  1618  1  0.24201700  0.78415500  0.86630700  1
  C  1619  1  0.24220800  0.80046800  0.84996200  1
  C  1620  1  0.24191200  0.74210700  0.86659900  1
  C  1621  1  0.24157200  0.72113600  0.85520100  1
  C  1623  1  0.24105300  0.69433400  0.82840400  1
  C  1624  1  0.24101900  0.68387900  0.84933000  1
  C  1625  1  0.24158000  0.70021200  0.86566000  1
  C  1626  1  0.24072000  0.68293100  0.80743500  1
  C  1627  1  0.24063900  0.69378300  0.78624400  1
  C  1629  1  0.24071000  0.72038300  0.75968300  1
  C  1630  1  0.24045800  0.69955400  0.74907100  1
  C  1631  1  0.24065100  0.68321400  0.76538700  1
  C  1632  1  0.24076600  0.74158200  0.74886000  1
  C  1633  1  0.24072000  0.74180800  0.72491300  1
  C  1634  1  0.26031900  0.73650700  0.71279200  1
  C  1635  1  0.26021100  0.73641000  0.68923400  1
  C  1636  1  0.24065900  0.74198300  0.67703600  1
  C  1637  1  0.22117600  0.74764200  0.68929400  1
  C  1638  1  0.22113300  0.74736200  0.71286800  1
  C  1639  1  0.24043800  0.74128900  0.65311800  1
  C  1640  1  0.23135000  0.75898600  0.64025400  1
  C  1641  1  0.23103900  0.75801500  0.61667700  1
  C  1642  1  0.23931500  0.73908800  0.60505000  1
  C  1643  1  0.24856500  0.72150400  0.61799800  1
  C  1644  1  0.24919100  0.72260600  0.64151000  1
  C  1645  1  0.24063300  0.65895300  0.80756900  1
  C  1646  1  0.26019000  0.64684200  0.81306700  1
  C  1647  1  0.26009600  0.62327400  0.81328800  1
  C  1648  1  0.24061600  0.61101900  0.80758400  1
  C  1649  1  0.22116600  0.62325400  0.80176600  1
  C  1650  1  0.22110300  0.64683400  0.80194300  1
  C  1651  1  0.24043700  0.58708300  0.80826300  1
  C  1652  1  0.24903000  0.57546600  0.82701300  1
  C  1653  1  0.24844300  0.55194400  0.82808900  1
  C  1654  1  0.23939200  0.53897100  0.81041600  1
  C  1655  1  0.23128800  0.55061000  0.79141900  1
  C  1656  1  0.23154600  0.57419500  0.79047500  1
  C  1657  1  0.24197900  0.74197700  0.89057600  1
  C  1658  1  0.22240000  0.73651900  0.90267100  1
  C  1659  1  0.22248000  0.73628100  0.92623800  1
  C  1660  1  0.24196900  0.74191600  0.93851300  1
  C  1661  1  0.26143800  0.74770200  0.92629200  1
  C  1662  1  0.26151700  0.74753500  0.90271000  1
  C  1663  1  0.24212900  0.74122500  0.96245300  1
  C  1664  1  0.25112900  0.75894900  0.97535000  1
  C  1665  1  0.25137600  0.75799700  0.99893300  1
  C  1666  1  0.24313400  0.73905800  0.01057030  1
  C  1667  1  0.23396600  0.72144900  0.99759000  1
  C  1668  1  0.23339200  0.72253900  0.97406800  1
  C  1669  1  0.24190200  0.82461900  0.80770400  1
  C  1670  1  0.22229900  0.83672900  0.81301300  1
  C  1671  1  0.26147400  0.83667400  0.80212100  1
  C  1672  1  0.26141500  0.86024800  0.80183300  1
  C  1673  1  0.24192900  0.87249500  0.80749500  1
  C  1674  1  0.22239100  0.86028800  0.81309500  1
  C  1675  1  0.24213500  0.89641400  0.80819100  1
  C  1676  1  0.23340400  0.90800900  0.82689300  1
  C  1677  1  0.23402300  0.93151900  0.82800700  1
  C  1678  1  0.24324200  0.94448100  0.81041700  1
  C  1679  1  0.25149100  0.93286900  0.79147000  1
  C  1680  1  0.25120100  0.90929300  0.79049100  1
  C  1723  1  0.70016500  0.24052200  0.86674600  1
  C  1724  1  0.68382700  0.24074800  0.85042300  1
  C  1725  1  0.69428200  0.24067800  0.82949500  1
  C  1727  1  0.72107400  0.24072500  0.85626200  1
  C  1728  1  0.74204200  0.24076600  0.86763800  1
  C  1729  1  0.76323000  0.24108100  0.85681400  1
  C  1731  1  0.78979000  0.24174000  0.83026500  1
  C  1732  1  0.80039100  0.24152800  0.85110200  1
  C  1733  1  0.78406400  0.24136200  0.86742200  1
  C  1734  1  0.80062000  0.24203300  0.80908200  1
  C  1735  1  0.78925100  0.24203800  0.78810900  1
  C  1737  1  0.76249700  0.24202900  0.76130400  1
  C  1738  1  0.78343000  0.24193800  0.75086000  1
  C  1739  1  0.79974600  0.24218100  0.76720700  1
  C  1740  1  0.74154100  0.24192700  0.74989600  1
  C  1741  1  0.72033900  0.24160700  0.76074100  1
  C  1743  1  0.69373500  0.24108100  0.78733700  1
  C  1744  1  0.68315900  0.24106400  0.76648700  1
  C  1745  1  0.69949100  0.24161800  0.75015900  1
  C  1746  1  0.68288300  0.24076300  0.80853400  1
  C  1747  1  0.65890600  0.24072100  0.80876200  1
  C  1748  1  0.64675900  0.26029700  0.80341000  1
  C  1749  1  0.62319200  0.26019000  0.80330400  1
  C  1750  1  0.61097200  0.24066900  0.80894800  1
  C  1751  1  0.62324900  0.22121100  0.81466200  1
  C  1752  1  0.64683100  0.22116600  0.81438200  1
  C  1753  1  0.58703600  0.24045000  0.80824600  1
  C  1754  1  0.57414000  0.23140400  0.82595000  1
  C  1755  1  0.55055500  0.23111300  0.82497500  1
  C  1756  1  0.53892600  0.23935600  0.80603200  1
  C  1757  1  0.55190400  0.24855000  0.78843700  1
  C  1758  1  0.57542000  0.24916900  0.78955000  1
  C  1759  1  0.74177400  0.24194800  0.72591900  1
  C  1760  1  0.74741800  0.26149000  0.71383000  1
  C  1761  1  0.74768400  0.26143300  0.69024800  1
  C  1762  1  0.74194300  0.24197800  0.67798200  1
  C  1763  1  0.73627100  0.22247300  0.69021300  1
  C  1764  1  0.73638700  0.22237600  0.71378000  1
  C  1765  1  0.74125700  0.24218200  0.65404200  1
  C  1766  1  0.75897100  0.25122000  0.64115800  1
  C  1767  1  0.75801700  0.25150000  0.61757300  1
  C  1768  1  0.73908500  0.24325800  0.60592200  1
  C  1769  1  0.72148100  0.23406800  0.61889300  1
  C  1770  1  0.72256500  0.23347400  0.64241300  1
  C  1771  1  0.82456800  0.24207600  0.80895800  1
  C  1772  1  0.83661700  0.22245800  0.80356200  1
  C  1773  1  0.86017900  0.22251000  0.80335600  1
  C  1774  1  0.87244900  0.24200700  0.80896100  1
  C  1775  1  0.86026300  0.26151600  0.81468000  1
  C  1776  1  0.83669100  0.26162000  0.81449900  1
  C  1777  1  0.89636700  0.24215200  0.80825600  1
  C  1778  1  0.90926600  0.25113700  0.82598400  1
  C  1779  1  0.93284100  0.25139900  0.82499800  1
  C  1780  1  0.94443800  0.24317000  0.80603100  1
  C  1781  1  0.93145400  0.23401000  0.78842500  1
  C  1782  1  0.90794000  0.23343400  0.78954000  1
  C  1783  1  0.74191100  0.24066900  0.89158800  1
  C  1784  1  0.74762000  0.22113900  0.90365700  1
  C  1785  1  0.73635600  0.26021100  0.90369000  1
  C  1786  1  0.73617700  0.26010300  0.92725200  1
  C  1787  1  0.74197000  0.24062400  0.93945800  1
  C  1788  1  0.74783100  0.22119000  0.92722700  1
  C  1789  1  0.74134600  0.24042200  0.96336600  1
  C  1790  1  0.75930100  0.23177200  0.97617500  1
  C  1791  1  0.75840200  0.23144200  0.99975200  1
  C  1792  1  0.73929700  0.23923000  0.01142730  1
  C  1793  1  0.72146100  0.24805700  0.99852700  1
  C  1794  1  0.72248700  0.24872100  0.97501200  1
  C  1837  1  0.79978800  0.70019200  0.30746500  1
  C  1838  1  0.78346700  0.68385400  0.30769100  1
  C  1839  1  0.76253900  0.69430900  0.30763900  1
  C  1841  1  0.78930600  0.72110100  0.30767700  1
  C  1842  1  0.80068400  0.74206900  0.30771700  1
  C  1843  1  0.78985800  0.76325700  0.30803700  1
  C  1845  1  0.76330900  0.78981700  0.30869200  1
  C  1846  1  0.78414800  0.80041800  0.30847700  1
  C  1847  1  0.80046600  0.78409100  0.30832400  1
  C  1848  1  0.74212600  0.80064900  0.30896600  1
  C  1849  1  0.72115300  0.78927900  0.30895700  1
  C  1851  1  0.69434900  0.76252600  0.30895900  1
  C  1852  1  0.68390400  0.78345800  0.30885100  1
  C  1853  1  0.70025100  0.79977500  0.30909000  1
  C  1854  1  0.68294000  0.74157000  0.30887100  1
  C  1855  1  0.69378500  0.72036800  0.30856800  1
  C  1857  1  0.72038000  0.69376300  0.30805200  1
  C  1858  1  0.69952900  0.68318800  0.30804500  1
  C  1859  1  0.68320300  0.69952100  0.30859000  1
  C  1860  1  0.74157800  0.68291000  0.30773100  1
  C  1861  1  0.74180100  0.65893400  0.30768600  1
  C  1862  1  0.73645900  0.64678400  0.32726100  1
  C  1863  1  0.73634500  0.62321500  0.32714700  1
  C  1864  1  0.74197800  0.61100100  0.30762000  1
  C  1865  1  0.74767500  0.62328200  0.28816200  1
  C  1866  1  0.74740600  0.64686200  0.28812400  1
  C  1867  1  0.74129400  0.58706200  0.30740100  1
  C  1868  1  0.75899100  0.57418500  0.29832000  1
  C  1869  1  0.75803700  0.55060200  0.29802400  1
  C  1870  1  0.73911800  0.53895000  0.30629300  1
  C  1871  1  0.72152900  0.55190900  0.31552400  1
  C  1872  1  0.72262100  0.57542900  0.31614400  1
  C  1873  1  0.65896300  0.74180400  0.30889000  1
  C  1874  1  0.64687200  0.74745600  0.32842700  1
  C  1875  1  0.62329100  0.74773600  0.32836400  1
  C  1876  1  0.61102800  0.74197000  0.30891300  1
  C  1877  1  0.62326000  0.73629300  0.28941100  1
  C  1878  1  0.64682900  0.73640800  0.28931900  1
  C  1879  1  0.58708800  0.74127700  0.30911500  1
  C  1880  1  0.57419700  0.75899800  0.31813200  1
  C  1881  1  0.55061300  0.75803900  0.31840600  1
  C  1882  1  0.53897000  0.73909500  0.31018100  1
  C  1883  1  0.55194700  0.72148300  0.30101600  1
  C  1884  1  0.57546600  0.72257900  0.30040900  1
  C  1885  1  0.74200200  0.82459700  0.30900400  1
  C  1886  1  0.73659700  0.83664400  0.28938800  1
  C  1887  1  0.73639000  0.86020400  0.28943400  1
  C  1888  1  0.74199300  0.87247700  0.30893100  1
  C  1889  1  0.74771600  0.86029400  0.32844000  1
  C  1890  1  0.74754500  0.83672300  0.32854600  1
  C  1891  1  0.74130400  0.89639500  0.30906800  1
  C  1892  1  0.75903600  0.90928300  0.31805800  1
  C  1893  1  0.75807200  0.93285900  0.31830400  1
  C  1894  1  0.73911000  0.94447000  0.31008600  1
  C  1895  1  0.72149600  0.93149700  0.30092200  1
  C  1896  1  0.72259400  0.90798200  0.30035000  1
  C  1897  1  0.82463200  0.74193800  0.30761700  1
  C  1898  1  0.83669800  0.74764900  0.28808500  1
  C  1899  1  0.83673900  0.73637500  0.32715500  1
  C  1900  1  0.86030100  0.73618400  0.32703900  1
  C  1901  1  0.87250200  0.74199000  0.30756000  1
  C  1902  1  0.86026900  0.74787300  0.28813400  1
  C  1903  1  0.89641200  0.74136200  0.30735100  1
  C  1904  1  0.90922100  0.75931400  0.29869600  1
  C  1905  1  0.93279600  0.75841000  0.29835200  1
  C  1906  1  0.94447300  0.73930900  0.30614300  1
  C  1907  1  0.93157400  0.72147400  0.31497600  1
  C  1908  1  0.90805900  0.72250200  0.31564700  1
  C  1951  1  0.74362700  0.29912300  0.26629600  1
  C  1952  1  0.74366200  0.28259300  0.25014200  1
  C  1953  1  0.74360000  0.26180900  0.26087500  1
  C  1955  1  0.74364200  0.28887000  0.28732100  1
  C  1956  1  0.74359300  0.30044300  0.30816400  1
  C  1957  1  0.74354800  0.28990300  0.32949200  1
  C  1959  1  0.74360500  0.26365000  0.35635600  1
  C  1960  1  0.74339800  0.28460000  0.36672900  1
  C  1961  1  0.74341300  0.30075300  0.35020100  1
  C  1962  1  0.74363900  0.24257000  0.36738000  1
  C  1963  1  0.74364000  0.22146900  0.35627800  1
  C  1965  1  0.74362700  0.19441400  0.32982300  1
  C  1966  1  0.74356500  0.18415300  0.35084300  1
  C  1967  1  0.74363400  0.20067900  0.36700100  1
  C  1968  1  0.74353500  0.18284800  0.30897800  1
  C  1969  1  0.74346100  0.19338000  0.28765000  1
  C  1971  1  0.74350600  0.21962500  0.26079800  1
  C  1972  1  0.74326500  0.19867700  0.25041800  1
  C  1973  1  0.74329500  0.18252600  0.26694200  1
  C  1974  1  0.74356700  0.24070500  0.24978200  1
  C  1975  1  0.74341300  0.24061200  0.22587900  1
  C  1976  1  0.76352500  0.23848200  0.21365100  1
  C  1977  1  0.76327400  0.23831500  0.19007200  1
  C  1978  1  0.74298100  0.24034600  0.17794700  1
  C  1979  1  0.72290700  0.24240200  0.19045200  1
  C  1980  1  0.72307400  0.24252600  0.21401200  1
  C  1981  1  0.74265300  0.24024100  0.15393500  1
  C  1982  1  0.72859900  0.25504200  0.14185800  1
  C  1983  1  0.72745600  0.25439100  0.11834400  1
  C  1984  1  0.74022900  0.23877500  0.10599300  1
  C  1985  1  0.75497100  0.22455700  0.11780900  1
  C  1986  1  0.75602900  0.22519000  0.14137200  1
  C  1987  1  0.74330900  0.15894800  0.30941500  1
  C  1988  1  0.76343000  0.14667800  0.31122700  1
  C  1989  1  0.76313300  0.12310000  0.31136500  1
  C  1990  1  0.74279000  0.11102900  0.30956200  1
  C  1991  1  0.72270800  0.12356700  0.30784800  1
  C  1992  1  0.72292000  0.14712500  0.30778600  1
  C  1993  1  0.74241800  0.08702580  0.30949600  1
  C  1994  1  0.75578900  0.07434080  0.32444100  1
  C  1995  1  0.75464600  0.05077680  0.32493400  1
  C  1996  1  0.73986300  0.03907980  0.31065100  1
  C  1997  1  0.72716800  0.05157380  0.29508100  1
  C  1998  1  0.72834300  0.07509180  0.29460600  1
  C  1999  1  0.74342900  0.24264400  0.39129200  1
  C  2000  1  0.72305800  0.24080300  0.40311300  1
  C  2001  1  0.72283800  0.24078200  0.42667700  1
  C  2002  1  0.74289500  0.24262400  0.43924100  1
  C  2003  1  0.76322500  0.24461100  0.42716700  1
  C  2004  1  0.76352800  0.24456000  0.40358400  1
  C  2005  1  0.74251200  0.24256600  0.46326000  1
  C  2006  1  0.75586600  0.25751800  0.47596100  1
  C  2007  1  0.75469600  0.25803600  0.49952800  1
  C  2008  1  0.73991600  0.24376100  0.51124000  1
  C  2009  1  0.72723700  0.22818600  0.49873100  1
  C  2010  1  0.72843300  0.22768800  0.47520900  1
  C  2011  1  0.74337100  0.32434800  0.30770600  1
  C  2012  1  0.72296000  0.33616800  0.30908500  1
  C  2013  1  0.76349200  0.33663200  0.30598700  1
  C  2014  1  0.76317500  0.36021300  0.30570700  1
  C  2015  1  0.74281200  0.37228600  0.30727400  1
  C  2016  1  0.72273100  0.35973100  0.30889100  1
  C  2017  1  0.74241700  0.39630000  0.30721900  1
  C  2018  1  0.72817600  0.40829500  0.32190200  1
  C  2019  1  0.72700200  0.43181400  0.32133000  1
  C  2020  1  0.73985100  0.44427400  0.30585500  1
  C  2021  1  0.75478300  0.43251300  0.29177600  1
  C  2022  1  0.75595200  0.40894800  0.29238700  1
  C  2065  1  0.19935700  0.74363400  0.36539100  1
  C  2066  1  0.18320100  0.74366500  0.34886600  1
  C  2067  1  0.19393100  0.74358300  0.32807800  1
  C  2069  1  0.22037800  0.74363000  0.35513000  1
  C  2070  1  0.24122200  0.74358500  0.36669400  1
  C  2071  1  0.26255100  0.74355000  0.35616300  1
  C  2073  1  0.28941400  0.74362500  0.32991800  1
  C  2074  1  0.29978500  0.74341100  0.35087000  1
  C  2075  1  0.28325600  0.74341400  0.36701900  1
  C  2076  1  0.30043500  0.74366500  0.30883900  1
  C  2077  1  0.28933200  0.74365700  0.28773700  1
  C  2079  1  0.26287700  0.74363000  0.26067400  1
  C  2080  1  0.28390000  0.74355500  0.25042000  1
  C  2081  1  0.30005700  0.74362900  0.26694900  1
  C  2082  1  0.24203400  0.74354100  0.24909700  1
  C  2083  1  0.22070800  0.74346600  0.25964000  1
  C  2085  1  0.19385400  0.74349800  0.28589500  1
  C  2086  1  0.18347200  0.74326700  0.26494900  1
  C  2087  1  0.19999400  0.74330500  0.24879500  1
  C  2088  1  0.18283900  0.74354600  0.30697600  1
  C  2089  1  0.15893400  0.74339400  0.30690200  1
  C  2090  1  0.14670700  0.76351300  0.30481700  1
  C  2091  1  0.12313000  0.76327400  0.30475500  1
  C  2092  1  0.11100200  0.74298900  0.30686100  1
  C  2093  1  0.12350500  0.72291200  0.30888500  1
  C  2094  1  0.14706600  0.72306600  0.30889200  1
  C  2095  1  0.08698880  0.74267300  0.30685200  1
  C  2096  1  0.07496180  0.72863800  0.32171300  1
  C  2097  1  0.05144480  0.72749400  0.32114100  1
  C  2098  1  0.03904180  0.74025100  0.30555300  1
  C  2099  1  0.05081180  0.75496900  0.29127400  1
  C  2100  1  0.07437580  0.75605000  0.29184400  1
  C  2101  1  0.24247100  0.74331200  0.22518900  1
  C  2102  1  0.24434700  0.76342100  0.21291000  1
  C  2103  1  0.24448300  0.76312200  0.18932600  1
  C  2104  1  0.24261400  0.74278700  0.17724500  1
  C  2105  1  0.24084200  0.72271600  0.18979800  1
  C  2106  1  0.24078000  0.72293000  0.21336100  1
  C  2107  1  0.24254000  0.74241300  0.15323000  1
  C  2108  1  0.25746800  0.75578800  0.14052500  1
  C  2109  1  0.25794900  0.75464500  0.11695500  1
  C  2110  1  0.24367500  0.73985600  0.10525100  1
  C  2111  1  0.22812500  0.72715300  0.11777000  1
  C  2112  1  0.22766000  0.72833000  0.14129200  1
  C  2113  1  0.32434800  0.74345100  0.30892800  1
  C  2114  1  0.33616400  0.72306900  0.30716300  1
  C  2115  1  0.35972800  0.72283800  0.30724200  1
  C  2116  1  0.37229600  0.74288900  0.30913600  1
  C  2117  1  0.36022500  0.76322500  0.31105300  1
  C  2118  1  0.33664300  0.76354300  0.31089200  1
  C  2119  1  0.39631400  0.74248700  0.30918900  1
  C  2120  1  0.40896100  0.75584600  0.32418100  1
  C  2121  1  0.43252800  0.75468800  0.32477600  1
  C  2122  1  0.44429100  0.73989600  0.31055400  1
  C  2123  1  0.43183500  0.72719100  0.29495400  1
  C  2124  1  0.40831700  0.72839000  0.29437000  1
  C  2125  1  0.24076500  0.74335900  0.39059100  1
  C  2126  1  0.24208000  0.72294000  0.40239800  1
  C  2127  1  0.23911000  0.76348700  0.40287000  1
  C  2128  1  0.23883000  0.76316900  0.42644700  1
  C  2129  1  0.24032800  0.74279200  0.43850400  1
  C  2130  1  0.24188100  0.72270400  0.42595700  1
  C  2131  1  0.24026600  0.74239300  0.46250500  1
  C  2132  1  0.25495400  0.72815200  0.47449100  1
  C  2133  1  0.25436500  0.72696600  0.49800300  1
  C  2134  1  0.23886700  0.73980300  0.51044500  1
  C  2135  1  0.22478800  0.75474000  0.49869600  1
  C  2136  1  0.22541100  0.75591500  0.47513600  1
  C  2179  1  0.29956300  0.20001300  0.80846400  1
  C  2180  1  0.28322000  0.18367800  0.80810900  1
  C  2181  1  0.26231900  0.19418000  0.80798200  1
  C  2183  1  0.28907300  0.22092200  0.80857600  1
  C  2184  1  0.30041400  0.24189100  0.80879500  1
  C  2185  1  0.28963900  0.26310000  0.80851800  1
  C  2187  1  0.26308100  0.28966600  0.80798700  1
  C  2188  1  0.28391500  0.30027200  0.80799000  1
  C  2189  1  0.30025300  0.28393000  0.80841400  1
  C  2190  1  0.24187400  0.30044700  0.80773900  1
  C  2191  1  0.22090300  0.28910800  0.80799200  1
  C  2193  1  0.19415700  0.26235600  0.80856900  1
  C  2194  1  0.18365800  0.28326000  0.80850600  1
  C  2195  1  0.19999600  0.29960000  0.80816800  1
  C  2196  1  0.18282300  0.24138400  0.80878500  1
  C  2197  1  0.19358900  0.22017500  0.80850600  1
  C  2199  1  0.22013900  0.19362100  0.80798700  1
  C  2200  1  0.19930800  0.18300500  0.80803400  1
  C  2201  1  0.18297200  0.19934500  0.80844600  1
  C  2202  1  0.24134600  0.18285100  0.80773800  1
  C  2203  1  0.24154700  0.15894900  0.80762400  1
  C  2204  1  0.24007200  0.14688400  0.82787800  1
  C  2205  1  0.24021400  0.12332600  0.82781000  1
  C  2206  1  0.24185200  0.11103100  0.80757400  1
  C  2207  1  0.24349300  0.12334400  0.78736100  1
  C  2208  1  0.24328900  0.14692800  0.78734700  1
  C  2209  1  0.24192000  0.08702680  0.80769400  1
  C  2210  1  0.25688300  0.07454780  0.79414800  1
  C  2211  1  0.25756700  0.05097980  0.79513300  1
  C  2212  1  0.24345200  0.03907680  0.80991200  1
  C  2213  1  0.22784200  0.05136480  0.82275700  1
  C  2214  1  0.22718300  0.07488080  0.82175000  1
  C  2215  1  0.15891900  0.24158700  0.80889400  1
  C  2216  1  0.14689200  0.24346300  0.82915600  1
  C  2217  1  0.12330900  0.24364600  0.82913900  1
  C  2218  1  0.11099700  0.24185400  0.80893900  1
  C  2219  1  0.12329500  0.24007000  0.78871600  1
  C  2220  1  0.14685400  0.23996000  0.78865000  1
  C  2221  1  0.08698980  0.24190000  0.80881900  1
  C  2222  1  0.07450080  0.25692300  0.82228800  1
  C  2223  1  0.05093080  0.25759400  0.82128800  1
  C  2224  1  0.03903780  0.24338400  0.80659100  1
  C  2225  1  0.05133780  0.22771900  0.79382400  1
  C  2226  1  0.07485580  0.22707600  0.79484700  1
  C  2227  1  0.24165700  0.32436000  0.80760400  1
  C  2228  1  0.23952100  0.33637000  0.78735700  1
  C  2229  1  0.23921800  0.35995500  0.78735600  1
  C  2230  1  0.24115000  0.37230900  0.80752200  1
  C  2231  1  0.24317700  0.36002100  0.82773300  1
  C  2232  1  0.24341100  0.33646000  0.82781800  1
  C  2233  1  0.24099700  0.39633100  0.80762000  1
  C  2234  1  0.25579400  0.40855300  0.82155000  1
  C  2235  1  0.25506300  0.43207300  0.82254500  1
  C  2236  1  0.23935700  0.44431100  0.80976800  1
  C  2237  1  0.22518600  0.43234100  0.79509500  1
  C  2238  1  0.22591100  0.40876400  0.79416300  1
  C  2239  1  0.32432400  0.24166800  0.80889600  1
  C  2240  1  0.33638800  0.24309300  0.78863400  1
  C  2241  1  0.33636600  0.23984400  0.82915600  1
  C  2242  1  0.35995100  0.23953100  0.82912000  1
  C  2243  1  0.37226600  0.24112500  0.80890300  1
  C  2244  1  0.35994800  0.24283800  0.78868300  1
  C  2245  1  0.39628300  0.24095600  0.80876200  1
  C  2246  1  0.40848300  0.25559900  0.79465300  1
  C  2247  1  0.43200300  0.25486400  0.79364200  1
  C  2248  1  0.44426200  0.23927500  0.80654600  1
  C  2249  1  0.43230200  0.22525000  0.82137100  1
  C  2250  1  0.40873000  0.22600800  0.82235700  1
  C  2293  1  0.23842700  0.73785600  0.58115700  1
  C  2294  1  0.23509100  0.71760600  0.56937500  1
  C  2295  1  0.23435500  0.71718000  0.54570100  1
  C  2296  1  0.23761500  0.73775100  0.53413700  1
  C  2303  1  0.24398700  0.73783900  0.03448730  1
  C  2304  1  0.24721800  0.71759100  0.04630530  1
  C  2305  1  0.24797800  0.71718500  0.06998430  1
  C  2306  1  0.24483000  0.73777700  0.08154230  1
  C  2313  1  0.51501600  0.23849700  0.80478500  1
  C  2314  1  0.50324900  0.23514800  0.78452900  1
  C  2315  1  0.47957000  0.23448700  0.78405700  1
  C  2316  1  0.46796500  0.23784400  0.80459100  1
  C  2323  1  0.96833300  0.24402500  0.80477900  1
  C  2324  1  0.98009500  0.24736200  0.78451900  1
  C  2325  1  0.00377076  0.24803600  0.78405700  1
  C  2326  1  0.01535080  0.24473700  0.80461000  1
  C  2333  1  0.73789800  0.51503800  0.30541500  1
  C  2334  1  0.71765000  0.50323500  0.30213200  1
  C  2335  1  0.71722500  0.47955600  0.30139400  1
  C  2336  1  0.73779900  0.46798300  0.30461100  1
  C  2343  1  0.73787600  0.96836800  0.31095500  1
  C  2344  1  0.71762600  0.98015900  0.31426200  1
  C  2345  1  0.71721100  0.00383276  0.31502300  1
  C  2346  1  0.73779200  0.01538780  0.31181200  1
  C  2353  1  0.73814900  0.23828600  0.03532130  1
  C  2354  1  0.71801600  0.23445300  0.04715230  1
  C  2355  1  0.71766700  0.23372700  0.07082630  1
  C  2356  1  0.73818900  0.23745600  0.08232230  1
  C  2363  1  0.73787300  0.24411900  0.58200400  1
  C  2364  1  0.71762500  0.24731500  0.57017600  1
  C  2365  1  0.71722300  0.24805200  0.54649600  1
  C  2366  1  0.73782600  0.24494400  0.53494700  1
  C  2373  1  0.23854400  0.51505600  0.81162600  1
  C  2374  1  0.23513500  0.50325000  0.83185200  1
  C  2375  1  0.23450700  0.47957100  0.83228500  1
  C  2376  1  0.23792500  0.46800800  0.81174100  1
  C  2383  1  0.24411800  0.96837100  0.81167400  1
  C  2384  1  0.24751700  0.98011700  0.83193200  1
  C  2385  1  0.24820200  0.00379076  0.83240400  1
  C  2386  1  0.24481900  0.01538580  0.81187300  1
  C  2393  1  0.51505300  0.73788100  0.31103200  1
  C  2394  1  0.50322700  0.71763500  0.31424900  1
  C  2395  1  0.47954600  0.71722600  0.31496100  1
  C  2396  1  0.46799500  0.73782100  0.31179900  1
  C  2403  1  0.96836600  0.73815700  0.30518500  1
  C  2404  1  0.98019600  0.71802100  0.30136300  1
  C  2405  1  0.00386976  0.71767200  0.30061100  1
  C  2406  1  0.01536780  0.73820100  0.30429800  1
  N  4  1  0.00700000  0.53271500  0.48124000  1
  N  8  1  0.00757900  0.53331600  0.53225500  1
  N  14  1  0.00700700  0.48229900  0.53166200  1
  N  20  1  0.00642800  0.48169800  0.48064700  1
  N  118  1  0.48224600  0.00640200  0.53273000  1
  N  122  1  0.53325600  0.00708300  0.53333600  1
  N  128  1  0.53266600  0.00773500  0.48232400  1
  N  134  1  0.48165200  0.00703200  0.48171000  1
  N  232  1  0.53271800  0.48227200  0.00642000  1
  N  236  1  0.53332600  0.53328200  0.00708700  1
  N  242  1  0.48231600  0.53269500  0.00771700  1
  N  248  1  0.48170000  0.48168000  0.00704600  1
  N  346  1  0.50929900  0.03224000  0.98182900  1
  N  350  1  0.50936200  0.03342400  0.03283000  1
  N  356  1  0.50935700  0.98241600  0.03280300  1
  N  362  1  0.50928400  0.98123100  0.98180200  1
  N  460  1  0.98183100  0.50927700  0.03155600  1
  N  464  1  0.03283400  0.50937400  0.03273900  1
  N  470  1  0.03280300  0.50937700  0.98173300  1
  N  476  1  0.98180500  0.50927700  0.98054700  1
  N  574  1  0.03249500  0.98213000  0.50702100  1
  N  578  1  0.03310900  0.03313500  0.50702100  1
  N  584  1  0.98210700  0.03252900  0.50699200  1
  N  590  1  0.98149100  0.98152400  0.50699400  1
  N  689  1  0.00599500  0.52229300  0.24535400  1
  N  690  1  0.00628400  0.52235000  0.26725900  1
  N  691  1  0.99550600  0.46317400  0.23394100  1
  N  699  1  0.00791200  0.52231500  0.76777900  1
  N  700  1  0.00760700  0.52235000  0.74586900  1
  N  701  1  0.01812500  0.46316900  0.77923400  1
  N  709  1  0.24611000  0.00622100  0.52220300  1
  N  710  1  0.26802200  0.00643300  0.52230100  1
  N  711  1  0.23478000  0.99565000  0.46309200  1
  N  719  1  0.76859100  0.00773700  0.52222300  1
  N  720  1  0.74668400  0.00749500  0.52230600  1
  N  721  1  0.77994800  0.01821400  0.46309100  1
  N  729  1  0.52234000  0.24616400  0.00599300  1
  N  730  1  0.52239400  0.26807600  0.00627800  1
  N  731  1  0.46321100  0.23474500  0.99563000  1
  N  739  1  0.52233300  0.76859600  0.00787300  1
  N  740  1  0.52237700  0.74669100  0.00756100  1
  N  741  1  0.46320400  0.78002500  0.01827200  1
  N  749  1  0.52263600  0.00629600  0.76855700  1
  N  750  1  0.52262100  0.00659600  0.74665300  1
  N  751  1  0.46379700  0.99451500  0.78015300  1
  N  759  1  0.52236500  0.00806700  0.24620100  1
  N  760  1  0.52239200  0.00777000  0.26811100  1
  N  761  1  0.46320100  0.01813900  0.23471100  1
  N  769  1  0.00634800  0.24617700  0.49163700  1
  N  770  1  0.00654900  0.26809100  0.49158000  1
  N  771  1  0.99564200  0.23473400  0.55070000  1
  N  779  1  0.00776000  0.76863800  0.49174200  1
  N  780  1  0.00752300  0.74673000  0.49164200  1
  N  781  1  0.01847100  0.77994700  0.55084100  1
  N  789  1  0.24619200  0.52235800  0.00795900  1
  N  790  1  0.26810200  0.52239200  0.00769000  1
  N  791  1  0.23470600  0.46320600  0.01810500  1
  N  799  1  0.76855200  0.52265000  0.00618700  1
  N  800  1  0.74664800  0.52263300  0.00651500  1
  N  801  1  0.78013600  0.46380000  0.99444800  1
  N  808  1  0.12415600  0.64987100  0.63187000  1
  N  812  1  0.12473500  0.65047200  0.68288500  1
  N  818  1  0.12416300  0.59945500  0.68229200  1
  N  824  1  0.12358400  0.59885400  0.63127700  1
  N  922  1  0.59940200  0.12355800  0.68336000  1
  N  926  1  0.65041200  0.12423900  0.68396600  1
  N  932  1  0.64982200  0.12489100  0.63295400  1
  N  938  1  0.59880800  0.12418800  0.63234000  1
  N  1036  1  0.64987400  0.59942800  0.15705000  1
  N  1040  1  0.65048200  0.65043800  0.15771700  1
  N  1046  1  0.59947200  0.64985100  0.15834700  1
  N  1052  1  0.59885600  0.59883600  0.15767600  1
  N  1150  1  0.62645500  0.14939600  0.13245900  1
  N  1154  1  0.62651800  0.15058000  0.18346000  1
  N  1160  1  0.62651300  0.09957240  0.18343300  1
  N  1166  1  0.62644000  0.09838740  0.13243200  1
  N  1264  1  0.09898740  0.62643300  0.18218600  1
  N  1268  1  0.14999000  0.62653000  0.18336900  1
  N  1274  1  0.14995900  0.62653300  0.13236300  1
  N  1280  1  0.09896140  0.62643300  0.13117700  1
  N  1378  1  0.14965100  0.09928640  0.65765100  1
  N  1382  1  0.15026500  0.15029100  0.65765100  1
  N  1388  1  0.09926340  0.14968500  0.65762200  1
  N  1394  1  0.09864740  0.09868040  0.65762400  1
  N  1493  1  0.12315100  0.63944900  0.39598400  1
  N  1494  1  0.12344000  0.63950600  0.41788900  1
  N  1495  1  0.11266200  0.58033000  0.38457100  1
  N  1503  1  0.12506800  0.63947100  0.91840900  1
  N  1504  1  0.12476300  0.63950600  0.89649900  1
  N  1505  1  0.13528100  0.58032500  0.92986400  1
  N  1513  1  0.36326600  0.12337700  0.67283300  1
  N  1514  1  0.38517800  0.12358900  0.67293100  1
  N  1515  1  0.35193600  0.11280600  0.61372200  1
  N  1523  1  0.88574700  0.12489300  0.67285300  1
  N  1524  1  0.86384000  0.12465100  0.67293600  1
  N  1525  1  0.89710400  0.13537000  0.61372100  1
  N  1533  1  0.63949600  0.36332000  0.15662300  1
  N  1534  1  0.63955000  0.38523200  0.15690800  1
  N  1535  1  0.58036700  0.35190100  0.14626000  1
  N  1543  1  0.63948900  0.88575200  0.15850300  1
  N  1544  1  0.63953300  0.86384700  0.15819100  1
  N  1545  1  0.58036000  0.89718100  0.16890200  1
  N  1553  1  0.63979200  0.12345200  0.91918700  1
  N  1554  1  0.63977700  0.12375200  0.89728300  1
  N  1555  1  0.58095300  0.11167100  0.93078300  1
  N  1563  1  0.63952100  0.12522300  0.39683100  1
  N  1564  1  0.63954800  0.12492600  0.41874100  1
  N  1565  1  0.58035700  0.13529500  0.38534100  1
  N  1573  1  0.12350400  0.36333300  0.64226700  1
  N  1574  1  0.12370500  0.38524700  0.64221000  1
  N  1575  1  0.11279800  0.35189000  0.70133000  1
  N  1583  1  0.12491600  0.88579400  0.64237200  1
  N  1584  1  0.12467900  0.86388600  0.64227200  1
  N  1585  1  0.13562700  0.89710300  0.70147100  1
  N  1593  1  0.36334800  0.63951400  0.15858900  1
  N  1594  1  0.38525800  0.63954800  0.15832000  1
  N  1595  1  0.35186200  0.58036200  0.16873500  1
  N  1603  1  0.88570800  0.63980600  0.15681700  1
  N  1604  1  0.86380400  0.63978900  0.15714500  1
  N  1605  1  0.89729200  0.58095600  0.14507800  1
  N  1612  1  0.24131300  0.76702800  0.78249900  1
  N  1616  1  0.24189200  0.76762900  0.83351400  1
  N  1622  1  0.24132000  0.71661200  0.83292100  1
  N  1628  1  0.24074100  0.71601100  0.78190600  1
  N  1726  1  0.71655900  0.24071500  0.83398900  1
  N  1730  1  0.76756900  0.24139600  0.83459500  1
  N  1736  1  0.76697900  0.24204800  0.78358300  1
  N  1742  1  0.71596500  0.24134500  0.78296900  1
  N  1840  1  0.76703100  0.71658500  0.30767900  1
  N  1844  1  0.76763900  0.76759500  0.30834600  1
  N  1850  1  0.71662900  0.76700800  0.30897600  1
  N  1856  1  0.71601300  0.71599300  0.30830500  1
  N  1954  1  0.74361200  0.26655300  0.28308800  1
  N  1958  1  0.74367500  0.26773700  0.33408900  1
  N  1964  1  0.74367000  0.21672900  0.33406200  1
  N  1970  1  0.74359700  0.21554400  0.28306100  1
  N  2068  1  0.21614400  0.74359000  0.33281500  1
  N  2072  1  0.26714700  0.74368700  0.33399800  1
  N  2078  1  0.26711600  0.74369000  0.28299200  1
  N  2084  1  0.21611800  0.74359000  0.28180600  1
  N  2182  1  0.26680800  0.21644300  0.80828000  1
  N  2186  1  0.26742200  0.26744800  0.80828000  1
  N  2192  1  0.21642000  0.26684200  0.80825100  1
  N  2198  1  0.21580400  0.21583700  0.80825300  1
  N  2297  1  0.24030800  0.75660600  0.54661300  1
  N  2298  1  0.24059700  0.75666300  0.56851800  1
  N  2299  1  0.22981900  0.69748700  0.53520000  1
  N  2307  1  0.24222500  0.75662800  0.06903830  1
  N  2308  1  0.24192000  0.75666300  0.04712830  1
  N  2309  1  0.25243800  0.69748200  0.08049330  1
  N  2317  1  0.48042300  0.24053400  0.82346200  1
  N  2318  1  0.50233500  0.24074600  0.82356000  1
  N  2319  1  0.46909300  0.22996300  0.76435100  1
  N  2327  1  0.00290376  0.24205000  0.82348200  1
  N  2328  1  0.98099700  0.24180800  0.82356500  1
  N  2329  1  0.01426080  0.25252700  0.76435000  1
  N  2337  1  0.75665300  0.48047700  0.30725200  1
  N  2338  1  0.75670700  0.50238900  0.30753700  1
  N  2339  1  0.69752400  0.46905800  0.29688900  1
  N  2347  1  0.75664600  0.00290876  0.30913200  1
  N  2348  1  0.75669000  0.98100400  0.30882000  1
  N  2349  1  0.69751700  0.01433780  0.31953100  1
  N  2357  1  0.75694900  0.24060900  0.06981630  1
  N  2358  1  0.75693400  0.24090900  0.04791230  1
  N  2359  1  0.69811000  0.22882800  0.08141230  1
  N  2367  1  0.75667800  0.24238000  0.54746000  1
  N  2368  1  0.75670500  0.24208300  0.56937000  1
  N  2369  1  0.69751400  0.25245200  0.53597000  1
  N  2377  1  0.24066100  0.48049000  0.79289600  1
  N  2378  1  0.24086200  0.50240400  0.79283900  1
  N  2379  1  0.22995500  0.46904700  0.85195900  1
  N  2387  1  0.24207300  0.00295076  0.79300100  1
  N  2388  1  0.24183600  0.98104300  0.79290100  1
  N  2389  1  0.25278400  0.01425980  0.85210000  1
  N  2397  1  0.48050500  0.75667100  0.30921800  1
  N  2398  1  0.50241500  0.75670500  0.30894900  1
  N  2399  1  0.46901900  0.69751900  0.31936400  1
  N  2407  1  0.00286476  0.75696300  0.30744600  1
  N  2408  1  0.98096100  0.75694600  0.30777400  1
  N  2409  1  0.01444880  0.69811300  0.29570700  1
