# generated using pymatgen
data_H6C13N3O
_symmetry_space_group_name_H-M   'P 1'
_cell_length_a   43.72940000
_cell_length_b   43.72940000
_cell_length_c   43.72940000
_cell_angle_alpha   90.00000000
_cell_angle_beta   90.00000000
_cell_angle_gamma   90.00000000
_symmetry_Int_Tables_number   1
_chemical_formula_structural   H6C13N3O
_chemical_formula_sum   'H576 C1248 N288 O96'
_cell_volume   83622.00100101
_cell_formula_units_Z   96
loop_
 _symmetry_equiv_pos_site_id
 _symmetry_equiv_pos_as_xyz
  1  'x, y, z'
loop_
 _atom_site_type_symbol
 _atom_site_label
 _atom_site_symmetry_multiplicity
 _atom_site_fract_x
 _atom_site_fract_y
 _atom_site_fract_z
 _atom_site_occupancy
  H  9  1  0.37578000  0.15210900  0.46029000  1
  H  17  1  0.17991800  0.10390600  0.40937300  1
  H  19  1  0.25529500  0.06266300  0.47661800  1
  H  20  1  0.30244900  0.07901200  0.49407100  1
  H  21  1  0.25106500  0.17924400  0.37771900  1
  H  22  1  0.30325900  0.19013000  0.38886700  1
  H  31  1  0.68187100  0.90924000  0.45668400  1
  H  39  1  0.87931100  0.95369800  0.40852000  1
  H  41  1  0.80331600  0.99769600  0.47260900  1
  H  42  1  0.75595900  0.98210200  0.49015400  1
  H  43  1  0.80634800  0.88012700  0.37487400  1
  H  44  1  0.75362200  0.87083100  0.38523800  1
  H  53  1  0.67867400  0.15834600  0.60979200  1
  H  61  1  0.87194100  0.10020900  0.65989500  1
  H  63  1  0.79944700  0.07262200  0.58321200  1
  H  64  1  0.75363600  0.09291100  0.56623100  1
  H  65  1  0.80211600  0.17408700  0.69770100  1
  H  66  1  0.75046100  0.18742200  0.68640600  1
  H  75  1  0.37784200  0.90715700  0.61009600  1
  H  83  1  0.17986300  0.95003000  0.65737800  1
  H  85  1  0.25338800  0.98896900  0.58762400  1
  H  86  1  0.30069000  0.97251800  0.57036500  1
  H  87  1  0.25422700  0.87967900  0.69455200  1
  H  88  1  0.30718300  0.87108500  0.68455400  1
  H  97  1  0.45276400  0.37956400  0.15722200  1
  H  105  1  0.40951200  0.18142500  0.11118600  1
  H  107  1  0.48179500  0.25548100  0.07674800  1
  H  108  1  0.49715600  0.30328100  0.09372700  1
  H  109  1  0.37137700  0.25333600  0.18254700  1
  H  110  1  0.38036500  0.30618300  0.19242100  1
  H  119  1  0.44951300  0.67962300  0.91028100  1
  H  127  1  0.40523100  0.87710400  0.95877500  1
  H  129  1  0.47258400  0.80073400  0.99646600  1
  H  130  1  0.48920700  0.75378400  0.97882500  1
  H  131  1  0.36817400  0.80596700  0.88486500  1
  H  132  1  0.37766200  0.75337900  0.87423000  1
  H  141  1  0.60291800  0.68025000  0.16136000  1
  H  149  1  0.65494700  0.87432800  0.10733300  1
  H  151  1  0.58009800  0.80205200  0.07485200  1
  H  152  1  0.56277100  0.75551500  0.09318300  1
  H  153  1  0.69184900  0.80198300  0.17938500  1
  H  154  1  0.68014000  0.74999500  0.19106600  1
  H  163  1  0.60392100  0.37417000  0.91377300  1
  H  171  1  0.65557800  0.17761300  0.95756300  1
  H  173  1  0.59482500  0.25425300  0.00482400  1
  H  174  1  0.57637700  0.30148900  0.98978100  1
  H  175  1  0.68554200  0.25004000  0.88182600  1
  H  176  1  0.67438700  0.30250200  0.87232200  1
  H  185  1  0.15601500  0.45257500  0.38358000  1
  H  193  1  0.10284500  0.40342700  0.18865000  1
  H  195  1  0.07107800  0.47757800  0.26192500  1
  H  196  1  0.08987900  0.49450300  0.30837400  1
  H  197  1  0.17717600  0.36742100  0.25895400  1
  H  198  1  0.18952200  0.37847100  0.31081200  1
  H  207  1  0.90901400  0.44954500  0.68405500  1
  H  215  1  0.95007600  0.40966500  0.88414700  1
  H  217  1  0.99245200  0.47374800  0.80711900  1
  H  218  1  0.97681700  0.48939200  0.75905100  1
  H  219  1  0.87772400  0.37282700  0.81178900  1
  H  220  1  0.86954900  0.38045100  0.75834600  1
  H  229  1  0.15546400  0.60227500  0.68767300  1
  H  237  1  0.10118600  0.65641000  0.88108500  1
  H  239  1  0.06498100  0.58443800  0.80731800  1
  H  240  1  0.08318400  0.56628800  0.76106500  1
  H  241  1  0.17651600  0.68907000  0.81055600  1
  H  242  1  0.18846100  0.67726100  0.75859300  1
  H  251  1  0.90588300  0.60621500  0.38215500  1
  H  259  1  0.94933000  0.65346000  0.18426500  1
  H  261  1  0.98801100  0.58393700  0.25789100  1
  H  262  1  0.97157800  0.56670200  0.30525500  1
  H  263  1  0.87845600  0.69067600  0.25849200  1
  H  264  1  0.86932400  0.68025500  0.31115500  1
  H  273  1  0.15172600  0.37586600  0.60784300  1
  H  281  1  0.10405600  0.17979100  0.65845200  1
  H  283  1  0.06268300  0.25513100  0.59124400  1
  H  284  1  0.07888600  0.30236900  0.57389600  1
  H  285  1  0.17920900  0.25108500  0.69021400  1
  H  286  1  0.18993300  0.30333400  0.67917300  1
  H  295  1  0.90953100  0.68167200  0.61171900  1
  H  303  1  0.95351300  0.87934500  0.65935100  1
  H  305  1  0.99802300  0.80309700  0.59591100  1
  H  306  1  0.98259400  0.75565000  0.57848500  1
  H  307  1  0.87991500  0.80638700  0.69298100  1
  H  308  1  0.87074200  0.75361000  0.68278400  1
  H  317  1  0.15837400  0.67865600  0.45856800  1
  H  325  1  0.10035700  0.87189200  0.40825700  1
  H  327  1  0.07289800  0.79961800  0.48518400  1
  H  328  1  0.09317000  0.75379800  0.50221000  1
  H  329  1  0.17410600  0.80193500  0.37045800  1
  H  330  1  0.18734100  0.75025300  0.38178200  1
  H  339  1  0.90713900  0.37782200  0.45797100  1
  H  347  1  0.95000500  0.17985700  0.41063000  1
  H  349  1  0.98913600  0.25345400  0.48020800  1
  H  350  1  0.97270100  0.30075900  0.49749600  1
  H  351  1  0.87954900  0.25418600  0.37358000  1
  H  352  1  0.87091800  0.30712300  0.38360700  1
  H  361  1  0.37940600  0.45292200  0.91032900  1
  H  369  1  0.18153400  0.40908400  0.95692500  1
  H  371  1  0.25542800  0.48170400  0.99103900  1
  H  372  1  0.30310300  0.49721500  0.97388600  1
  H  373  1  0.25336100  0.37111900  0.88541400  1
  H  374  1  0.30616700  0.38026200  0.87539600  1
  H  383  1  0.67968800  0.44936400  0.15791800  1
  H  391  1  0.87709300  0.40509200  0.10910800  1
  H  393  1  0.80049000  0.47209000  0.07122000  1
  H  394  1  0.75356900  0.48874300  0.08891300  1
  H  395  1  0.80620200  0.36829000  0.18336300  1
  H  396  1  0.75365800  0.37779700  0.19415100  1
  H  405  1  0.68038000  0.60296600  0.90658300  1
  H  413  1  0.87426800  0.65519100  0.96109300  1
  H  415  1  0.80193900  0.58032600  0.99348100  1
  H  416  1  0.75547400  0.56294000  0.97503400  1
  H  417  1  0.80214100  0.69189400  0.88875500  1
  H  418  1  0.75018500  0.68014300  0.87693500  1
  H  427  1  0.37394800  0.60385100  0.15468000  1
  H  435  1  0.17747300  0.65572900  0.11076900  1
  H  437  1  0.25393000  0.59456200  0.06376700  1
  H  438  1  0.30112000  0.57607100  0.07887200  1
  H  439  1  0.25005400  0.68596200  0.18627300  1
  H  440  1  0.30247400  0.67468600  0.19582200  1
  H  449  1  0.45258400  0.15546200  0.68451500  1
  H  457  1  0.40368500  0.10283100  0.87966300  1
  H  459  1  0.47765200  0.07077700  0.80634200  1
  H  460  1  0.49450800  0.08942600  0.75979800  1
  H  461  1  0.36751100  0.17690600  0.80913800  1
  H  462  1  0.37853300  0.18914000  0.75726200  1
  H  471  1  0.44951700  0.90902300  0.38407400  1
  H  479  1  0.40986900  0.95001400  0.18391600  1
  H  481  1  0.47395800  0.99233300  0.26096700  1
  H  482  1  0.48953200  0.97671500  0.30906000  1
  H  483  1  0.37285000  0.87777000  0.25630400  1
  H  484  1  0.38041900  0.86962200  0.30975500  1
  H  493  1  0.60224800  0.15531900  0.38052500  1
  H  501  1  0.65659300  0.10096000  0.18719700  1
  H  503  1  0.58458200  0.06471400  0.26093700  1
  H  504  1  0.56638400  0.08293700  0.30716900  1
  H  505  1  0.68913000  0.17632600  0.25769600  1
  H  506  1  0.67728000  0.18829700  0.30964800  1
  H  515  1  0.60609600  0.90549900  0.68617500  1
  H  523  1  0.65376200  0.94941000  0.88385200  1
  H  525  1  0.58360100  0.98742600  0.81051000  1
  H  526  1  0.56627400  0.97080500  0.76325400  1
  H  527  1  0.69103200  0.87856300  0.80963900  1
  H  528  1  0.68050600  0.86932700  0.75701100  1
  H  537  1  0.67497000  0.95278300  0.60994300  1
  H  545  1  0.88320300  0.95198500  0.60804000  1
  H  547  1  0.80594400  0.00631400  0.55412000  1
  H  548  1  0.75198400  0.00556900  0.55355700  1
  H  549  1  0.80598900  0.89730100  0.66129900  1
  H  550  1  0.75278300  0.90044500  0.66462900  1
  H  559  1  0.38497700  0.10821200  0.61313500  1
  H  567  1  0.17709300  0.10268400  0.60675900  1
  H  569  1  0.25712500  0.04519400  0.56080400  1
  H  570  1  0.31133300  0.04794500  0.56090900  1
  H  571  1  0.25140100  0.16768900  0.65226400  1
  H  572  1  0.30461200  0.16673700  0.65690400  1
  H  581  1  0.37583000  0.95316300  0.45638200  1
  H  589  1  0.16775400  0.94991800  0.45464400  1
  H  591  1  0.24333500  0.00264400  0.51212300  1
  H  592  1  0.29756200  0.00181900  0.51402500  1
  H  593  1  0.24636300  0.90209600  0.39703100  1
  H  594  1  0.29960200  0.90554300  0.39516000  1
  H  603  1  0.67251800  0.10225200  0.45802400  1
  H  611  1  0.88031000  0.10852600  0.45819800  1
  H  613  1  0.80530100  0.05141500  0.51155100  1
  H  614  1  0.75073100  0.05216000  0.51383800  1
  H  615  1  0.80140000  0.16025800  0.40422300  1
  H  616  1  0.74821400  0.15574300  0.40143300  1
  H  625  1  0.60086600  0.67564700  0.96339400  1
  H  633  1  0.61199200  0.88310000  0.95447100  1
  H  635  1  0.54878200  0.81191000  0.00639000  1
  H  636  1  0.54448800  0.75777900  0.00704300  1
  H  637  1  0.66955000  0.80077600  0.91339300  1
  H  638  1  0.66918400  0.74763300  0.91901600  1
  H  647  1  0.60919000  0.38011500  0.11176800  1
  H  655  1  0.60023100  0.17237600  0.11007500  1
  H  657  1  0.55289200  0.25178300  0.05333200  1
  H  658  1  0.55292800  0.30629100  0.05588700  1
  H  659  1  0.65104800  0.24705600  0.17051500  1
  H  660  1  0.65638300  0.30020600  0.16830700  1
  H  669  1  0.45295200  0.38009500  0.95628000  1
  H  677  1  0.44926300  0.17177500  0.95749400  1
  H  679  1  0.50618600  0.24824500  0.01019200  1
  H  680  1  0.50800000  0.30203300  0.00903900  1
  H  681  1  0.39482900  0.24996900  0.90546700  1
  H  682  1  0.39341500  0.30327200  0.90766700  1
  H  691  1  0.44930000  0.66833400  0.11476100  1
  H  699  1  0.45923800  0.87584900  0.10952300  1
  H  701  1  0.50252500  0.79514500  0.05097500  1
  H  702  1  0.50181800  0.74088400  0.05391800  1
  H  703  1  0.41417500  0.80217300  0.17568500  1
  H  704  1  0.40862900  0.74906200  0.17469900  1
  H  713  1  0.95319000  0.60454400  0.68522600  1
  H  721  1  0.94938700  0.60922700  0.89327200  1
  H  723  1  0.00172000  0.55009700  0.81871300  1
  H  724  1  0.00101300  0.54736500  0.76450000  1
  H  725  1  0.90176700  0.66564400  0.81372300  1
  H  726  1  0.90533000  0.66666667  0.76047100  1
  H  735  1  0.10185400  0.60474000  0.38894500  1
  H  743  1  0.10262800  0.60429000  0.18100400  1
  H  745  1  0.04673700  0.55179900  0.25782400  1
  H  746  1  0.04880900  0.54969900  0.31233200  1
  H  747  1  0.16020900  0.65431800  0.25835300  1
  H  748  1  0.15698900  0.65766300  0.31165300  1
  H  757  1  0.95650400  0.45383500  0.38567500  1
  H  765  1  0.95188700  0.45196000  0.17761200  1
  H  767  1  0.00529700  0.50918000  0.25285500  1
  H  768  1  0.00497900  0.51099800  0.30708900  1
  H  769  1  0.90242300  0.39620100  0.25661900  1
  H  770  1  0.90653700  0.39404000  0.30984000  1
  H  779  1  0.10980200  0.44998800  0.67542000  1
  H  787  1  0.10478100  0.45507000  0.88335400  1
  H  789  1  0.04728200  0.50176600  0.80370300  1
  H  790  1  0.05001800  0.50208400  0.74950800  1
  H  791  1  0.16805600  0.40798700  0.80848000  1
  H  792  1  0.16719000  0.40411500  0.75524500  1
  H  801  1  0.95261200  0.67521700  0.45835800  1
  H  809  1  0.95213100  0.88346100  0.45970300  1
  H  811  1  0.00614400  0.80626600  0.51403200  1
  H  812  1  0.00532500  0.75231400  0.51473200  1
  H  813  1  0.89754100  0.80619100  0.40643900  1
  H  814  1  0.90055700  0.75297200  0.40331000  1
  H  823  1  0.10821700  0.38479600  0.45488700  1
  H  831  1  0.10270000  0.17689200  0.46119800  1
  H  833  1  0.04530200  0.25689600  0.50729300  1
  H  834  1  0.04803000  0.31109800  0.50718600  1
  H  835  1  0.16745600  0.25122300  0.41538500  1
  H  836  1  0.16648800  0.30443600  0.41076800  1
  H  845  1  0.95295200  0.37583200  0.61167800  1
  H  853  1  0.94996400  0.16774500  0.61346400  1
  H  855  1  0.00270100  0.24339000  0.55605900  1
  H  856  1  0.00181500  0.29761700  0.55414700  1
  H  857  1  0.90193000  0.24631500  0.67095900  1
  H  858  1  0.90528900  0.29956100  0.67280900  1
  H  867  1  0.10224300  0.67249600  0.61032700  1
  H  875  1  0.10853100  0.88028300  0.60992400  1
  H  877  1  0.05139200  0.80521600  0.55667200  1
  H  878  1  0.05213200  0.75065100  0.55444900  1
  H  879  1  0.16023500  0.80143000  0.66400500  1
  H  880  1  0.15570900  0.74824800  0.66686300  1
  H  889  1  0.67559200  0.60067400  0.10468400  1
  H  897  1  0.88302900  0.61171700  0.11382100  1
  H  899  1  0.81188500  0.54860600  0.06175100  1
  H  900  1  0.75775000  0.54431600  0.06105600  1
  H  901  1  0.80068900  0.66930800  0.15482600  1
  H  902  1  0.74755000  0.66897800  0.14912700  1
  H  911  1  0.38007400  0.60882700  0.95731300  1
  H  919  1  0.17230500  0.60045200  0.95812700  1
  H  921  1  0.25133500  0.55254400  0.01488400  1
  H  922  1  0.30586300  0.55238600  0.01248700  1
  H  923  1  0.24735300  0.65181400  0.89862500  1
  H  924  1  0.30050700  0.65699300  0.90110200  1
  H  933  1  0.38007000  0.45293600  0.11182900  1
  H  941  1  0.17174700  0.44953300  0.11037400  1
  H  943  1  0.24837500  0.50611100  0.05751800  1
  H  944  1  0.30217700  0.50787800  0.05877200  1
  H  945  1  0.24979800  0.39541400  0.16294700  1
  H  946  1  0.30310100  0.39390200  0.16081400  1
  H  955  1  0.66841100  0.44934300  0.95316700  1
  H  963  1  0.87591000  0.45947600  0.95849600  1
  H  965  1  0.79514800  0.50260500  0.01706700  1
  H  966  1  0.74088700  0.50185000  0.01410100  1
  H  967  1  0.80230800  0.41442900  0.89224300  1
  H  968  1  0.74920100  0.40881900  0.89320800  1
  H  977  1  0.60448900  0.95340100  0.38308400  1
  H  985  1  0.60947800  0.94907400  0.17506400  1
  H  987  1  0.55008400  0.00140600  0.24938200  1
  H  988  1  0.54728000  0.00084600  0.30359500  1
  H  989  1  0.66608800  0.90201400  0.25480800  1
  H  990  1  0.66701200  0.90573500  0.30805200  1
  H  999  1  0.60520900  0.10236000  0.67918000  1
  H  1007  1  0.60385500  0.10229600  0.88709700  1
  H  1009  1  0.55226300  0.04616300  0.80979500  1
  H  1010  1  0.55040100  0.04841300  0.75528900  1
  H  1011  1  0.65297300  0.16126100  0.81020200  1
  H  1012  1  0.65660000  0.15830600  0.75690600  1
  H  1021  1  0.45396000  0.95695000  0.68247100  1
  H  1029  1  0.45173100  0.95155800  0.89049800  1
  H  1031  1  0.50935600  0.00494100  0.81556400  1
  H  1032  1  0.51126500  0.00481300  0.76133300  1
  H  1033  1  0.39565200  0.90289700  0.81122600  1
  H  1034  1  0.39358200  0.90725100  0.75802400  1
  H  1043  1  0.44995400  0.10989800  0.39275700  1
  H  1051  1  0.45501500  0.10477900  0.18481900  1
  H  1053  1  0.50168100  0.04728100  0.26449700  1
  H  1054  1  0.50198800  0.05002500  0.31868700  1
  H  1055  1  0.40793400  0.16807800  0.25967500  1
  H  1056  1  0.40408100  0.16725000  0.31290900  1
  H  1063  1  0.18745500  0.20779800  0.46496200  1
  H  1067  1  0.19512900  0.14168200  0.34384000  1
  H  1068  1  0.16457600  0.12756300  0.32611000  1
  H  1075  1  0.87025100  0.84697600  0.45735400  1
  H  1079  1  0.86341300  0.92057600  0.34096500  1
  H  1080  1  0.89399400  0.93579500  0.32419600  1
  H  1087  1  0.87099200  0.21108300  0.61838100  1
  H  1091  1  0.85723200  0.12956400  0.72859300  1
  H  1092  1  0.88634300  0.11077200  0.74432400  1
  H  1099  1  0.18931900  0.84063000  0.61420700  1
  H  1103  1  0.19612700  0.92074500  0.72616000  1
  H  1104  1  0.16556700  0.93700200  0.74197100  1
  H  1111  1  0.45686200  0.18941100  0.21888600  1
  H  1115  1  0.34135600  0.19665500  0.14337100  1
  H  1116  1  0.32504700  0.16607500  0.12767700  1
  H  1123  1  0.44674800  0.87190400  0.84850100  1
  H  1127  1  0.33603100  0.86177100  0.92977100  1
  H  1128  1  0.32030400  0.89161800  0.94737500  1
  H  1135  1  0.61526600  0.87011100  0.21898900  1
  H  1139  1  0.72359400  0.85830200  0.13477500  1
  H  1140  1  0.73908000  0.88787000  0.11649400  1
  H  1147  1  0.60220600  0.18546300  0.85310600  1
  H  1151  1  0.72186700  0.19399400  0.92122500  1
  H  1152  1  0.73967900  0.16363100  0.93566200  1
  H  1159  1  0.21269500  0.44713400  0.19119400  1
  H  1163  1  0.13321400  0.33522300  0.20382700  1
  H  1164  1  0.11525000  0.31907200  0.17442700  1
  H  1171  1  0.84597400  0.46227100  0.87283200  1
  H  1175  1  0.91420300  0.34210000  0.86903900  1
  H  1176  1  0.92783000  0.32518400  0.90027200  1
  H  1183  1  0.20510500  0.59989200  0.87514200  1
  H  1187  1  0.14002100  0.72148100  0.86714500  1
  H  1188  1  0.12533300  0.73903700  0.89753200  1
  H  1195  1  0.83612700  0.61976200  0.19052400  1
  H  1199  1  0.92577200  0.72335600  0.20218000  1
  H  1200  1  0.94439800  0.73835100  0.17256700  1
  H  1207  1  0.20788400  0.18753500  0.60286300  1
  H  1211  1  0.14181100  0.19508700  0.72402600  1
  H  1212  1  0.12775900  0.16450600  0.74176000  1
  H  1219  1  0.84692100  0.87009300  0.61034700  1
  H  1223  1  0.92025800  0.86344100  0.72692400  1
  H  1224  1  0.93538300  0.89405600  0.74370600  1
  H  1231  1  0.21124500  0.87102400  0.44968200  1
  H  1235  1  0.12964400  0.85706700  0.33955900  1
  H  1236  1  0.11081400  0.88614400  0.32381000  1
  H  1243  1  0.84067800  0.18932600  0.45395800  1
  H  1247  1  0.92063100  0.19609900  0.34188500  1
  H  1248  1  0.93686300  0.16553400  0.32606000  1
  H  1255  1  0.18939800  0.45692600  0.84936300  1
  H  1259  1  0.19661100  0.34109100  0.92437700  1
  H  1260  1  0.16603200  0.32474700  0.94003700  1
  H  1267  1  0.87194500  0.44739100  0.21906600  1
  H  1271  1  0.86192200  0.33602100  0.13864200  1
  H  1272  1  0.89179200  0.32019000  0.12117100  1
  H  1279  1  0.87023000  0.61466300  0.84975200  1
  H  1283  1  0.85841000  0.72370400  0.93306400  1
  H  1284  1  0.88797100  0.73930700  0.95125100  1
  H  1291  1  0.18535800  0.60343200  0.21588800  1
  H  1295  1  0.19386500  0.72222900  0.14632600  1
  H  1296  1  0.16351400  0.73985100  0.13163000  1
  H  1303  1  0.44646400  0.21307900  0.87685700  1
  H  1307  1  0.33531500  0.13256700  0.86429600  1
  H  1308  1  0.31928700  0.11452000  0.89371300  1
  H  1315  1  0.46202600  0.84570200  0.19517700  1
  H  1319  1  0.34216400  0.91445000  0.19909300  1
  H  1320  1  0.32528500  0.92817000  0.16788200  1
  H  1327  1  0.59927200  0.20441400  0.19334200  1
  H  1331  1  0.72144700  0.14034600  0.20107000  1
  H  1332  1  0.73909400  0.12589800  0.17062200  1
  H  1339  1  0.62007300  0.83613800  0.87771700  1
  H  1343  1  0.72361000  0.92583800  0.86602200  1
  H  1344  1  0.73858200  0.94450300  0.89562300  1
  H  1351  1  0.68617100  0.70209600  0.96944000  1
  H  1355  1  0.69527400  0.64657500  0.84309700  1
  H  1356  1  0.66491300  0.63387800  0.82402800  1
  H  1363  1  0.36931300  0.34451000  0.95613600  1
  H  1367  1  0.36331400  0.42209900  0.84222100  1
  H  1368  1  0.39410400  0.43744800  0.82596500  1
  H  1375  1  0.37309700  0.71723000  0.12338300  1
  H  1379  1  0.35692500  0.62624100  0.22537900  1
  H  1380  1  0.38559000  0.60584200  0.23989600  1
  H  1387  1  0.68816500  0.33791700  0.11822800  1
  H  1391  1  0.69609500  0.42231400  0.22678200  1
  H  1392  1  0.66577000  0.43945100  0.24211200  1
  H  1399  1  0.95469500  0.68884400  0.72059100  1
  H  1403  1  0.84091800  0.69717700  0.64277000  1
  H  1404  1  0.82475300  0.66681100  0.62652400  1
  H  1411  1  0.95635700  0.37013600  0.35089500  1
  H  1415  1  0.83953400  0.36380400  0.42415000  1
  H  1416  1  0.82315900  0.39443800  0.43966800  1
  H  1423  1  0.11656300  0.37146900  0.72068500  1
  H  1427  1  0.22140300  0.35894400  0.63234600  1
  H  1428  1  0.23639500  0.38838000  0.61344800  1
  H  1435  1  0.10414600  0.68545000  0.35332100  1
  H  1439  1  0.22361100  0.69374700  0.42172800  1
  H  1440  1  0.24114200  0.66342800  0.43660400  1
  H  1447  1  0.71361400  0.95164400  0.69147800  1
  H  1451  1  0.63804700  0.83666900  0.70176400  1
  H  1452  1  0.62136300  0.82010600  0.67184800  1
  H  1459  1  0.34091700  0.95292500  0.37191700  1
  H  1463  1  0.41992200  0.83979500  0.36805700  1
  H  1464  1  0.43513300  0.82412800  0.39921700  1
  H  1471  1  0.70815800  0.10276400  0.37592800  1
  H  1475  1  0.63837000  0.22139900  0.36570200  1
  H  1476  1  0.62257000  0.23874300  0.39565200  1
  H  1483  1  0.34129700  0.11544700  0.69062500  1
  H  1487  1  0.42518300  0.22405700  0.70112400  1
  H  1488  1  0.44281700  0.23978600  0.67129000  1
  H  1495  1  0.70205500  0.68597800  0.09861300  1
  H  1499  1  0.64651300  0.69519000  0.22493100  1
  H  1500  1  0.63380300  0.66484900  0.24402400  1
  H  1507  1  0.34405500  0.36944500  0.11225300  1
  H  1511  1  0.42252400  0.36328900  0.22553200  1
  H  1512  1  0.43801500  0.39404900  0.24171200  1
  H  1519  1  0.71750000  0.37317900  0.94436300  1
  H  1523  1  0.62583600  0.35701400  0.84297800  1
  H  1524  1  0.60537400  0.38568600  0.82856700  1
  H  1531  1  0.33863500  0.68819700  0.95131500  1
  H  1535  1  0.42158200  0.69577700  0.84158300  1
  H  1536  1  0.43848100  0.66538800  0.82611800  1
  H  1543  1  0.68887400  0.95521000  0.34813200  1
  H  1547  1  0.69728400  0.84082200  0.42506900  1
  H  1548  1  0.66692500  0.82452800  0.44120200  1
  H  1555  1  0.37009000  0.95713000  0.71671500  1
  H  1559  1  0.36382700  0.83966500  0.64445500  1
  H  1560  1  0.39448300  0.82315900  0.62911700  1
  H  1567  1  0.37144400  0.11662100  0.34752200  1
  H  1571  1  0.35890800  0.22170100  0.43557000  1
  H  1572  1  0.38833900  0.23673800  0.45443800  1
  H  1579  1  0.68538900  0.10536500  0.71580100  1
  H  1583  1  0.69391100  0.22381400  0.64574900  1
  H  1584  1  0.66364600  0.24118400  0.63057600  1
  H  1591  1  0.95158700  0.71383400  0.37669200  1
  H  1595  1  0.83688900  0.63784400  0.36641500  1
  H  1596  1  0.82036200  0.62114100  0.39634000  1
  H  1603  1  0.95266200  0.34078900  0.69613200  1
  H  1607  1  0.83976300  0.42010400  0.70004900  1
  H  1608  1  0.82413500  0.43538900  0.66890300  1
  H  1615  1  0.10281400  0.70811500  0.69242500  1
  H  1619  1  0.22154100  0.63845200  0.70246400  1
  H  1620  1  0.23886900  0.62269400  0.67248200  1
  H  1627  1  0.11533300  0.34143700  0.37723900  1
  H  1631  1  0.22444100  0.42474200  0.36716800  1
  H  1632  1  0.24020000  0.44221800  0.39707900  1
  H  1639  1  0.19111300  0.02490600  0.50594200  1
  H  1643  1  0.25207300  0.05917400  0.38992800  1
  H  1644  1  0.24150100  0.04695800  0.35551900  1
  H  1651  1  0.86611800  0.03291700  0.50332800  1
  H  1655  1  0.81275600  0.06406700  0.38622800  1
  H  1656  1  0.81362700  0.04497700  0.35330700  1
  H  1663  1  0.86024800  0.02652200  0.55830700  1
  H  1667  1  0.79747100  0.06019900  0.67318400  1
  H  1668  1  0.80656100  0.04690200  0.70764600  1
  H  1675  1  0.19246500  0.02991900  0.56193100  1
  H  1679  1  0.25000400  0.05719000  0.67781200  1
  H  1680  1  0.24837500  0.03837000  0.71086300  1
  H  1687  1  0.50444100  0.19472700  0.02916800  1
  H  1691  1  0.39092000  0.25546200  0.06944300  1
  H  1692  1  0.35575200  0.24497300  0.05940800  1
  H  1699  1  0.50180700  0.86095700  0.03616900  1
  H  1703  1  0.38494500  0.80617000  0.06631500  1
  H  1704  1  0.35175200  0.80824200  0.04780600  1
  H  1711  1  0.55720500  0.86364900  0.02860100  1
  H  1715  1  0.67013100  0.79992900  0.06610700  1
  H  1716  1  0.70524500  0.80923200  0.05480800  1
  H  1723  1  0.55975700  0.18950400  0.03393600  1
  H  1727  1  0.67593900  0.24118400  0.07188600  1
  H  1728  1  0.70920300  0.24194300  0.05339600  1
  H  1735  1  0.02690700  0.50295300  0.19995300  1
  H  1739  1  0.06144700  0.38828400  0.26273900  1
  H  1740  1  0.04875400  0.35368700  0.25333100  1
  H  1747  1  0.03264400  0.50214800  0.86713600  1
  H  1751  1  0.05757200  0.38279500  0.81563300  1
  H  1752  1  0.03773000  0.35044200  0.81857800  1
  H  1759  1  0.02422800  0.55769200  0.87109200  1
  H  1763  1  0.05840100  0.67244300  0.80778900  1
  H  1764  1  0.04569500  0.70699900  0.81727700  1
  H  1771  1  0.02877600  0.55829800  0.19540800  1
  H  1775  1  0.05751600  0.67342600  0.25354100  1
  H  1776  1  0.03823100  0.70623900  0.25362100  1
  H  1783  1  0.02480300  0.19104100  0.56204100  1
  H  1787  1  0.05919300  0.25211200  0.67784900  1
  H  1788  1  0.04712300  0.24157200  0.71232200  1
  H  1795  1  0.03287400  0.86586200  0.56473000  1
  H  1799  1  0.06416400  0.81330700  0.68216900  1
  H  1800  1  0.04501000  0.81424000  0.71504800  1
  H  1807  1  0.02650100  0.86050700  0.50971200  1
  H  1811  1  0.06042600  0.79732200  0.39513700  1
  H  1812  1  0.04723100  0.80631000  0.36060900  1
  H  1819  1  0.02987300  0.19241100  0.50605400  1
  H  1823  1  0.05736700  0.24967000  0.39009500  1
  H  1824  1  0.03851300  0.24811700  0.35706000  1
  H  1831  1  0.19472100  0.50438000  0.03856800  1
  H  1835  1  0.25564100  0.39084700  0.99857700  1
  H  1836  1  0.24527500  0.35569500  0.00879000  1
  H  1843  1  0.86085200  0.50180200  0.03201400  1
  H  1847  1  0.80652900  0.38486700  0.00121300  1
  H  1848  1  0.80851600  0.35165200  0.01969100  1
  H  1855  1  0.86361000  0.55720000  0.03948700  1
  H  1859  1  0.79988600  0.67026100  0.00227900  1
  H  1860  1  0.80915400  0.70532700  0.01374400  1
  H  1867  1  0.18924200  0.55978900  0.03439300  1
  H  1871  1  0.24112400  0.67590100  0.99660000  1
  H  1872  1  0.24187600  0.70916900  0.01507900  1
  H  1879  1  0.50298900  0.02659900  0.86830700  1
  H  1883  1  0.38831300  0.06128700  0.80566200  1
  H  1884  1  0.35369600  0.04871800  0.81516400  1
  H  1891  1  0.50225100  0.03273600  0.20106700  1
  H  1895  1  0.38283200  0.05729600  0.25255300  1
  H  1896  1  0.35049500  0.03745000  0.24947300  1
  H  1903  1  0.55785200  0.02399100  0.19713400  1
  H  1907  1  0.67259400  0.05812400  0.26044700  1
  H  1908  1  0.70715400  0.04543100  0.25095300  1
  H  1915  1  0.55832500  0.02859000  0.87285800  1
  H  1919  1  0.67304400  0.05727300  0.81386500  1
  H  1920  1  0.70592600  0.03810600  0.81377600  1
  H  1927  1  0.69048800  0.52597400  0.00467800  1
  H  1931  1  0.75201000  0.55826600  0.88842800  1
  H  1932  1  0.74166000  0.54541600  0.85417900  1
  H  1939  1  0.36598100  0.53354100  0.00383200  1
  H  1943  1  0.31310300  0.56299500  0.88616000  1
  H  1944  1  0.31399700  0.54343600  0.85351800  1
  H  1951  1  0.35827000  0.52385200  0.05780900  1
  H  1955  1  0.29745500  0.56552900  0.17055600  1
  H  1956  1  0.30700000  0.55504400  0.20587400  1
  H  1963  1  0.69201800  0.52797300  0.06166900  1
  H  1967  1  0.74872100  0.55814000  0.17742200  1
  H  1968  1  0.74783200  0.53937900  0.21052800  1
  H  1975  1  0.00610600  0.69717500  0.53081700  1
  H  1979  1  0.89130500  0.75538000  0.57028700  1
  H  1980  1  0.85638600  0.74459100  0.55969500  1
  H  1987  1  0.99989300  0.36135000  0.53942900  1
  H  1991  1  0.88200500  0.30655800  0.56465300  1
  H  1992  1  0.84967400  0.30823900  0.54463900  1
  H  1999  1  0.05450700  0.36373700  0.52865200  1
  H  2003  1  0.16858400  0.30191400  0.56592000  1
  H  2004  1  0.20353000  0.31197300  0.55476000  1
  H  2011  1  0.06147400  0.68843900  0.53404900  1
  H  2015  1  0.17601400  0.74362400  0.57172300  1
  H  2016  1  0.20922600  0.74546900  0.55323000  1
  H  2023  1  0.52878200  0.00165200  0.70056600  1
  H  2027  1  0.49647200  0.88462500  0.75247400  1
  H  2028  1  0.51506800  0.85142800  0.75150400  1
  H  2035  1  0.53323000  0.00158100  0.36776700  1
  H  2039  1  0.55413300  0.88335400  0.31262700  1
  H  2040  1  0.53475500  0.85082000  0.31660000  1
  H  2047  1  0.52450300  0.05728200  0.37078800  1
  H  2051  1  0.55961000  0.17141000  0.30723800  1
  H  2052  1  0.54749900  0.20618000  0.31674800  1
  H  2059  1  0.52886000  0.05848700  0.69573900  1
  H  2063  1  0.56433700  0.17430900  0.74882600  1
  H  2064  1  0.54576400  0.20752000  0.74950600  1
  H  2071  1  0.52595100  0.69049500  0.06332100  1
  H  2075  1  0.55819900  0.75185600  0.17970200  1
  H  2076  1  0.54531100  0.74145600  0.21391900  1
  H  2083  1  0.53415400  0.36605800  0.06430900  1
  H  2087  1  0.56234800  0.31313100  0.18213800  1
  H  2088  1  0.54259900  0.31414800  0.21466300  1
  H  2095  1  0.52362800  0.35832400  0.01046700  1
  H  2099  1  0.56566100  0.29748900  0.89796400  1
  H  2100  1  0.55535700  0.30700400  0.86258300  1
  H  2107  1  0.52812600  0.69214600  0.00641300  1
  H  2111  1  0.55851000  0.74844500  0.89048600  1
  H  2112  1  0.53969700  0.74758700  0.85740800  1
  H  2119  1  0.69704000  0.00605600  0.53719700  1
  H  2123  1  0.75539400  0.89105800  0.49826700  1
  H  2124  1  0.74461200  0.85619800  0.50905200  1
  H  2131  1  0.36125800  0.99998400  0.52872700  1
  H  2135  1  0.30681200  0.88196800  0.50326800  1
  H  2136  1  0.30857100  0.84961700  0.52324100  1
  H  2143  1  0.36390400  0.05466300  0.53922400  1
  H  2147  1  0.30186400  0.16871100  0.50223200  1
  H  2148  1  0.31184800  0.20364800  0.51349000  1
  H  2155  1  0.68835200  0.06145300  0.53420600  1
  H  2159  1  0.74386400  0.17591400  0.49680100  1
  H  2160  1  0.74568400  0.20912000  0.51530800  1
  H  2167  1  0.00179100  0.52842800  0.36781000  1
  H  2171  1  0.88506700  0.49753300  0.31466000  1
  H  2172  1  0.85182600  0.51603800  0.31598500  1
  H  2179  1  0.00155100  0.53329400  0.70041700  1
  H  2183  1  0.88336100  0.55400100  0.75568000  1
  H  2184  1  0.85082900  0.53462500  0.75168300  1
  H  2191  1  0.05732400  0.52464500  0.69744000  1
  H  2195  1  0.17160000  0.55950100  0.76086600  1
  H  2196  1  0.20633600  0.54733500  0.75130100  1
  H  2203  1  0.05871800  0.52842800  0.37245000  1
  H  2207  1  0.17433300  0.56454300  0.31909000  1
  H  2208  1  0.20761800  0.54610500  0.31838300  1
  C  1  1  0.29334500  0.13173300  0.43846700  1
  C  2  1  0.30831500  0.11596900  0.46268900  1
  C  3  1  0.33772500  0.12592300  0.47222700  1
  C  4  1  0.35329400  0.14808600  0.45502400  1
  C  5  1  0.34013300  0.16155500  0.42881500  1
  C  6  1  0.30869600  0.15578600  0.42283300  1
  C  7  1  0.29289200  0.09127200  0.47671400  1
  C  8  1  0.29288800  0.17236600  0.40004700  1
  C  10  1  0.26308600  0.12337400  0.42968400  1
  C  11  1  0.24841400  0.09777200  0.44337700  1
  C  12  1  0.21865400  0.08936700  0.43336600  1
  C  13  1  0.20269900  0.10828700  0.41291700  1
  C  14  1  0.21542100  0.13611300  0.40271600  1
  C  15  1  0.24707700  0.14132500  0.40782900  1
  C  16  1  0.26442900  0.08140300  0.46618300  1
  C  18  1  0.26212600  0.16612900  0.39365300  1
  C  23  1  0.76463700  0.92871000  0.43518400  1
  C  24  1  0.74974600  0.94479300  0.45925400  1
  C  25  1  0.72026400  0.93505100  0.46890700  1
  C  26  1  0.70443700  0.91313300  0.45156800  1
  C  27  1  0.71731200  0.90021400  0.42496800  1
  C  28  1  0.74895700  0.90498500  0.41946600  1
  C  29  1  0.76539200  0.96950700  0.47298900  1
  C  30  1  0.76444800  0.88817400  0.39665100  1
  C  32  1  0.79509300  0.93641700  0.42651000  1
  C  33  1  0.80982000  0.96218700  0.43975500  1
  C  34  1  0.83992500  0.96987900  0.43028100  1
  C  35  1  0.85644700  0.94959800  0.41176200  1
  C  36  1  0.84296000  0.92249200  0.40058400  1
  C  37  1  0.81111000  0.91781600  0.40518500  1
  C  38  1  0.79389000  0.97905200  0.46225900  1
  C  40  1  0.79550700  0.89346800  0.39076500  1
  C  45  1  0.76167600  0.13704200  0.62898500  1
  C  46  1  0.74729400  0.12506400  0.60240800  1
  C  47  1  0.71779000  0.13582400  0.59408600  1
  C  48  1  0.70139600  0.15461000  0.61425300  1
  C  49  1  0.71437600  0.16435800  0.64215000  1
  C  50  1  0.74592200  0.15857900  0.64756300  1
  C  51  1  0.76282800  0.10232100  0.58548800  1
  C  52  1  0.76116400  0.17153800  0.67294100  1
  C  54  1  0.79130100  0.12662800  0.63771800  1
  C  55  1  0.80563700  0.10228500  0.62152100  1
  C  56  1  0.83415400  0.09086800  0.63214700  1
  C  57  1  0.84985000  0.10661700  0.65531500  1
  C  58  1  0.83768700  0.13331300  0.66870900  1
  C  59  1  0.80664800  0.14075100  0.66266000  1
  C  60  1  0.79040000  0.09000800  0.59580600  1
  C  62  1  0.79158900  0.16386400  0.67945700  1
  C  67  1  0.29402200  0.92404700  0.62998000  1
  C  68  1  0.30803600  0.93821900  0.60430600  1
  C  69  1  0.33785100  0.92892700  0.59539900  1
  C  70  1  0.35509100  0.91021900  0.61492300  1
  C  71  1  0.34248600  0.89857700  0.64229400  1
  C  72  1  0.31067000  0.90242800  0.64760400  1
  C  73  1  0.29169000  0.96133100  0.58872800  1
  C  74  1  0.29577800  0.88707900  0.67182100  1
  C  76  1  0.26357100  0.93187700  0.63847000  1
  C  77  1  0.24827700  0.95644000  0.62365200  1
  C  78  1  0.21853600  0.96486400  0.63359000  1
  C  79  1  0.20258400  0.94560500  0.65365200  1
  C  80  1  0.21646800  0.91931400  0.66634000  1
  C  81  1  0.24828900  0.91480600  0.66151700  1
  C  82  1  0.26334700  0.97145900  0.59933000  1
  C  84  1  0.26459100  0.89195500  0.67752400  1
  C  89  1  0.43620600  0.29502600  0.14025700  1
  C  90  1  0.46178100  0.30981500  0.12670800  1
  C  91  1  0.46925900  0.34007100  0.13587100  1
  C  92  1  0.44887200  0.35663200  0.15424400  1
  C  93  1  0.42203200  0.34299800  0.16585500  1
  C  94  1  0.41764800  0.31105900  0.16161000  1
  C  95  1  0.47865300  0.29378200  0.10426800  1
  C  96  1  0.39364400  0.29533900  0.17648100  1
  C  98  1  0.42866900  0.26444200  0.13193000  1
  C  99  1  0.44466000  0.24947100  0.10785500  1
  C  100  1  0.43492100  0.21991700  0.09846100  1
  C  101  1  0.41321700  0.20407400  0.11605700  1
  C  102  1  0.40059100  0.21701700  0.14275400  1
  C  103  1  0.40519900  0.24872100  0.14798200  1
  C  104  1  0.46923200  0.26510100  0.09385100  1
  C  106  1  0.38851500  0.26421400  0.17087500  1
  C  111  1  0.43090700  0.76329700  0.92919300  1
  C  112  1  0.45592900  0.74826400  0.94352600  1
  C  113  1  0.46441300  0.71852600  0.93364500  1
  C  114  1  0.44500100  0.70232900  0.91393700  1
  C  115  1  0.41848300  0.71601300  0.90155200  1
  C  116  1  0.41356400  0.74779300  0.90649200  1
  C  117  1  0.47134200  0.76352100  0.96746900  1
  C  118  1  0.39015900  0.76385100  0.89102800  1
  C  120  1  0.42283500  0.79364300  0.93792400  1
  C  121  1  0.43744500  0.80778000  0.96330200  1
  C  122  1  0.42808500  0.83746700  0.97254600  1
  C  123  1  0.40855200  0.85446700  0.95365900  1
  C  124  1  0.39596300  0.84169800  0.92679600  1
  C  125  1  0.40047000  0.81001400  0.92094400  1
  C  126  1  0.46110000  0.79169200  0.97832000  1
  C  128  1  0.38478300  0.79488200  0.89708200  1
  C  133  1  0.62399700  0.76265000  0.13952600  1
  C  134  1  0.59800100  0.74831600  0.12621600  1
  C  135  1  0.58905000  0.71888100  0.13675600  1
  C  136  1  0.60767000  0.70292400  0.15751500  1
  C  137  1  0.63601000  0.71507800  0.16684500  1
  C  138  1  0.64181100  0.74655800  0.16143300  1
  C  139  1  0.58184700  0.76435600  0.10326700  1
  C  140  1  0.66710300  0.76119100  0.17516200  1
  C  142  1  0.63294500  0.79258700  0.13025600  1
  C  143  1  0.61738400  0.80754900  0.10589100  1
  C  144  1  0.62798300  0.83659100  0.09587700  1
  C  145  1  0.65038900  0.85201600  0.11291800  1
  C  146  1  0.66350800  0.83891200  0.13930700  1
  C  147  1  0.65738900  0.80762400  0.14558800  1
  C  148  1  0.59227900  0.79244700  0.09223800  1
  C  150  1  0.67381500  0.79179800  0.16846700  1
  C  155  1  0.62833500  0.29232800  0.93346400  1
  C  156  1  0.60486600  0.30710300  0.95053100  1
  C  157  1  0.59403600  0.33611100  0.94075900  1
  C  158  1  0.61009600  0.35194400  0.91793000  1
  C  159  1  0.63574200  0.33909000  0.90308000  1
  C  160  1  0.64248100  0.30778200  0.90858600  1
  C  161  1  0.59273900  0.29185700  0.97628900  1
  C  162  1  0.66428800  0.29205300  0.89067900  1
  C  164  1  0.63753500  0.26198900  0.94106600  1
  C  165  1  0.62555200  0.24740600  0.96752400  1
  C  166  1  0.63505200  0.21719500  0.97474600  1
  C  167  1  0.65266400  0.20057700  0.95373900  1
  C  168  1  0.66246600  0.21389500  0.92598400  1
  C  169  1  0.65768900  0.24572700  0.92140600  1
  C  170  1  0.60402700  0.26348400  0.98549100  1
  C  172  1  0.67061100  0.26108500  0.89608200  1
  C  177  1  0.13644400  0.43351200  0.30017800  1
  C  178  1  0.12322600  0.45940500  0.31473600  1
  C  179  1  0.13322500  0.46773800  0.34448300  1
  C  180  1  0.15251600  0.44806300  0.36084900  1
  C  181  1  0.16416700  0.42104000  0.34754500  1
  C  182  1  0.15863000  0.41565900  0.31591100  1
  C  183  1  0.10012600  0.47572400  0.29909000  1
  C  184  1  0.17300400  0.39128600  0.30028100  1
  C  186  1  0.12688400  0.42493400  0.27021200  1
  C  187  1  0.10226000  0.44050000  0.25568600  1
  C  188  1  0.09184400  0.43006600  0.22673300  1
  C  189  1  0.10855800  0.40761600  0.21100700  1
  C  190  1  0.13564000  0.39511400  0.22331100  1
  C  191  1  0.14227300  0.40093000  0.25459800  1
  C  192  1  0.08874500  0.46547200  0.27110400  1
  C  194  1  0.16590800  0.38491300  0.26969300  1
  C  199  1  0.92543500  0.43269600  0.76862100  1
  C  200  1  0.94073400  0.45701300  0.75340000  1
  C  201  1  0.93168500  0.46503300  0.72325300  1
  C  202  1  0.91225400  0.44544700  0.70691400  1
  C  203  1  0.89919900  0.41943400  0.72088200  1
  C  204  1  0.90289500  0.41536600  0.75290400  1
  C  205  1  0.96460800  0.47221800  0.76898700  1
  C  206  1  0.88626700  0.39285300  0.76905800  1
  C  208  1  0.93289300  0.42539400  0.79946500  1
  C  209  1  0.95815700  0.43972700  0.81406200  1
  C  210  1  0.96609900  0.43089600  0.84430500  1
  C  211  1  0.94599800  0.41250500  0.86121800  1
  C  212  1  0.91903500  0.40082900  0.84789900  1
  C  213  1  0.91463300  0.40414500  0.81589600  1
  C  214  1  0.97432500  0.46247900  0.79778000  1
  C  216  1  0.89085200  0.38859700  0.80051700  1
  C  221  1  0.13291800  0.62465100  0.76944000  1
  C  222  1  0.11852500  0.59940300  0.75480900  1
  C  223  1  0.12935700  0.58977500  0.72571200  1
  C  224  1  0.15115500  0.60749300  0.71013800  1
  C  225  1  0.16219700  0.63508400  0.72262700  1
  C  226  1  0.15628500  0.64115300  0.75398800  1
  C  227  1  0.09431800  0.58457800  0.77027200  1
  C  228  1  0.17135800  0.66531700  0.76922500  1
  C  230  1  0.12359900  0.63391100  0.79925500  1
  C  231  1  0.09827300  0.61957000  0.81380600  1
  C  232  1  0.08863600  0.63033600  0.84293300  1
  C  233  1  0.10641700  0.65199700  0.85863400  1
  C  234  1  0.13411500  0.66282900  0.84621000  1
  C  235  1  0.14016400  0.65714200  0.81483000  1
  C  236  1  0.08338700  0.59547400  0.79822300  1
  C  238  1  0.16449100  0.67211600  0.79977800  1
  C  243  1  0.92263900  0.62595500  0.29827300  1
  C  244  1  0.93709100  0.60049600  0.31244700  1
  C  245  1  0.92801300  0.59171900  0.34235600  1
  C  246  1  0.90882400  0.61094900  0.35936500  1
  C  247  1  0.89655100  0.63795100  0.34657500  1
  C  248  1  0.90080700  0.64343500  0.31482700  1
  C  249  1  0.96033200  0.58500700  0.29619700  1
  C  250  1  0.88544600  0.66759000  0.29985100  1
  C  252  1  0.93051400  0.63446800  0.26781500  1
  C  253  1  0.95525100  0.61975800  0.25267900  1
  C  254  1  0.96378000  0.62961400  0.22296400  1
  C  255  1  0.94461300  0.64966000  0.20690100  1
  C  256  1  0.91853400  0.66285400  0.22073600  1
  C  257  1  0.91349200  0.65753300  0.25243700  1
  C  258  1  0.97039600  0.59555000  0.26781500  1
  C  260  1  0.89061400  0.67350900  0.26876000  1
  C  265  1  0.13159400  0.29333400  0.62952200  1
  C  266  1  0.11580100  0.30829400  0.60531400  1
  C  267  1  0.12566500  0.33775000  0.59583100  1
  C  268  1  0.14775800  0.35336400  0.61308200  1
  C  269  1  0.16127200  0.34019300  0.63926200  1
  C  270  1  0.15558300  0.30873500  0.64520700  1
  C  271  1  0.09116700  0.29281700  0.59123900  1
  C  272  1  0.17220400  0.29293100  0.66796800  1
  C  274  1  0.12333100  0.26302900  0.63823900  1
  C  275  1  0.09778100  0.24830500  0.62450700  1
  C  276  1  0.08944400  0.21851300  0.63448000  1
  C  277  1  0.10839300  0.20258200  0.65492200  1
  C  278  1  0.13618400  0.21536100  0.66514800  1
  C  279  1  0.14132000  0.24703300  0.66007400  1
  C  280  1  0.08138200  0.26430500  0.60171200  1
  C  282  1  0.16606900  0.26213500  0.67429100  1
  C  287  1  0.92887000  0.76449800  0.63310600  1
  C  288  1  0.94507900  0.74954200  0.60915400  1
  C  289  1  0.93538100  0.72004300  0.59952200  1
  C  290  1  0.91342100  0.70424100  0.61682600  1
  C  291  1  0.90034700  0.71718600  0.64331400  1
  C  292  1  0.90508300  0.74884700  0.64875900  1
  C  293  1  0.96986600  0.76515200  0.59551300  1
  C  294  1  0.88813600  0.76440900  0.67142500  1
  C  296  1  0.93649200  0.79499900  0.64169000  1
  C  297  1  0.96230300  0.80971200  0.62851100  1
  C  298  1  0.96988600  0.83988400  0.63786700  1
  C  299  1  0.94948300  0.85645400  0.65621100  1
  C  300  1  0.92236000  0.84295500  0.66733400  1
  C  301  1  0.91775000  0.81108200  0.66284100  1
  C  302  1  0.97932400  0.79370000  0.60618100  1
  C  304  1  0.89335600  0.79550000  0.67720600  1
  C  309  1  0.13717600  0.76168000  0.43935000  1
  C  310  1  0.12523200  0.74735400  0.46597100  1
  C  311  1  0.13596600  0.71784000  0.47430100  1
  C  312  1  0.15468700  0.70138900  0.45411600  1
  C  313  1  0.16431600  0.71430300  0.42615100  1
  C  314  1  0.15862500  0.74586000  0.42073300  1
  C  315  1  0.10254600  0.76295000  0.48291400  1
  C  316  1  0.17153600  0.76102200  0.39528400  1
  C  318  1  0.12678500  0.79130400  0.43058700  1
  C  319  1  0.10247600  0.80568500  0.44679100  1
  C  320  1  0.09104200  0.83416700  0.43610300  1
  C  321  1  0.10677800  0.84981600  0.41289200  1
  C  322  1  0.13345300  0.83761800  0.39948400  1
  C  323  1  0.14087800  0.80658900  0.40558600  1
  C  324  1  0.09024000  0.79051700  0.47256800  1
  C  326  1  0.16392200  0.79146400  0.38875700  1
  C  331  1  0.92406300  0.29402900  0.43801900  1
  C  332  1  0.93828700  0.30805200  0.46366100  1
  C  333  1  0.92898700  0.33785100  0.47259800  1
  C  334  1  0.91022800  0.35508400  0.45311700  1
  C  335  1  0.89849500  0.34246600  0.42578900  1
  C  336  1  0.90237500  0.31065400  0.42046100  1
  C  337  1  0.96146400  0.29173300  0.47917500  1
  C  338  1  0.88696900  0.29574200  0.39629200  1
  C  340  1  0.93189600  0.26358000  0.42951700  1
  C  341  1  0.95649700  0.24830000  0.44428300  1
  C  342  1  0.96489400  0.21855000  0.43435300  1
  C  343  1  0.94559600  0.20258500  0.41433900  1
  C  344  1  0.91928200  0.21646100  0.40169600  1
  C  345  1  0.91477400  0.24828200  0.40651900  1
  C  346  1  0.97157800  0.26339500  0.46855500  1
  C  348  1  0.89186800  0.26456400  0.39057100  1
  C  353  1  0.29493900  0.43616900  0.92747300  1
  C  354  1  0.30968400  0.46180600  0.94095100  1
  C  355  1  0.33990200  0.46935700  0.93171300  1
  C  356  1  0.35647700  0.44900500  0.91330900  1
  C  357  1  0.34290500  0.42207800  0.90182700  1
  C  358  1  0.31097900  0.41763200  0.90611200  1
  C  359  1  0.29365200  0.47865600  0.96340800  1
  C  360  1  0.29531000  0.39353900  0.89133000  1
  C  362  1  0.26441300  0.42852900  0.93590700  1
  C  363  1  0.24945300  0.44450000  0.96000300  1
  C  364  1  0.21996600  0.43465500  0.96950200  1
  C  365  1  0.20416100  0.41285300  0.95199400  1
  C  366  1  0.21705100  0.40028700  0.92524100  1
  C  367  1  0.24873200  0.40497000  0.91994500  1
  C  368  1  0.26503200  0.46915200  0.97392000  1
  C  370  1  0.26421600  0.38831100  0.89702900  1
  C  375  1  0.76330000  0.43070600  0.13881300  1
  C  376  1  0.74820000  0.45564800  0.12440500  1
  C  377  1  0.71849200  0.46416400  0.13434700  1
  C  378  1  0.70237500  0.44482700  0.15419200  1
  C  379  1  0.71613200  0.41841500  0.16672500  1
  C  380  1  0.74789300  0.41348200  0.16167500  1
  C  381  1  0.76336600  0.47095400  0.10033600  1
  C  382  1  0.76404000  0.39019600  0.17722500  1
  C  384  1  0.79362700  0.42262200  0.13002500  1
  C  385  1  0.80768600  0.43714100  0.10455200  1
  C  386  1  0.83738300  0.42781100  0.09530300  1
  C  387  1  0.85444900  0.40836600  0.11422200  1
  C  388  1  0.84175500  0.39589400  0.14117200  1
  C  389  1  0.81007800  0.40036900  0.14707200  1
  C  390  1  0.79152100  0.46069500  0.08945900  1
  C  392  1  0.79504900  0.38480600  0.17107900  1
  C  397  1  0.76271000  0.62410000  0.92861900  1
  C  398  1  0.74834800  0.59811500  0.94192600  1
  C  399  1  0.71894500  0.58913700  0.93131300  1
  C  400  1  0.70304300  0.60772700  0.91048400  1
  C  401  1  0.71520800  0.63606500  0.90116100  1
  C  402  1  0.74668100  0.64186400  0.90662700  1
  C  403  1  0.76433300  0.58200500  0.96494200  1
  C  404  1  0.76134200  0.66714000  0.89289700  1
  C  406  1  0.79260900  0.63308500  0.93796900  1
  C  407  1  0.80751500  0.61756200  0.96239200  1
  C  408  1  0.83652500  0.62819100  0.97246800  1
  C  409  1  0.85197000  0.65062000  0.95546800  1
  C  410  1  0.83894700  0.66364800  0.92899600  1
  C  411  1  0.80767500  0.65751200  0.92264800  1
  C  412  1  0.79238800  0.59246700  0.97603800  1
  C  414  1  0.79192300  0.67388400  0.89967900  1
  C  419  1  0.29212900  0.62832600  0.13494200  1
  C  420  1  0.30685100  0.60476100  0.11796200  1
  C  421  1  0.33585900  0.59393700  0.12774400  1
  C  422  1  0.35172300  0.61002700  0.15053200  1
  C  423  1  0.33893200  0.63577400  0.16526000  1
  C  424  1  0.30763500  0.64255700  0.15973900  1
  C  425  1  0.29155000  0.59253600  0.09227900  1
  C  426  1  0.29198200  0.66451200  0.17753300  1
  C  428  1  0.26180800  0.63756500  0.12731600  1
  C  429  1  0.24718200  0.62548600  0.10092200  1
  C  430  1  0.21698800  0.63502000  0.09367200  1
  C  431  1  0.20042600  0.65276500  0.11461100  1
  C  432  1  0.21379200  0.66272600  0.14228700  1
  C  433  1  0.24561800  0.65787800  0.14686900  1
  C  434  1  0.26319600  0.60384100  0.08304600  1
  C  436  1  0.26103700  0.67091100  0.17210100  1
  C  441  1  0.43355100  0.13604800  0.76796000  1
  C  442  1  0.45942600  0.12278100  0.75340700  1
  C  443  1  0.46773800  0.13271000  0.72363500  1
  C  444  1  0.44806300  0.15197700  0.70724600  1
  C  445  1  0.42109000  0.16372700  0.72055900  1
  C  446  1  0.41569800  0.15821100  0.75219300  1
  C  447  1  0.47574900  0.09971000  0.76909000  1
  C  448  1  0.39134600  0.17263200  0.76781100  1
  C  450  1  0.42501400  0.12658000  0.79797000  1
  C  451  1  0.44059600  0.10199500  0.81254600  1
  C  452  1  0.43022600  0.09168400  0.84155800  1
  C  453  1  0.40783600  0.10847800  0.85728400  1
  C  454  1  0.39524500  0.13547400  0.84488300  1
  C  455  1  0.40103700  0.14202600  0.81357200  1
  C  456  1  0.46553400  0.08841600  0.79712100  1
  C  458  1  0.38499300  0.16560600  0.79842000  1
  C  463  1  0.43277300  0.92540600  0.29947600  1
  C  464  1  0.45709600  0.94068600  0.31471100  1
  C  465  1  0.46507200  0.93165100  0.34487400  1
  C  466  1  0.44545100  0.91224800  0.36120600  1
  C  467  1  0.41943000  0.89922700  0.34722400  1
  C  468  1  0.41539400  0.90290600  0.31519800  1
  C  469  1  0.47234600  0.96452600  0.29911900  1
  C  470  1  0.39286200  0.88630600  0.29903900  1
  C  472  1  0.42551000  0.93285200  0.26861800  1
  C  473  1  0.43989200  0.95808600  0.25401900  1
  C  474  1  0.43109700  0.96602400  0.22376400  1
  C  475  1  0.41270000  0.94593400  0.20684800  1
  C  476  1  0.40094600  0.91901000  0.22018000  1
  C  477  1  0.40424600  0.91461200  0.25218500  1
  C  478  1  0.46265000  0.97423300  0.27031000  1
  C  480  1  0.38864100  0.89087300  0.26757300  1
  C  485  1  0.62472400  0.13269800  0.29880600  1
  C  486  1  0.59946700  0.11830800  0.31342300  1
  C  487  1  0.58979800  0.12917300  0.34249300  1
  C  488  1  0.60749600  0.15098300  0.35806800  1
  C  489  1  0.63509000  0.16203100  0.34559800  1
  C  490  1  0.64119900  0.15609100  0.31425300  1
  C  491  1  0.58467100  0.09407800  0.29796500  1
  C  492  1  0.66536300  0.17117000  0.29902600  1
  C  494  1  0.63401600  0.12336200  0.26900700  1
  C  495  1  0.61969600  0.09802500  0.25445400  1
  C  496  1  0.63048900  0.08839000  0.22533300  1
  C  497  1  0.65216100  0.10617600  0.20965000  1
  C  498  1  0.66291600  0.13390800  0.22205900  1
  C  499  1  0.65725000  0.13993200  0.25344300  1
  C  500  1  0.59559800  0.08313500  0.27002700  1
  C  502  1  0.67218900  0.16428500  0.26848100  1
  C  507  1  0.62591100  0.92230300  0.77002500  1
  C  508  1  0.60031800  0.93658800  0.75592700  1
  C  509  1  0.59152700  0.92747100  0.72603200  1
  C  510  1  0.61083200  0.90840800  0.70896800  1
  C  511  1  0.63794400  0.89629900  0.72168700  1
  C  512  1  0.64348300  0.90058000  0.75342500  1
  C  513  1  0.58471700  0.95971700  0.77223200  1
  C  514  1  0.66777300  0.88537500  0.76834200  1
  C  516  1  0.63449100  0.93027700  0.80044200  1
  C  517  1  0.61969800  0.95495100  0.81559200  1
  C  518  1  0.62966200  0.96362700  0.84522800  1
  C  519  1  0.64987900  0.94460600  0.86125000  1
  C  520  1  0.66311700  0.91853600  0.84743300  1
  C  521  1  0.65771800  0.91342100  0.81575600  1
  C  522  1  0.59530700  0.96989300  0.80055400  1
  C  524  1  0.67376000  0.89060800  0.79941300  1
  C  529  1  0.76281200  0.95312400  0.60893400  1
  C  530  1  0.74620600  0.97200400  0.58826800  1
  C  531  1  0.71369000  0.96987500  0.58676800  1
  C  532  1  0.69835500  0.95484800  0.61086000  1
  C  533  1  0.71460700  0.93718300  0.63228700  1
  C  534  1  0.74681600  0.93484800  0.63049200  1
  C  535  1  0.76294100  0.99095200  0.56809000  1
  C  536  1  0.76346200  0.91455000  0.64933900  1
  C  538  1  0.79534900  0.95181100  0.60753700  1
  C  539  1  0.81175900  0.97218200  0.58820900  1
  C  540  1  0.84414500  0.97447100  0.59080400  1
  C  541  1  0.85985900  0.95058300  0.60577200  1
  C  542  1  0.84384000  0.92939400  0.62396500  1
  C  543  1  0.81160100  0.93084600  0.62627500  1
  C  544  1  0.79497400  0.99187600  0.56885800  1
  C  546  1  0.79515900  0.91226100  0.64695700  1
  C  551  1  0.29728300  0.10733300  0.60800100  1
  C  552  1  0.31492800  0.08623900  0.59062400  1
  C  553  1  0.34734800  0.08918200  0.58973000  1
  C  554  1  0.36155300  0.10638800  0.61303700  1
  C  555  1  0.34434100  0.12679100  0.63107500  1
  C  556  1  0.31223200  0.12853400  0.62754600  1
  C  557  1  0.29941700  0.06408200  0.57290800  1
  C  558  1  0.29464000  0.15064100  0.64316500  1
  C  560  1  0.26478500  0.10736900  0.60578300  1
  C  561  1  0.24954400  0.08390500  0.58918500  1
  C  562  1  0.21721900  0.08069800  0.59150200  1
  C  563  1  0.20036500  0.10498400  0.60435100  1
  C  564  1  0.21517900  0.12921000  0.61944700  1
  C  565  1  0.24746500  0.12980600  0.62166000  1
  C  566  1  0.26738600  0.06219500  0.57317800  1
  C  568  1  0.26294500  0.15154700  0.63991600  1
  C  573  1  0.28804700  0.95464900  0.45376200  1
  C  574  1  0.30397700  0.97183000  0.47632800  1
  C  575  1  0.33636700  0.96932100  0.47869700  1
  C  576  1  0.35253200  0.95560500  0.45446800  1
  C  577  1  0.33701200  0.93943800  0.43138800  1
  C  578  1  0.30469700  0.93765200  0.43161800  1
  C  579  1  0.28679400  0.98893700  0.49772700  1
  C  580  1  0.28855400  0.91875100  0.41096600  1
  C  582  1  0.25551700  0.95309400  0.45439000  1
  C  583  1  0.23850600  0.97167200  0.47497800  1
  C  584  1  0.20602100  0.97325200  0.47233300  1
  C  585  1  0.19117800  0.94953400  0.45630400  1
  C  586  1  0.20775100  0.93020800  0.43659200  1
  C  587  1  0.23988500  0.93304800  0.43420000  1
  C  588  1  0.25474600  0.98980900  0.49627300  1
  C  590  1  0.25683200  0.91620600  0.41247600  1
  C  595  1  0.76021500  0.10364400  0.45725100  1
  C  596  1  0.74435600  0.08458500  0.47828300  1
  C  597  1  0.71202300  0.08712600  0.48115700  1
  C  598  1  0.69588300  0.10030500  0.45650100  1
  C  599  1  0.71132800  0.11830000  0.43471300  1
  C  600  1  0.74349400  0.12148100  0.43590600  1
  C  601  1  0.76155200  0.06619500  0.49855800  1
  C  602  1  0.75941700  0.14200400  0.41668100  1
  C  604  1  0.79266000  0.10574500  0.45832800  1
  C  605  1  0.80970100  0.08585500  0.47760400  1
  C  606  1  0.84210000  0.08438100  0.47476600  1
  C  607  1  0.85690500  0.10911300  0.46022400  1
  C  608  1  0.84031000  0.12959600  0.44172400  1
  C  609  1  0.80815700  0.12711000  0.43941900  1
  C  610  1  0.79364800  0.06569300  0.49713700  1
  C  612  1  0.79107500  0.14509000  0.41871900  1
  C  617  1  0.60797800  0.76318300  0.96361600  1
  C  618  1  0.58369900  0.74879700  0.97979300  1
  C  619  1  0.57969300  0.71653900  0.97781000  1
  C  620  1  0.60386200  0.69882300  0.96591900  1
  C  621  1  0.62882200  0.71283500  0.95125800  1
  C  622  1  0.63034100  0.74506500  0.94856600  1
  C  623  1  0.56207800  0.76742700  0.99499500  1
  C  624  1  0.65293200  0.75974100  0.93065900  1
  C  626  1  0.60883400  0.79563000  0.96090400  1
  C  627  1  0.58783600  0.81406200  0.97754700  1
  C  628  1  0.59173300  0.84638300  0.97827000  1
  C  629  1  0.60942600  0.85975900  0.95477000  1
  C  630  1  0.62983300  0.84181400  0.93740200  1
  C  631  1  0.63079100  0.80975100  0.94158500  1
  C  632  1  0.56487900  0.79939700  0.99496300  1
  C  634  1  0.65287000  0.79139500  0.92684600  1
  C  639  1  0.60440600  0.29249900  0.11162300  1
  C  640  1  0.58580100  0.30995000  0.09144800  1
  C  641  1  0.58486600  0.34234000  0.09428900  1
  C  642  1  0.60915100  0.35668000  0.10998800  1
  C  643  1  0.62838300  0.33968900  0.12946700  1
  C  644  1  0.62511500  0.30758300  0.13158400  1
  C  645  1  0.56630100  0.29434500  0.07091900  1
  C  646  1  0.64178600  0.29014600  0.15305200  1
  C  648  1  0.60183800  0.26006600  0.11233500  1
  C  649  1  0.58370200  0.24463400  0.09018600  1
  C  650  1  0.58587200  0.21228900  0.08716300  1
  C  651  1  0.59839900  0.19574300  0.11186500  1
  C  652  1  0.61524800  0.21076000  0.13480300  1
  C  653  1  0.61852300  0.24294700  0.13430500  1
  C  654  1  0.56640700  0.26226100  0.06930400  1
  C  656  1  0.63818200  0.25851300  0.15470900  1
  C  661  1  0.45030400  0.29226800  0.95888400  1
  C  662  1  0.47218400  0.30845400  0.97674000  1
  C  663  1  0.47456400  0.34087400  0.97403000  1
  C  664  1  0.45107700  0.35681100  0.95881800  1
  C  665  1  0.42854500  0.34104100  0.94215000  1
  C  666  1  0.42883500  0.30870800  0.94085300  1
  C  667  1  0.49251100  0.29135800  0.99519900  1
  C  668  1  0.40871900  0.29235500  0.92156900  1
  C  670  1  0.45068800  0.25967500  0.95802000  1
  C  671  1  0.47038000  0.24287100  0.97774400  1
  C  672  1  0.46766700  0.21041000  0.97969400  1
  C  673  1  0.45128300  0.19515600  0.95651100  1
  C  674  1  0.43268200  0.21152200  0.93598200  1
  C  675  1  0.43093700  0.24378100  0.93772500  1
  C  676  1  0.49094000  0.25937700  0.99644700  1
  C  678  1  0.41000100  0.26057800  0.91975700  1
  C  683  1  0.45635200  0.75574600  0.11431000  1
  C  684  1  0.47294100  0.73780000  0.09286200  1
  C  685  1  0.47388100  0.70538000  0.09615100  1
  C  686  1  0.44975700  0.69172100  0.11279200  1
  C  687  1  0.43241000  0.70914800  0.13366900  1
  C  688  1  0.43690800  0.74110600  0.13577400  1
  C  689  1  0.49031400  0.75302500  0.07024600  1
  C  690  1  0.42216500  0.75886800  0.15833100  1
  C  692  1  0.45910300  0.78819400  0.11432700  1
  C  693  1  0.47530100  0.80316100  0.09041700  1
  C  694  1  0.47341900  0.83551400  0.08730000  1
  C  695  1  0.46150200  0.85256900  0.11192300  1
  C  696  1  0.44661300  0.83798600  0.13642200  1
  C  697  1  0.44398100  0.80573300  0.13711300  1
  C  698  1  0.49044400  0.78506500  0.06829500  1
  C  700  1  0.42594700  0.79049900  0.15921700  1
  C  705  1  0.95400200  0.60789100  0.77299800  1
  C  706  1  0.97120800  0.58509700  0.75742000  1
  C  707  1  0.96909500  0.58241000  0.72503500  1
  C  708  1  0.95542400  0.60650600  0.70854000  1
  C  709  1  0.93937800  0.62988600  0.72372000  1
  C  710  1  0.93726700  0.62995000  0.75600900  1
  C  711  1  0.98810500  0.56382700  0.77497800  1
  C  712  1  0.91839000  0.65091300  0.77179000  1
  C  714  1  0.95229800  0.60773800  0.80552300  1
  C  715  1  0.97072500  0.58730100  0.82285500  1
  C  716  1  0.97248200  0.59060800  0.85521300  1
  C  717  1  0.94881100  0.60695800  0.86990300  1
  C  718  1  0.92968000  0.62662500  0.85301300  1
  C  719  1  0.93243500  0.62835800  0.82083100  1
  C  720  1  0.98886400  0.56572500  0.80701200  1
  C  722  1  0.91577400  0.64992900  0.80352400  1
  C  727  1  0.10249300  0.60387800  0.30119100  1
  C  728  1  0.08288800  0.58381600  0.31764900  1
  C  729  1  0.08563300  0.58142400  0.34996900  1
  C  730  1  0.10005800  0.60574600  0.36553000  1
  C  731  1  0.11879800  0.62649000  0.34953600  1
  C  732  1  0.12148200  0.62466700  0.31735000  1
  C  733  1  0.06330900  0.56418600  0.30106500  1
  C  734  1  0.14249000  0.64283400  0.30084600  1
  C  736  1  0.10369400  0.60260900  0.26869800  1
  C  737  1  0.08243500  0.58425300  0.25230600  1
  C  738  1  0.07985400  0.58738600  0.22000300  1
  C  739  1  0.10409500  0.60181300  0.20432800  1
  C  740  1  0.12642800  0.61865300  0.22027100  1
  C  741  1  0.12533400  0.62065200  0.25254200  1
  C  742  1  0.06200100  0.56554700  0.26900200  1
  C  744  1  0.14478300  0.64043500  0.26912400  1
  C  749  1  0.95649000  0.45180400  0.29787300  1
  C  750  1  0.97435900  0.47390100  0.31369800  1
  C  751  1  0.97210700  0.47636900  0.34611100  1
  C  752  1  0.95864700  0.45202100  0.36234500  1
  C  753  1  0.94188200  0.42930000  0.34691100  1
  C  754  1  0.93936900  0.42987800  0.31464400  1
  C  755  1  0.99167500  0.49502000  0.29641000  1
  C  756  1  0.91982400  0.40969500  0.29866400  1
  C  758  1  0.95459200  0.45254500  0.26536400  1
  C  759  1  0.97351300  0.47273500  0.24825900  1
  C  760  1  0.97512100  0.46986100  0.21581200  1
  C  761  1  0.95130400  0.45395600  0.20100900  1
  C  762  1  0.93145200  0.43484500  0.21768200  1
  C  763  1  0.93409800  0.43270200  0.24985500  1
  C  764  1  0.99218500  0.49365000  0.26436700  1
  C  766  1  0.91690100  0.41137800  0.26696500  1
  C  771  1  0.10843400  0.45370900  0.76308500  1
  C  772  1  0.08770600  0.47165100  0.74559100  1
  C  773  1  0.09102000  0.47331600  0.71320000  1
  C  774  1  0.10758800  0.44961100  0.69879600  1
  C  775  1  0.12764000  0.43097400  0.71579800  1
  C  776  1  0.12937400  0.43406500  0.74793900  1
  C  777  1  0.06582800  0.48954300  0.76130100  1
  C  778  1  0.15122500  0.41790200  0.76535800  1
  C  780  1  0.10851200  0.45561200  0.79559800  1
  C  781  1  0.08540500  0.47253200  0.81102900  1
  C  782  1  0.08261600  0.47048300  0.84341000  1
  C  783  1  0.10684400  0.45722800  0.86003800  1
  C  784  1  0.13052000  0.44150200  0.84500400  1
  C  785  1  0.13077700  0.43929500  0.81272400  1
  C  786  1  0.06393800  0.48901900  0.79333400  1
  C  788  1  0.15210400  0.42070800  0.79707800  1
  C  793  1  0.95310800  0.76306400  0.45912200  1
  C  794  1  0.97189900  0.74648200  0.47989300  1
  C  795  1  0.96975800  0.71397100  0.48143200  1
  C  796  1  0.95469700  0.69859700  0.45739100  1
  C  797  1  0.93711600  0.71482000  0.43587700  1
  C  798  1  0.93485900  0.74704000  0.43756000  1
  C  799  1  0.99078500  0.76324900  0.50010800  1
  C  800  1  0.91464900  0.76366800  0.41860200  1
  C  802  1  0.95184600  0.79560700  0.46042100  1
  C  803  1  0.97216400  0.81203800  0.47978500  1
  C  804  1  0.97451500  0.84441200  0.47710500  1
  C  805  1  0.95070200  0.86012500  0.46201000  1
  C  806  1  0.92955600  0.84408700  0.44378400  1
  C  807  1  0.93097400  0.81184100  0.44156400  1
  C  808  1  0.99175000  0.79527800  0.49926200  1
  C  810  1  0.91242800  0.79537400  0.42086800  1
  C  815  1  0.10725600  0.29709300  0.45987900  1
  C  816  1  0.08622900  0.31472400  0.47735200  1
  C  817  1  0.08916600  0.34714700  0.47824400  1
  C  818  1  0.10636200  0.36137500  0.45494600  1
  C  819  1  0.12668400  0.34416900  0.43681200  1
  C  820  1  0.12839800  0.31205100  0.44027600  1
  C  821  1  0.06413500  0.29919700  0.49513200  1
  C  822  1  0.15043800  0.29446100  0.42455500  1
  C  824  1  0.10730400  0.26459300  0.46208300  1
  C  825  1  0.08391400  0.24933800  0.47877200  1
  C  826  1  0.08070900  0.21701100  0.47646700  1
  C  827  1  0.10498100  0.20016900  0.46357600  1
  C  828  1  0.12913300  0.21499500  0.44837600  1
  C  829  1  0.12969100  0.24728000  0.44613000  1
  C  830  1  0.06225500  0.26716600  0.49486000  1
  C  832  1  0.15135500  0.26276400  0.42778800  1
  C  837  1  0.95453000  0.28804900  0.61431500  1
  C  838  1  0.97174100  0.30399500  0.59178300  1
  C  839  1  0.96919300  0.33638300  0.58940000  1
  C  840  1  0.95540800  0.35253700  0.61359700  1
  C  841  1  0.93921600  0.33700000  0.63665200  1
  C  842  1  0.93746900  0.30468300  0.63641900  1
  C  843  1  0.98891700  0.28683200  0.57042500  1
  C  844  1  0.91854500  0.28852500  0.65703900  1
  C  846  1  0.95301900  0.25551700  0.61369100  1
  C  847  1  0.97165800  0.23852600  0.59313900  1
  C  848  1  0.97324800  0.20603900  0.59576900  1
  C  849  1  0.94955000  0.19116900  0.61180000  1
  C  850  1  0.93017800  0.20772400  0.63147700  1
  C  851  1  0.93295900  0.23986400  0.63385100  1
  C  852  1  0.98982200  0.25478800  0.57188400  1
  C  854  1  0.91605000  0.25679500  0.65553900  1
  C  859  1  0.10360500  0.76019000  0.61103600  1
  C  860  1  0.08455100  0.74431000  0.59001800  1
  C  861  1  0.08711000  0.71197700  0.58716200  1
  C  862  1  0.10028000  0.69585700  0.61183800  1
  C  863  1  0.11827200  0.71132500  0.63361300  1
  C  864  1  0.12144600  0.74349100  0.63239400  1
  C  865  1  0.06616100  0.76148600  0.56972300  1
  C  866  1  0.14196900  0.75943300  0.65160300  1
  C  868  1  0.10570800  0.79263500  0.60992200  1
  C  869  1  0.08581800  0.80965700  0.59062800  1
  C  870  1  0.08436400  0.84206400  0.59341400  1
  C  871  1  0.10910500  0.85687500  0.60793300  1
  C  872  1  0.12958600  0.84029800  0.62645100  1
  C  873  1  0.12708400  0.80814800  0.62880400  1
  C  874  1  0.06566000  0.79358400  0.57110800  1
  C  876  1  0.14506200  0.79109100  0.64952500  1
  C  881  1  0.76312600  0.60777900  0.10452500  1
  C  882  1  0.74874900  0.58351200  0.08832000  1
  C  883  1  0.71649100  0.57950300  0.09028400  1
  C  884  1  0.69876900  0.60367000  0.10217600  1
  C  885  1  0.71277100  0.62863700  0.11683500  1
  C  886  1  0.74499800  0.63014400  0.11956000  1
  C  887  1  0.76738800  0.56189300  0.07312300  1
  C  888  1  0.75966600  0.65272600  0.13749300  1
  C  890  1  0.79556800  0.60862100  0.10727500  1
  C  891  1  0.81401100  0.58762600  0.09064300  1
  C  892  1  0.84633300  0.59152000  0.08994500  1
  C  893  1  0.85968800  0.60915800  0.11349600  1
  C  894  1  0.84173400  0.62957700  0.13084200  1
  C  895  1  0.80967600  0.63056300  0.12662200  1
  C  896  1  0.79936000  0.56467600  0.07320800  1
  C  898  1  0.79131300  0.65264200  0.14134800  1
  C  903  1  0.29243500  0.60449800  0.95725400  1
  C  904  1  0.30975100  0.58561300  0.97728600  1
  C  905  1  0.34214100  0.58453400  0.97448900  1
  C  906  1  0.35663700  0.60891100  0.95908300  1
  C  907  1  0.33977900  0.62843100  0.93977800  1
  C  908  1  0.30766300  0.62533700  0.93753900  1
  C  909  1  0.29400800  0.56597000  0.99757200  1
  C  910  1  0.29035200  0.64228000  0.91618100  1
  C  912  1  0.26000200  0.60203500  0.95639400  1
  C  913  1  0.24442600  0.58372200  0.97829700  1
  C  914  1  0.21207300  0.58595000  0.98119900  1
  C  915  1  0.19568200  0.59864100  0.95647200  1
  C  916  1  0.21083800  0.61569600  0.93377500  1
  C  917  1  0.24302000  0.61895000  0.93449600  1
  C  918  1  0.26191800  0.56618300  0.99908700  1
  C  920  1  0.25871600  0.63877700  0.91435600  1
  C  925  1  0.29223800  0.45051900  0.10926700  1
  C  926  1  0.30848400  0.47226400  0.09130400  1
  C  927  1  0.34090400  0.47461500  0.09404800  1
  C  928  1  0.35677900  0.45111300  0.10930700  1
  C  929  1  0.34095200  0.42871900  0.12610700  1
  C  930  1  0.30862300  0.42911400  0.12742300  1
  C  931  1  0.29145000  0.49250200  0.07269300  1
  C  932  1  0.29222200  0.40914800  0.14681900  1
  C  934  1  0.25964500  0.45095300  0.11008200  1
  C  935  1  0.24290300  0.47053500  0.09020000  1
  C  936  1  0.21044600  0.46782500  0.08818800  1
  C  937  1  0.19512400  0.45156800  0.11141800  1
  C  938  1  0.21143400  0.43310700  0.13211200  1
  C  939  1  0.24369700  0.43133700  0.13046300  1
  C  940  1  0.25946900  0.49095600  0.07139200  1
  C  942  1  0.26044500  0.41049500  0.14858600  1
  C  947  1  0.75581700  0.45646900  0.95365900  1
  C  948  1  0.73784500  0.47301400  0.97512100  1
  C  949  1  0.70542800  0.47393600  0.97181600  1
  C  950  1  0.69179800  0.44981900  0.95514100  1
  C  951  1  0.70924700  0.43250300  0.93425100  1
  C  952  1  0.74120200  0.43703600  0.93216800  1
  C  953  1  0.75304600  0.49037800  0.99776500  1
  C  954  1  0.75898700  0.42234300  0.90959700  1
  C  956  1  0.78826000  0.45925400  0.95365700  1
  C  957  1  0.80320200  0.47543800  0.97759300  1
  C  958  1  0.83555500  0.47357400  0.98072800  1
  C  959  1  0.85263300  0.46173300  0.95608300  1
  C  960  1  0.83807300  0.44684900  0.93156600  1
  C  961  1  0.80582500  0.44418000  0.93086000  1
  C  962  1  0.78508600  0.49053500  0.99972800  1
  C  964  1  0.79061500  0.42616000  0.90872600  1
  C  969  1  0.60803500  0.95408900  0.29531600  1
  C  970  1  0.58513300  0.97122600  0.31081200  1
  C  971  1  0.58239600  0.96917300  0.34319700  1
  C  972  1  0.60649900  0.95561900  0.35977200  1
  C  973  1  0.62998900  0.93966400  0.34466800  1
  C  974  1  0.63014000  0.93749600  0.31238300  1
  C  975  1  0.56381800  0.98798400  0.29317600  1
  C  976  1  0.65122600  0.91868700  0.29667700  1
  C  978  1  0.60793500  0.95229400  0.26279600  1
  C  979  1  0.58743400  0.97057200  0.24538400  1
  C  980  1  0.59077700  0.97225300  0.21302600  1
  C  981  1  0.60720300  0.94857100  0.19843400  1
  C  982  1  0.62696100  0.92959500  0.21539800  1
  C  983  1  0.62866200  0.93247700  0.24757100  1
  C  984  1  0.56575500  0.98865800  0.26114300  1
  C  986  1  0.65029500  0.91597500  0.26495000  1
  C  991  1  0.60360400  0.10296300  0.76692000  1
  C  992  1  0.58396700  0.08308100  0.75028100  1
  C  993  1  0.58174900  0.08586500  0.71795200  1
  C  994  1  0.60602100  0.10060200  0.70260300  1
  C  995  1  0.62632500  0.11968100  0.71876900  1
  C  996  1  0.62420300  0.12230500  0.75093900  1
  C  997  1  0.56456800  0.06312800  0.76668600  1
  C  998  1  0.64193900  0.14355100  0.76759900  1
  C  1000  1  0.60216500  0.10401300  0.79941300  1
  C  1001  1  0.58410000  0.08237000  0.81562100  1
  C  1002  1  0.58718000  0.07965400  0.84792000  1
  C  1003  1  0.60134000  0.10392300  0.86378800  1
  C  1004  1  0.61779800  0.12665600  0.84802300  1
  C  1005  1  0.61983500  0.12583100  0.81574300  1
  C  1006  1  0.56579200  0.06171600  0.79874700  1
  C  1008  1  0.63935800  0.14567900  0.79931700  1
  C  1013  1  0.45168100  0.95674900  0.77026300  1
  C  1014  1  0.47394900  0.97449600  0.75454300  1
  C  1015  1  0.47648800  0.97230600  0.72213300  1
  C  1016  1  0.45208100  0.95907600  0.70579600  1
  C  1017  1  0.42919000  0.94245200  0.72112900  1
  C  1018  1  0.42966800  0.93983800  0.75338900  1
  C  1019  1  0.49515700  0.99160200  0.77193400  1
  C  1020  1  0.40931500  0.92038400  0.76926800  1
  C  1022  1  0.45235500  0.95472200  0.80276500  1
  C  1023  1  0.47265500  0.97342800  0.81997800  1
  C  1024  1  0.46975100  0.97490800  0.85242700  1
  C  1025  1  0.45372000  0.95109100  0.86709900  1
  C  1026  1  0.43447700  0.93145400  0.85032100  1
  C  1027  1  0.43236400  0.93428800  0.81816200  1
  C  1028  1  0.49371900  0.99202200  0.80397700  1
  C  1030  1  0.41093700  0.91731700  0.80095600  1
  C  1035  1  0.45364300  0.10846300  0.30509000  1
  C  1036  1  0.47157300  0.08773100  0.32259300  1
  C  1037  1  0.47324500  0.09106100  0.35498100  1
  C  1038  1  0.44956800  0.10766800  0.36938300  1
  C  1039  1  0.43093900  0.12771900  0.35237200  1
  C  1040  1  0.43402000  0.12942600  0.32022900  1
  C  1041  1  0.48945400  0.06583800  0.30689000  1
  C  1042  1  0.41785700  0.15127300  0.30280300  1
  C  1044  1  0.45554300  0.10852700  0.27257700  1
  C  1045  1  0.47245800  0.08541000  0.25715400  1
  C  1046  1  0.47043000  0.08262700  0.22477100  1
  C  1047  1  0.45716000  0.10684100  0.20813700  1
  C  1048  1  0.44143800  0.13052500  0.22316200  1
  C  1049  1  0.43923400  0.13079200  0.25544200  1
  C  1050  1  0.48893500  0.06394100  0.27485700  1
  C  1052  1  0.42065300  0.15213000  0.27108100  1
  C  1057  1  0.19532600  0.16135500  0.40578700  1
  C  1059  1  0.18122000  0.19633600  0.44555400  1
  C  1060  1  0.15128800  0.19685200  0.43413900  1
  C  1062  1  0.16542500  0.16331100  0.39306500  1
  C  1064  1  0.15496800  0.14725800  0.36685000  1
  C  1069  1  0.86269300  0.89671300  0.40088900  1
  C  1071  1  0.87664900  0.85938800  0.43858900  1
  C  1072  1  0.90703400  0.86091600  0.42851500  1
  C  1074  1  0.89295600  0.89605500  0.38885500  1
  C  1076  1  0.90350700  0.91375200  0.36374900  1
  C  1081  1  0.85907500  0.15773200  0.67059800  1
  C  1083  1  0.87626900  0.19677400  0.63611700  1
  C  1084  1  0.90638900  0.19200100  0.64601700  1
  C  1086  1  0.88916200  0.15531800  0.68294200  1
  C  1088  1  0.89804200  0.13503500  0.70670400  1
  C  1093  1  0.19691400  0.89346800  0.66778900  1
  C  1095  1  0.18293100  0.85395700  0.63233500  1
  C  1096  1  0.15244100  0.85655300  0.64186200  1
  C  1098  1  0.16660200  0.89356000  0.67974500  1
  C  1100  1  0.15603900  0.91270700  0.70376300  1
  C  1105  1  0.40120400  0.19718000  0.16834300  1
  C  1107  1  0.43832600  0.18312400  0.20608200  1
  C  1108  1  0.42745000  0.15298900  0.20518900  1
  C  1110  1  0.38873700  0.16711100  0.16896500  1
  C  1112  1  0.36401400  0.15657500  0.15073500  1
  C  1117  1  0.39395000  0.86223300  0.90171200  1
  C  1119  1  0.42880600  0.87777000  0.86231100  1
  C  1120  1  0.41924000  0.90813800  0.86611600  1
  C  1122  1  0.38201100  0.89251000  0.90320300  1
  C  1124  1  0.35820600  0.90222700  0.92304600  1
  C  1129  1  0.66638300  0.85950000  0.16433300  1
  C  1131  1  0.63279500  0.87573900  0.20455600  1
  C  1132  1  0.64220900  0.90604300  0.19993800  1
  C  1134  1  0.67862900  0.88966500  0.16235800  1
  C  1136  1  0.70202000  0.89903700  0.14185300  1
  C  1141  1  0.66053800  0.19384400  0.90056200  1
  C  1143  1  0.62154600  0.17937000  0.86476200  1
  C  1144  1  0.63258200  0.14928200  0.86518100  1
  C  1146  1  0.67320700  0.16387000  0.89903000  1
  C  1148  1  0.69924200  0.15364600  0.91552900  1
  C  1153  1  0.16033800  0.39382900  0.20226800  1
  C  1155  1  0.19884500  0.42908900  0.18573700  1
  C  1156  1  0.19513500  0.41872600  0.15561500  1
  C  1158  1  0.15865800  0.38129100  0.17223300  1
  C  1160  1  0.13900400  0.35711700  0.16306500  1
  C  1165  1  0.89306800  0.40331900  0.86707200  1
  C  1167  1  0.85741000  0.44305200  0.87966500  1
  C  1168  1  0.85653700  0.43234300  0.90984600  1
  C  1170  1  0.89078800  0.39137600  0.89725500  1
  C  1172  1  0.90710200  0.36569500  0.90860200  1
  C  1177  1  0.15905300  0.65940100  0.86674300  1
  C  1179  1  0.19354800  0.61925900  0.88133500  1
  C  1180  1  0.19316600  0.63018800  0.91143600  1
  C  1182  1  0.16048800  0.67176600  0.89684800  1
  C  1184  1  0.14443000  0.69802500  0.90719400  1
  C  1189  1  0.89337700  0.66793800  0.20078300  1
  C  1191  1  0.85098000  0.63691800  0.18485700  1
  C  1192  1  0.85613400  0.64582500  0.15446400  1
  C  1194  1  0.89563200  0.68023400  0.17067100  1
  C  1196  1  0.91718700  0.70265800  0.16128900  1
  C  1201  1  0.16147300  0.19532700  0.66207500  1
  C  1203  1  0.19644700  0.18128100  0.62228200  1
  C  1204  1  0.19702000  0.15134900  0.63369300  1
  C  1206  1  0.16348600  0.16542800  0.67479400  1
  C  1208  1  0.14746100  0.15493800  0.70101200  1
  C  1213  1  0.89655600  0.86264900  0.66692000  1
  C  1215  1  0.85928100  0.87651400  0.62913800  1
  C  1216  1  0.86069900  0.90689900  0.63923200  1
  C  1218  1  0.89580300  0.89290800  0.67895300  1
  C  1220  1  0.91342500  0.90350500  0.70409400  1
  C  1225  1  0.15787400  0.85899700  0.39750900  1
  C  1227  1  0.19691600  0.87627200  0.43195000  1
  C  1228  1  0.19207100  0.90638200  0.42206000  1
  C  1230  1  0.15541400  0.88907500  0.38514900  1
  C  1232  1  0.13510600  0.89791200  0.36139100  1
  C  1237  1  0.89343600  0.19690100  0.40029400  1
  C  1239  1  0.85397500  0.18293200  0.43581200  1
  C  1240  1  0.85655000  0.15244000  0.42628600  1
  C  1242  1  0.89350700  0.16658700  0.38834800  1
  C  1244  1  0.91261800  0.15601700  0.36430400  1
  C  1249  1  0.19717000  0.40106200  0.89968600  1
  C  1251  1  0.18310600  0.43835100  0.86210700  1
  C  1252  1  0.15296800  0.42748200  0.86296900  1
  C  1254  1  0.16709100  0.38862000  0.89903400  1
  C  1256  1  0.15654900  0.36382700  0.91716600  1
  C  1261  1  0.86233400  0.39419300  0.16623800  1
  C  1263  1  0.87782700  0.42936100  0.20537300  1
  C  1264  1  0.90818200  0.41969100  0.20175400  1
  C  1266  1  0.89260600  0.38223300  0.16487300  1
  C  1268  1  0.90235300  0.35828600  0.14521600  1
  C  1273  1  0.85959600  0.66622100  0.90399200  1
  C  1275  1  0.87585300  0.63228700  0.86406900  1
  C  1276  1  0.90614400  0.64180000  0.86856100  1
  C  1278  1  0.88976100  0.67848200  0.90588100  1
  C  1280  1  0.89912800  0.70203200  0.92620600  1
  C  1285  1  0.19374400  0.66119200  0.16774900  1
  C  1287  1  0.17926100  0.62264300  0.20402600  1
  C  1288  1  0.14912800  0.63354200  0.20330000  1
  C  1290  1  0.16373900  0.67382200  0.16905800  1
  C  1292  1  0.15351900  0.69964900  0.15223000  1
  C  1297  1  0.39365300  0.16022000  0.86585500  1
  C  1299  1  0.42852200  0.19910000  0.88232900  1
  C  1300  1  0.41824100  0.19528600  0.91246700  1
  C  1302  1  0.38112200  0.15847100  0.89589000  1
  C  1304  1  0.35711200  0.13862000  0.90507200  1
  C  1309  1  0.40327600  0.89303200  0.20100300  1
  C  1311  1  0.44284400  0.85721400  0.18836600  1
  C  1312  1  0.43213300  0.85642500  0.15818100  1
  C  1314  1  0.39131100  0.89083200  0.17082400  1
  C  1316  1  0.36569300  0.90726700  0.15950600  1
  C  1321  1  0.65917000  0.15882900  0.20156600  1
  C  1323  1  0.61872200  0.19302300  0.18710300  1
  C  1324  1  0.62971900  0.19293200  0.15702700  1
  C  1326  1  0.67153300  0.16049000  0.17147500  1
  C  1328  1  0.69791600  0.14468500  0.16106000  1
  C  1333  1  0.66822400  0.89340700  0.86742000  1
  C  1335  1  0.63721000  0.85101600  0.88338400  1
  C  1336  1  0.64607600  0.85622300  0.91378000  1
  C  1338  1  0.68048800  0.89570900  0.89754100  1
  C  1340  1  0.70289600  0.91728500  0.90691200  1
  C  1345  1  0.69483800  0.66065000  0.90667700  1
  C  1347  1  0.68011700  0.69205200  0.94920700  1
  C  1348  1  0.65049200  0.69401700  0.93719900  1
  C  1350  1  0.66510900  0.66378700  0.89379500  1
  C  1352  1  0.65494400  0.64999100  0.86622400  1
  C  1357  1  0.36237000  0.39615000  0.90136200  1
  C  1359  1  0.37580700  0.35730500  0.93766500  1
  C  1360  1  0.40610700  0.35835600  0.92725600  1
  C  1362  1  0.39253700  0.39539100  0.88913000  1
  C  1364  1  0.40332400  0.41382500  0.86466400  1
  C  1369  1  0.35996900  0.65996900  0.17075100  1
  C  1371  1  0.37800200  0.70154900  0.14003500  1
  C  1372  1  0.40811000  0.69472100  0.14882500  1
  C  1374  1  0.38993000  0.65582500  0.18294000  1
  C  1376  1  0.39822700  0.63338700  0.20492400  1
  C  1381  1  0.69639900  0.39273600  0.16963300  1
  C  1383  1  0.68195100  0.35188000  0.13593200  1
  C  1384  1  0.65145700  0.35537000  0.14518200  1
  C  1386  1  0.66609900  0.39368300  0.18157300  1
  C  1388  1  0.65581800  0.41382700  0.20488900  1
  C  1393  1  0.90027200  0.69722500  0.66881600  1
  C  1395  1  0.93639600  0.68272400  0.70737100  1
  C  1396  1  0.92552200  0.65260300  0.70592600  1
  C  1398  1  0.88764600  0.66720200  0.66901000  1
  C  1400  1  0.86324600  0.65692500  0.65020800  1
  C  1405  1  0.89982600  0.36273300  0.40053900  1
  C  1407  1  0.93767000  0.37656900  0.36339900  1
  C  1408  1  0.92729700  0.40687800  0.36447400  1
  C  1410  1  0.88783800  0.39299700  0.39997200  1
  C  1412  1  0.86283700  0.40366000  0.41773800  1
  C  1417  1  0.16546400  0.36059100  0.66420100  1
  C  1419  1  0.13361500  0.37698200  0.70564900  1
  C  1420  1  0.14280800  0.40727800  0.70045600  1
  C  1422  1  0.17780300  0.39066700  0.66164500  1
  C  1424  1  0.20044800  0.39985500  0.64023600  1
  C  1429  1  0.16236200  0.69389500  0.40094300  1
  C  1431  1  0.12337300  0.67930600  0.36513500  1
  C  1432  1  0.13397000  0.64910200  0.36626700  1
  C  1434  1  0.17470600  0.66375800  0.39990500  1
  C  1436  1  0.20063300  0.65352400  0.41656900  1
  C  1441  1  0.66303300  0.89636600  0.70114000  1
  C  1443  1  0.70052300  0.93314700  0.68568800  1
  C  1444  1  0.69804400  0.92264300  0.65549100  1
  C  1446  1  0.66255500  0.88384800  0.67106600  1
  C  1448  1  0.64397900  0.85906400  0.66129900  1
  C  1453  1  0.39311100  0.89851100  0.36613200  1
  C  1455  1  0.35380300  0.93463800  0.37873400  1
  C  1456  1  0.35462400  0.92457100  0.40915300  1
  C  1458  1  0.39212800  0.88660600  0.39641300  1
  C  1460  1  0.41078400  0.86254200  0.40770800  1
  C  1465  1  0.66007400  0.16038900  0.36625500  1
  C  1467  1  0.69580900  0.12174800  0.38177800  1
  C  1468  1  0.69410800  0.13257600  0.41187900  1
  C  1470  1  0.66041200  0.17294600  0.39632600  1
  C  1472  1  0.64317700  0.19866800  0.40612500  1
  C  1477  1  0.39582100  0.16685300  0.70032400  1
  C  1479  1  0.35534000  0.13322100  0.68479400  1
  C  1480  1  0.35950900  0.14260500  0.65441800  1
  C  1482  1  0.39735300  0.17902100  0.67012400  1
  C  1484  1  0.41758200  0.20253700  0.66046900  1
  C  1489  1  0.66059300  0.69470300  0.16135800  1
  C  1491  1  0.69200200  0.67994400  0.11884700  1
  C  1492  1  0.69394600  0.65032100  0.13086900  1
  C  1494  1  0.66371400  0.66498100  0.17425700  1
  C  1496  1  0.64990900  0.65484200  0.20183400  1
  C  1501  1  0.39608900  0.36242500  0.16663100  1
  C  1503  1  0.35697500  0.37591700  0.13064200  1
  C  1504  1  0.35820100  0.40622800  0.14100300  1
  C  1506  1  0.39545700  0.39259000  0.17887800  1
  C  1508  1  0.41408800  0.40333500  0.20321500  1
  C  1513  1  0.65993600  0.36006900  0.89736300  1
  C  1515  1  0.70173200  0.37808900  0.92779300  1
  C  1516  1  0.69484000  0.40820400  0.91906900  1
  C  1518  1  0.65573600  0.39002900  0.88518800  1
  C  1520  1  0.63316300  0.39832700  0.86334200  1
  C  1525  1  0.39277500  0.69626000  0.89915600  1
  C  1527  1  0.35239500  0.68193100  0.93347100  1
  C  1528  1  0.35562400  0.65143600  0.92413900  1
  C  1530  1  0.39351400  0.66593900  0.88725500  1
  C  1532  1  0.41333600  0.65557600  0.86370100  1
  C  1537  1  0.69729600  0.90041100  0.39951200  1
  C  1539  1  0.68276800  0.93682400  0.36123600  1
  C  1540  1  0.65267400  0.92585900  0.36253700  1
  C  1542  1  0.66728900  0.88775400  0.39921000  1
  C  1544  1  0.65702800  0.86320300  0.41782500  1
  C  1549  1  0.36273300  0.90017800  0.66754000  1
  C  1551  1  0.37653400  0.93835400  0.70435300  1
  C  1552  1  0.40682300  0.92791200  0.70346600  1
  C  1554  1  0.39298500  0.88817400  0.66826300  1
  C  1556  1  0.40367200  0.86302200  0.65072500  1
  C  1561  1  0.36055000  0.16567100  0.40387500  1
  C  1563  1  0.37695500  0.13370500  0.36252100  1
  C  1564  1  0.40725000  0.14290300  0.36770300  1
  C  1566  1  0.39063200  0.17800700  0.40641300  1
  C  1568  1  0.39981400  0.20071000  0.42776300  1
  C  1573  1  0.69396600  0.16290600  0.66739800  1
  C  1575  1  0.67927600  0.12445600  0.70374900  1
  C  1576  1  0.64904700  0.13493900  0.70226300  1
  C  1578  1  0.66381700  0.17525500  0.66817600  1
  C  1580  1  0.65364300  0.20096500  0.65114100  1
  C  1585  1  0.89646600  0.66308300  0.36705800  1
  C  1587  1  0.93312400  0.70069900  0.38248400  1
  C  1588  1  0.92261100  0.69821500  0.41268200  1
  C  1590  1  0.88393500  0.66259400  0.39712500  1
  C  1592  1  0.85921500  0.64393400  0.40689400  1
  C  1597  1  0.89839900  0.39313400  0.70195400  1
  C  1599  1  0.93440700  0.35372300  0.68932200  1
  C  1600  1  0.92434900  0.35459900  0.65890100  1
  C  1602  1  0.88649400  0.39220800  0.67167000  1
  C  1604  1  0.86248200  0.41094100  0.66039200  1
  C  1609  1  0.16050700  0.66008500  0.70199700  1
  C  1611  1  0.12180600  0.69579100  0.68654600  1
  C  1612  1  0.13259800  0.69411900  0.65642900  1
  C  1614  1  0.17302800  0.66046200  0.67191200  1
  C  1616  1  0.19875800  0.64326300  0.66207000  1
  C  1621  1  0.16704300  0.39573000  0.36777100  1
  C  1623  1  0.13316300  0.35538100  0.38313800  1
  C  1624  1  0.14254500  0.35939200  0.41353200  1
  C  1626  1  0.17916200  0.39711800  0.39799600  1
  C  1628  1  0.20276900  0.41718900  0.40774900  1
  C  1633  1  0.20506300  0.06132100  0.44139900  1
  C  1635  1  0.19282700  0.02776300  0.48285900  1
  C  1636  1  0.19567900  0.00249900  0.46314200  1
  C  1638  1  0.20405900  0.03655900  0.42051800  1
  C  1640  1  0.21124600  0.03680800  0.38894500  1
  C  1645  1  0.85318200  0.99834900  0.43729700  1
  C  1647  1  0.86234300  0.03110300  0.48039400  1
  C  1648  1  0.85258300  0.05627200  0.46300000  1
  C  1650  1  0.84592400  0.02400000  0.41877800  1
  C  1652  1  0.83561900  0.02334900  0.38786800  1
  C  1657  1  0.84583700  0.06214400  0.62324500  1
  C  1659  1  0.85812400  0.02901400  0.58139200  1
  C  1660  1  0.85457000  0.00348000  0.60061000  1
  C  1662  1  0.84561300  0.03685400  0.64357200  1
  C  1664  1  0.83754000  0.03655300  0.67493600  1
  C  1669  1  0.20602100  0.99383800  0.62702000  1
  C  1671  1  0.19669700  0.02753200  0.58473800  1
  C  1672  1  0.20720800  0.05216000  0.60246900  1
  C  1674  1  0.21422000  0.01899200  0.64586400  1
  C  1676  1  0.22497100  0.01776600  0.67660000  1
  C  1681  1  0.44202800  0.20778400  0.06944700  1
  C  1683  1  0.48155700  0.19631600  0.03336200  1
  C  1684  1  0.46046200  0.19958800  0.00928400  1
  C  1686  1  0.41986700  0.20719900  0.04575100  1
  C  1688  1  0.38835900  0.21435100  0.04775600  1
  C  1693  1  0.43546900  0.84925300  0.00160700  1
  C  1695  1  0.47891400  0.85695100  0.03432400  1
  C  1696  1  0.46183200  0.84577700  0.05909900  1
  C  1698  1  0.41731700  0.84055700  0.02711000  1
  C  1700  1  0.38630800  0.83053100  0.02645900  1
  C  1705  1  0.62039600  0.84883200  0.06702800  1
  C  1707  1  0.58014800  0.86136600  0.03209100  1
  C  1708  1  0.60041800  0.85763900  0.00738500  1
  C  1710  1  0.64187300  0.84880300  0.04271900  1
  C  1712  1  0.67319800  0.84067100  0.04378700  1
  C  1717  1  0.62723500  0.20316100  0.00265900  1
  C  1719  1  0.58272700  0.19343200  0.03320900  1
  C  1720  1  0.59894300  0.20284100  0.05927800  1
  C  1722  1  0.64456000  0.21026100  0.02915100  1
  C  1724  1  0.67538600  0.22080300  0.02983000  1
  C  1729  1  0.06321900  0.43847400  0.21451700  1
  C  1731  1  0.02965400  0.47990000  0.20210800  1
  C  1732  1  0.00432000  0.46038400  0.20560900  1
  C  1734  1  0.03824000  0.41778800  0.21444700  1
  C  1736  1  0.03832900  0.38638600  0.22236900  1
  C  1741  1  0.99512300  0.43725100  0.85670400  1
  C  1743  1  0.02978200  0.47921800  0.86399400  1
  C  1744  1  0.05395400  0.46055100  0.85408800  1
  C  1746  1  0.01989100  0.41756800  0.84931700  1
  C  1748  1  0.01791100  0.38638300  0.84006300  1
  C  1753  1  0.06030900  0.62217200  0.85588000  1
  C  1755  1  0.02694600  0.58074700  0.86885300  1
  C  1756  1  0.00157600  0.60024900  0.86563600  1
  C  1758  1  0.03536300  0.64286800  0.85621400  1
  C  1760  1  0.03538200  0.67425600  0.84822200  1
  C  1765  1  0.99282300  0.62307600  0.21058600  1
  C  1767  1  0.02643600  0.58101700  0.20008900  1
  C  1768  1  0.05127900  0.59864100  0.21028900  1
  C  1770  1  0.01805700  0.64183200  0.21875400  1
  C  1772  1  0.01701500  0.67232400  0.23024600  1
  C  1777  1  0.06138700  0.20491300  0.62650400  1
  C  1779  1  0.02771500  0.19275000  0.58511700  1
  C  1780  1  0.00250300  0.19566600  0.60488900  1
  C  1782  1  0.03666400  0.20397200  0.64743500  1
  C  1784  1  0.03699900  0.21119600  0.67899700  1
  C  1789  1  0.99831900  0.85320900  0.63082100  1
  C  1791  1  0.03106700  0.86221700  0.58768500  1
  C  1792  1  0.05625300  0.85259700  0.60513100  1
  C  1794  1  0.02398000  0.84610400  0.64938300  1
  C  1796  1  0.02333400  0.83595600  0.68034400  1
  C  1801  1  0.06228600  0.84583000  0.44492300  1
  C  1803  1  0.02905700  0.85829500  0.48664100  1
  C  1804  1  0.00357200  0.85475100  0.46735900  1
  C  1806  1  0.03705200  0.84558300  0.42452500  1
  C  1808  1  0.03682400  0.83740800  0.39318700  1
  C  1813  1  0.99384000  0.20598700  0.44094400  1
  C  1815  1  0.02750300  0.19661000  0.48323800  1
  C  1816  1  0.05216600  0.20701700  0.46549500  1
  C  1818  1  0.01901800  0.21408800  0.42209200  1
  C  1820  1  0.01782500  0.22482400  0.39134800  1
  C  1825  1  0.20785700  0.44183600  0.99851100  1
  C  1827  1  0.19635300  0.48148400  0.03446100  1
  C  1828  1  0.19968600  0.46048200  0.05861200  1
  C  1830  1  0.20737000  0.41976800  0.02229600  1
  C  1832  1  0.21460400  0.38827000  0.02040100  1
  C  1837  1  0.84921200  0.43530700  0.06629100  1
  C  1839  1  0.85688700  0.47889100  0.03376000  1
  C  1840  1  0.84579600  0.46188600  0.00889800  1
  C  1842  1  0.84059300  0.41723500  0.04070700  1
  C  1844  1  0.83061800  0.38620500  0.04123500  1
  C  1849  1  0.84876600  0.62052600  0.00129400  1
  C  1851  1  0.86131400  0.58015500  0.03608200  1
  C  1852  1  0.85757300  0.60033400  0.06086000  1
  C  1854  1  0.84871600  0.64191700  0.02567800  1
  C  1856  1  0.84056800  0.67324100  0.02471900  1
  C  1861  1  0.20296200  0.62721900  0.06574800  1
  C  1863  1  0.19318100  0.58275700  0.03514300  1
  C  1864  1  0.20258400  0.59900000  0.00908500  1
  C  1866  1  0.21006300  0.64457200  0.03927300  1
  C  1868  1  0.22064600  0.67538600  0.03861100  1
  C  1873  1  0.43858400  0.06306400  0.85382200  1
  C  1875  1  0.47994100  0.02940000  0.86619600  1
  C  1876  1  0.46036100  0.00410800  0.86272700  1
  C  1878  1  0.41783100  0.03813900  0.85396600  1
  C  1880  1  0.38641500  0.03829800  0.84610400  1
  C  1885  1  0.43742000  0.99506800  0.21139000  1
  C  1887  1  0.47932300  0.02982100  0.20417200  1
  C  1888  1  0.46058500  0.05394900  0.21406000  1
  C  1890  1  0.41767400  0.01979000  0.21875500  1
  C  1892  1  0.38648200  0.01774400  0.22796200  1
  C  1897  1  0.62232800  0.06007200  0.21236700  1
  C  1899  1  0.58090900  0.02671000  0.19936700  1
  C  1900  1  0.60041600  0.00133900  0.20256400  1
  C  1902  1  0.64303300  0.03513400  0.21199600  1
  C  1904  1  0.67441900  0.03514800  0.21999000  1
  C  1909  1  0.62311000  0.99271500  0.85749500  1
  C  1911  1  0.58101700  0.02627700  0.86803700  1
  C  1912  1  0.59851600  0.05110100  0.85758900  1
  C  1914  1  0.64174700  0.01795800  0.84907700  1
  C  1916  1  0.67218900  0.01693500  0.83745100  1
  C  1921  1  0.70531600  0.56120600  0.93970000  1
  C  1923  1  0.69221700  0.52845500  0.98154700  1
  C  1924  1  0.69449700  0.50285900  0.96217500  1
  C  1926  1  0.70375600  0.53624600  0.91910800  1
  C  1928  1  0.71117700  0.53589200  0.88758700  1
  C  1933  1  0.35307600  0.49795200  0.93838100  1
  C  1935  1  0.36229400  0.53134300  0.98091800  1
  C  1936  1  0.35283600  0.55630600  0.96305300  1
  C  1938  1  0.34605400  0.52329400  0.91936600  1
  C  1940  1  0.33581300  0.52221900  0.88844700  1
  C  1945  1  0.34654300  0.56435300  0.12044400  1
  C  1947  1  0.35651100  0.52800900  0.08068400  1
  C  1948  1  0.35176800  0.50406000  0.10159900  1
  C  1950  1  0.34530300  0.54039200  0.14233200  1
  C  1952  1  0.33778500  0.54251700  0.17374300  1
  C  1957  1  0.70592200  0.49302300  0.12738900  1
  C  1959  1  0.69642000  0.52601500  0.08449100  1
  C  1960  1  0.70702600  0.55095300  0.10171400  1
  C  1962  1  0.71418200  0.51857600  0.14568200  1
  C  1964  1  0.72499800  0.51789200  0.17642100  1
  C  1969  1  0.94288600  0.70797100  0.57054800  1
  C  1971  1  0.98312700  0.69811900  0.53469800  1
  C  1972  1  0.96234200  0.70190100  0.51043500  1
  C  1974  1  0.92110200  0.70772400  0.54649300  1
  C  1976  1  0.88948700  0.71443800  0.54821100  1
  C  1981  1  0.93521600  0.34938300  0.50201100  1
  C  1983  1  0.97710300  0.35735500  0.53654600  1
  C  1984  1  0.95884800  0.34659100  0.56066000  1
  C  1986  1  0.91588800  0.34086700  0.52668700  1
  C  1988  1  0.88499400  0.33065000  0.52472100  1
  C  1993  1  0.11795800  0.35015600  0.56709300  1
  C  1995  1  0.07748200  0.36184400  0.53215300  1
  C  1996  1  0.09778000  0.35822400  0.50745100  1
  C  1998  1  0.13942400  0.35037100  0.54277700  1
  C  2000  1  0.17089900  0.34285000  0.54387500  1
  C  2005  1  0.12834500  0.70427300  0.50248800  1
  C  2007  1  0.08430700  0.69310600  0.53322100  1
  C  2008  1  0.10038200  0.70285500  0.55925400  1
  C  2010  1  0.14558300  0.71187600  0.52889600  1
  C  2012  1  0.17606300  0.72339700  0.52958000  1
  C  2017  1  0.56299000  0.93541300  0.71339300  1
  C  2019  1  0.53056100  0.97865100  0.70403700  1
  C  2020  1  0.50505200  0.96098400  0.71233800  1
  C  2022  1  0.53716300  0.91676400  0.71971600  1
  C  2024  1  0.53734400  0.88578900  0.72984600  1
  C  2029  1  0.49434500  0.93751900  0.35701400  1
  C  2031  1  0.52989100  0.97875000  0.36436400  1
  C  2032  1  0.55360500  0.95975100  0.35398400  1
  C  2034  1  0.51870600  0.91749100  0.34916800  1
  C  2036  1  0.51615900  0.88645300  0.33963000  1
  C  2041  1  0.56136400  0.12125600  0.35538600  1
  C  2043  1  0.52753300  0.08030400  0.36858300  1
  C  2044  1  0.50241500  0.10016500  0.36555100  1
  C  2046  1  0.53672900  0.14231900  0.35598100  1
  C  2048  1  0.53710100  0.17368900  0.34793600  1
  C  2053  1  0.49603500  0.12504200  0.71031700  1
  C  2055  1  0.52763000  0.08143900  0.69972000  1
  C  2056  1  0.55351800  0.09833700  0.70845300  1
  C  2058  1  0.52219600  0.14302100  0.71702900  1
  C  2060  1  0.52254800  0.17374800  0.72789800  1
  C  2065  1  0.56112900  0.70525400  0.12834100  1
  C  2067  1  0.52841400  0.69220300  0.08645500  1
  C  2068  1  0.50280400  0.69446000  0.10580700  1
  C  2070  1  0.53615200  0.70367600  0.14891200  1
  C  2072  1  0.53577700  0.71104900  0.18044600  1
  C  2077  1  0.49791300  0.35321600  0.12939800  1
  C  2079  1  0.53173000  0.36245900  0.08721300  1
  C  2080  1  0.55656400  0.35320900  0.10536700  1
  C  2082  1  0.52307400  0.34633500  0.14870000  1
  C  2084  1  0.52173400  0.33609200  0.17960600  1
  C  2089  1  0.56439900  0.34672100  0.94797600  1
  C  2091  1  0.52787900  0.35658700  0.98760700  1
  C  2092  1  0.50402100  0.35178400  0.96660000  1
  C  2094  1  0.54051100  0.34541300  0.92600700  1
  C  2096  1  0.54276600  0.33787100  0.89461200  1
  C  2101  1  0.49325200  0.70593500  0.94063100  1
  C  2103  1  0.52619100  0.69650500  0.98357900  1
  C  2104  1  0.55114900  0.70707400  0.96636200  1
  C  2106  1  0.51882100  0.71415200  0.92234600  1
  C  2108  1  0.51815500  0.72490400  0.89158400  1
  C  2113  1  0.70810800  0.94266400  0.49781200  1
  C  2115  1  0.69799800  0.98306000  0.53341700  1
  C  2116  1  0.70158800  0.96236900  0.55777900  1
  C  2118  1  0.70772800  0.92097900  0.52195100  1
  C  2120  1  0.71447700  0.88935900  0.52040300  1
  C  2125  1  0.34944000  0.93520700  0.56602000  1
  C  2127  1  0.35732700  0.97717900  0.53156300  1
  C  2128  1  0.34660500  0.95894200  0.50741400  1
  C  2130  1  0.34099100  0.91590200  0.54130500  1
  C  2132  1  0.33086200  0.88497500  0.54322300  1
  C  2137  1  0.35015100  0.11817300  0.50094500  1
  C  2139  1  0.36197000  0.07764300  0.53577700  1
  C  2140  1  0.35837700  0.09788500  0.56053000  1
  C  2142  1  0.35038200  0.13959100  0.52530200  1
  C  2144  1  0.34279300  0.17105300  0.52428800  1
  C  2149  1  0.70423200  0.12826200  0.56587800  1
  C  2151  1  0.69306100  0.08427600  0.53507100  1
  C  2152  1  0.70290100  0.10036400  0.50907900  1
  C  2154  1  0.71191800  0.14551600  0.53950300  1
  C  2156  1  0.72348600  0.17598000  0.53887100  1
  C  2161  1  0.93581100  0.56311400  0.35492600  1
  C  2163  1  0.97880900  0.53037400  0.36430400  1
  C  2164  1  0.96097700  0.50499500  0.35594600  1
  C  2166  1  0.91700900  0.53741900  0.34852100  1
  C  2168  1  0.88608200  0.53783100  0.33829000  1
  C  2173  1  0.93753500  0.49433200  0.71116100  1
  C  2175  1  0.97872500  0.52992800  0.70382700  1
  C  2176  1  0.95970500  0.55361700  0.71423000  1
  C  2178  1  0.91748400  0.51866500  0.71904100  1
  C  2180  1  0.88645300  0.51608600  0.72859500  1
  C  2185  1  0.12138800  0.56137800  0.71277100  1
  C  2187  1  0.08035600  0.52763000  0.69961500  1
  C  2188  1  0.10017100  0.50247000  0.70262400  1
  C  2190  1  0.14240400  0.53670300  0.71214400  1
  C  2192  1  0.17378500  0.53701700  0.72015000  1
  C  2197  1  0.12547600  0.49600300  0.35782600  1
  C  2199  1  0.08166000  0.52733500  0.36837000  1
  C  2200  1  0.09834000  0.55326000  0.35934000  1
  C  2202  1  0.14324000  0.52226000  0.35090400  1
  C  2204  1  0.17395800  0.52274700  0.34001400  1
  N  1058  1  0.20131100  0.17785800  0.43151600  1
  N  1061  1  0.14475400  0.18091000  0.40830900  1
  N  1066  1  0.17336700  0.13727000  0.34408000  1
  N  1070  1  0.85651200  0.87835300  0.42528000  1
  N  1073  1  0.91384400  0.87851500  0.40388200  1
  N  1078  1  0.88517000  0.92501700  0.34152600  1
  N  1082  1  0.85460900  0.17851600  0.64784900  1
  N  1085  1  0.91156100  0.17210300  0.66925500  1
  N  1090  1  0.87861600  0.12359300  0.72788600  1
  N  1094  1  0.20311000  0.87354600  0.64465400  1
  N  1097  1  0.14562100  0.87560400  0.66538100  1
  N  1102  1  0.17437800  0.92517900  0.72533200  1
  N  1106  1  0.42546000  0.20329500  0.18687700  1
  N  1109  1  0.40303600  0.14632800  0.18720500  1
  N  1114  1  0.34206300  0.17490400  0.13894200  1
  N  1118  1  0.41684100  0.85683400  0.88130500  1
  N  1121  1  0.39603800  0.91420300  0.88580800  1
  N  1126  1  0.33683300  0.88333800  0.93502900  1
  N  1130  1  0.64419400  0.85449900  0.18559000  1
  N  1133  1  0.66498800  0.91170800  0.17964300  1
  N  1138  1  0.72289400  0.87985700  0.12946000  1
  N  1142  1  0.63519300  0.19962800  0.88339700  1
  N  1145  1  0.65809100  0.14290500  0.88166200  1
  N  1150  1  0.72173900  0.17225200  0.92575800  1
  N  1154  1  0.18041200  0.41710400  0.20711400  1
  N  1157  1  0.17578100  0.39508000  0.15015700  1
  N  1162  1  0.12760700  0.33577400  0.18234200  1
  N  1166  1  0.87643400  0.42877400  0.86024400  1
  N  1169  1  0.87267500  0.40688000  0.91724600  1
  N  1174  1  0.91808100  0.34282900  0.89089300  1
  N  1178  1  0.17565600  0.63365400  0.86097300  1
  N  1181  1  0.17737200  0.65612900  0.91782700  1
  N  1186  1  0.13509100  0.72106900  0.88879400  1
  N  1190  1  0.87093700  0.64698600  0.20592400  1
  N  1193  1  0.87773500  0.66733900  0.14868900  1
  N  1198  1  0.93080500  0.72267700  0.18055200  1
  N  1202  1  0.17794700  0.20134300  0.63633700  1
  N  1205  1  0.18110700  0.14478900  0.65953200  1
  N  1210  1  0.13744400  0.17331700  0.72378800  1
  N  1214  1  0.87827300  0.85642200  0.64248400  1
  N  1217  1  0.87823100  0.91374800  0.66390000  1
  N  1222  1  0.92466700  0.88520200  0.72635600  1
  N  1226  1  0.17868600  0.85457200  0.42024200  1
  N  1229  1  0.17215800  0.91151100  0.39882400  1
  N  1234  1  0.12366000  0.87844600  0.34024300  1
  N  1238  1  0.87355000  0.20310500  0.42346200  1
  N  1241  1  0.87556700  0.14561200  0.40274100  1
  N  1246  1  0.92506500  0.17434900  0.34271500  1
  N  1250  1  0.20328000  0.42539400  0.88124500  1
  N  1253  1  0.14630800  0.40299700  0.88085400  1
  N  1258  1  0.17486800  0.34180200  0.92883800  1
  N  1262  1  0.85691600  0.41726200  0.18644000  1
  N  1265  1  0.91426700  0.39633300  0.18225100  1
  N  1270  1  0.88348700  0.33681000  0.13337900  1
  N  1274  1  0.85460900  0.64383700  0.88293500  1
  N  1277  1  0.91179900  0.66475500  0.88866200  1
  N  1282  1  0.87995600  0.72302000  0.93841300  1
  N  1286  1  0.19953600  0.63609900  0.18527300  1
  N  1289  1  0.14273300  0.65882100  0.18647700  1
  N  1294  1  0.17212800  0.72203900  0.14177200  1
  N  1298  1  0.41672000  0.18052100  0.86097800  1
  N  1301  1  0.39479200  0.17570300  0.91795300  1
  N  1306  1  0.33588600  0.12701000  0.88579400  1
  N  1310  1  0.42865700  0.87628100  0.20781100  1
  N  1313  1  0.40673800  0.87268400  0.15080300  1
  N  1318  1  0.34289100  0.91833700  0.17724000  1
  N  1322  1  0.63326300  0.17516600  0.20739100  1
  N  1325  1  0.65579700  0.17738700  0.15058300  1
  N  1330  1  0.72105100  0.13547300  0.17940900  1
  N  1334  1  0.64729300  0.87094100  0.86229700  1
  N  1337  1  0.66757900  0.87784000  0.91954000  1
  N  1342  1  0.72291900  0.93089200  0.88764400  1
  N  1346  1  0.70036700  0.67477500  0.93391300  1
  N  1349  1  0.64437700  0.68048300  0.90994000  1
  N  1354  1  0.67354500  0.64201500  0.84283400  1
  N  1358  1  0.35599000  0.37713600  0.92518200  1
  N  1361  1  0.41312500  0.37685200  0.90333600  1
  N  1366  1  0.38513500  0.42618500  0.84290500  1
  N  1370  1  0.35583400  0.68287100  0.15012300  1
  N  1373  1  0.41279800  0.67271700  0.17020200  1
  N  1378  1  0.37830200  0.62025100  0.22461200  1
  N  1382  1  0.70234300  0.37178000  0.14736800  1
  N  1385  1  0.64485500  0.37555300  0.16780800  1
  N  1390  1  0.67437800  0.42689600  0.22591000  1
  N  1394  1  0.92406600  0.70308600  0.68801400  1
  N  1397  1  0.90150900  0.64618600  0.68733000  1
  N  1402  1  0.84159700  0.67545900  0.63817800  1
  N  1406  1  0.92429000  0.35644000  0.38233100  1
  N  1409  1  0.90270200  0.41373300  0.38212800  1
  N  1414  1  0.84040100  0.38549200  0.42885600  1
  N  1418  1  0.14417300  0.35562100  0.68632800  1
  N  1421  1  0.16478000  0.41282100  0.67925100  1
  N  1426  1  0.22067700  0.38050600  0.62705900  1
  N  1430  1  0.13717900  0.69964400  0.38351100  1
  N  1433  1  0.15936400  0.64266000  0.38288900  1
  N  1438  1  0.22329400  0.67206800  0.42654600  1
  N  1442  1  0.68200400  0.92041600  0.70661000  1
  N  1445  1  0.67977900  0.89827500  0.64951100  1
  N  1450  1  0.63290400  0.83719500  0.68016500  1
  N  1454  1  0.37394600  0.92208800  0.35926000  1
  N  1457  1  0.37324400  0.90088000  0.41661700  1
  N  1462  1  0.42371800  0.84078500  0.38991900  1
  N  1466  1  0.67784700  0.13535400  0.36095400  1
  N  1469  1  0.67722500  0.15792600  0.41781500  1
  N  1474  1  0.63319900  0.22109200  0.38729600  1
  N  1478  1  0.37478500  0.14453200  0.70566600  1
  N  1481  1  0.37976300  0.16532200  0.64837400  1
  N  1486  1  0.43017600  0.22343900  0.67948900  1
  N  1490  1  0.67472700  0.70021100  0.13412300  1
  N  1493  1  0.68040300  0.64423100  0.15812900  1
  N  1498  1  0.64194400  0.67346300  0.22521000  1
  N  1502  1  0.37687000  0.35606500  0.14297000  1
  N  1505  1  0.37688400  0.41321900  0.16478300  1
  N  1510  1  0.42660800  0.38511000  0.22485100  1
  N  1514  1  0.68297800  0.35592600  0.91783200  1
  N  1517  1  0.67269500  0.41289400  0.89783800  1
  N  1522  1  0.61987900  0.37840000  0.84376000  1
  N  1526  1  0.37216900  0.70227200  0.92172600  1
  N  1529  1  0.37546200  0.64476800  0.90123000  1
  N  1534  1  0.42616000  0.67406000  0.84246600  1
  N  1538  1  0.70312900  0.92437200  0.38051100  1
  N  1541  1  0.64628000  0.90168900  0.38094100  1
  N  1546  1  0.67556900  0.84146700  0.42968400  1
  N  1550  1  0.35642600  0.92482000  0.68550500  1
  N  1553  1  0.41368800  0.90314600  0.68605400  1
  N  1558  1  0.38551900  0.84049500  0.63976700  1
  N  1562  1  0.35559200  0.14432300  0.38180300  1
  N  1565  1  0.41278900  0.16493400  0.38884900  1
  N  1570  1  0.38046800  0.22098400  0.44087100  1
  N  1574  1  0.69967000  0.13800500  0.68524200  1
  N  1577  1  0.64264100  0.16007800  0.68524400  1
  N  1582  1  0.67223900  0.22346800  0.64090100  1
  N  1586  1  0.92045700  0.68212500  0.36157600  1
  N  1589  1  0.89830300  0.67988000  0.41867100  1
  N  1594  1  0.83741000  0.63274000  0.38802300  1
  N  1598  1  0.92191600  0.37389100  0.70881200  1
  N  1601  1  0.90072000  0.37330300  0.65144800  1
  N  1606  1  0.84076200  0.42391900  0.67819200  1
  N  1610  1  0.13545800  0.67782800  0.70733900  1
  N  1613  1  0.15796100  0.67727000  0.65045300  1
  N  1618  1  0.22121500  0.63329500  0.68086500  1
  N  1622  1  0.14461200  0.37482800  0.36234200  1
  N  1625  1  0.16535700  0.37951200  0.41966800  1
  N  1630  1  0.22379400  0.42969500  0.38881000  1
  N  1634  1  0.19874300  0.05595700  0.47142500  1
  N  1637  1  0.20063900  0.00859100  0.43304300  1
  N  1642  1  0.23665300  0.04977100  0.37702400  1
  N  1646  1  0.86091600  0.00306800  0.46716400  1
  N  1649  1  0.84528100  0.05120000  0.43327200  1
  N  1654  1  0.81976700  0.04643400  0.37461800  1
  N  1658  1  0.85279100  0.05714500  0.59329000  1
  N  1661  1  0.84883500  0.00905700  0.63064300  1
  N  1666  1  0.81213200  0.04996200  0.68634900  1
  N  1670  1  0.19777600  0.99920600  0.59740600  1
  N  1673  1  0.21498300  0.04648200  0.63192300  1
  N  1678  1  0.24210300  0.04006100  0.68960500  1
  N  1682  1  0.47169900  0.20159800  0.06228700  1
  N  1685  1  0.43077900  0.20438600  0.01707300  1
  N  1690  1  0.37737300  0.24006100  0.06093400  1
  N  1694  1  0.46535100  0.85693700  0.00640000  1
  N  1697  1  0.43208000  0.83868100  0.05412400  1
  N  1702  1  0.37317700  0.81400500  0.04914100  1
  N  1706  1  0.59071300  0.85585500  0.06072000  1
  N  1709  1  0.63017600  0.85194500  0.01439100  1
  N  1714  1  0.68384300  0.81481600  0.05697100  1
  N  1718  1  0.59719400  0.19533900  0.00582800  1
  N  1721  1  0.62885000  0.21037400  0.05570700  1
  N  1726  1  0.68794500  0.23548700  0.05404700  1
  N  1730  1  0.05790100  0.46838100  0.20762100  1
  N  1733  1  0.01030000  0.43038100  0.21115200  1
  N  1738  1  0.05160100  0.37504600  0.24787900  1
  N  1742  1  0.00121200  0.46708700  0.86357800  1
  N  1745  1  0.04764600  0.43089800  0.84769800  1
  N  1750  1  0.03998500  0.37191900  0.82383800  1
  N  1754  1  0.05509900  0.59226600  0.86288300  1
  N  1757  1  0.00747800  0.63024200  0.85986600  1
  N  1762  1  0.04861600  0.68564700  0.82271000  1
  N  1766  1  0.99810800  0.59360300  0.20181900  1
  N  1769  1  0.04557500  0.62792400  0.21872500  1
  N  1774  1  0.03988200  0.68516700  0.24674700  1
  N  1778  1  0.05594800  0.19860400  0.59648900  1
  N  1781  1  0.00866300  0.20061900  0.63497400  1
  N  1786  1  0.04988700  0.23668800  0.69082000  1
  N  1790  1  0.00303100  0.86079500  0.60091400  1
  N  1793  1  0.05118500  0.84543700  0.63489600  1
  N  1798  1  0.04647300  0.82028000  0.69371000  1
  N  1802  1  0.05721400  0.85288000  0.47484100  1
  N  1805  1  0.00922500  0.84890600  0.43736100  1
  N  1810  1  0.05023700  0.81194900  0.38189400  1
  N  1814  1  0.99918100  0.19776200  0.47056900  1
  N  1817  1  0.04650800  0.21478000  0.43603200  1
  N  1822  1  0.04019000  0.24184700  0.37831800  1
  N  1826  1  0.20161100  0.47152100  0.00556900  1
  N  1829  1  0.20455400  0.43078200  0.05093600  1
  N  1834  1  0.24030300  0.37729600  0.00718800  1
  N  1838  1  0.85684500  0.46522100  0.06162900  1
  N  1841  1  0.83873900  0.43210100  0.01374600  1
  N  1846  1  0.81425600  0.37309000  0.01842800  1
  N  1850  1  0.85580500  0.59082500  0.00749200  1
  N  1853  1  0.85186200  0.63011400  0.05396200  1
  N  1858  1  0.81474800  0.68393600  0.01150700  1
  N  1862  1  0.19510800  0.59719100  0.06254200  1
  N  1865  1  0.21014600  0.62889300  0.01270000  1
  N  1870  1  0.23539300  0.68792000  0.01442000  1
  N  1874  1  0.46848600  0.05767300  0.86067100  1
  N  1877  1  0.43036300  0.01016900  0.85724600  1
  N  1882  1  0.37507100  0.05152100  0.82057000  1
  N  1886  1  0.46725400  0.00122500  0.20455900  1
  N  1889  1  0.43093900  0.04757400  0.22040400  1
  N  1894  1  0.37197900  0.03974200  0.24425500  1
  N  1898  1  0.59242100  0.05486000  0.20536400  1
  N  1901  1  0.63040700  0.00725000  0.20832800  1
  N  1906  1  0.68580200  0.04835400  0.24551700  1
  N  1910  1  0.59367200  0.99797200  0.86640000  1
  N  1913  1  0.62777300  0.04544300  0.84903100  1
  N  1918  1  0.68487900  0.03973200  0.82073200  1
  N  1922  1  0.69877300  0.55636100  0.96976500  1
  N  1925  1  0.69970200  0.50853900  0.93201500  1
  N  1930  1  0.73667200  0.54862500  0.87559900  1
  N  1934  1  0.36070700  0.50307800  0.96819900  1
  N  1937  1  0.34556000  0.55073100  0.93340000  1
  N  1942  1  0.32008900  0.54517600  0.87482200  1
  N  1946  1  0.35275800  0.55709500  0.09078600  1
  N  1949  1  0.34684000  0.51167000  0.13127100  1
  N  1954  1  0.31230700  0.55644300  0.18433900  1
  N  1958  1  0.69755000  0.49794200  0.09771300  1
  N  1961  1  0.71486800  0.54582300  0.13124600  1
  N  1966  1  0.74146800  0.54076900  0.18927800  1
  N  1970  1  0.97273800  0.70239300  0.56360500  1
  N  1973  1  0.93248100  0.70600900  0.51790400  1
  N  1978  1  0.87804400  0.73992200  0.56143700  1
  N  1982  1  0.96486700  0.35705500  0.50802000  1
  N  1985  1  0.92937800  0.33934900  0.55437600  1
  N  1990  1  0.87097100  0.31418300  0.54690500  1
  N  1994  1  0.08815300  0.35664100  0.56079700  1
  N  1997  1  0.12765000  0.35313300  0.51444400  1
  N  2002  1  0.18201900  0.31712300  0.55691400  1
  N  2006  1  0.09859200  0.69546900  0.50578100  1
  N  2009  1  0.13001500  0.71133700  0.55552200  1
  N  2014  1  0.18817900  0.73835700  0.55385900  1
  N  2018  1  0.55854700  0.96539300  0.70600200  1
  N  2021  1  0.50991800  0.93120500  0.71951000  1
  N  2026  1  0.51398400  0.87280300  0.74551300  1
  N  2030  1  0.50108700  0.96715100  0.36416500  1
  N  2033  1  0.54668800  0.93029700  0.34737300  1
  N  2038  1  0.53724500  0.87225400  0.32193000  1
  N  2042  1  0.55581000  0.09142400  0.36242500  1
  N  2045  1  0.50870400  0.13007900  0.35980900  1
  N  2050  1  0.55016600  0.18480400  0.32221600  1
  N  2054  1  0.49990400  0.09516500  0.70217600  1
  N  2057  1  0.54912800  0.12803700  0.71637900  1
  N  2062  1  0.54657100  0.18631600  0.74290100  1
  N  2066  1  0.55631000  0.69875000  0.09826400  1
  N  2069  1  0.50845500  0.69963300  0.13597800  1
  N  2074  1  0.54853300  0.73650300  0.19249200  1
  N  2078  1  0.50333000  0.36079000  0.09962100  1
  N  2081  1  0.55065500  0.34594100  0.13496100  1
  N  2086  1  0.54451300  0.32024000  0.19337500  1
  N  2090  1  0.55701000  0.35290900  0.97760900  1
  N  2093  1  0.51174500  0.34687200  0.93695900  1
  N  2098  1  0.55666700  0.31233900  0.88411500  1
  N  2102  1  0.49813400  0.69762300  0.97033000  1
  N  2105  1  0.54605400  0.71486300  0.93681000  1
  N  2110  1  0.54108700  0.74125700  0.87866800  1
  N  2114  1  0.70247300  0.97254800  0.50458800  1
  N  2117  1  0.70580300  0.93247700  0.55048400  1
  N  2122  1  0.73993800  0.87784700  0.50719200  1
  N  2126  1  0.35704400  0.96488700  0.56006500  1
  N  2129  1  0.33944000  0.92944000  0.51364100  1
  N  2134  1  0.31445200  0.87093400  0.52100700  1
  N  2138  1  0.35670100  0.08836700  0.50716700  1
  N  2141  1  0.35322300  0.12776200  0.55360300  1
  N  2146  1  0.31704600  0.18215400  0.51127700  1
  N  2150  1  0.69538400  0.09852800  0.56253300  1
  N  2153  1  0.71141400  0.12997900  0.51285900  1
  N  2158  1  0.73854700  0.18808300  0.51464700  1
  N  2162  1  0.96574900  0.55845500  0.36235600  1
  N  2165  1  0.93125100  0.51007400  0.34871300  1
  N  2170  1  0.87317800  0.51483000  0.32203500  1
  N  2174  1  0.96715300  0.50111200  0.70400300  1
  N  2177  1  0.93026300  0.54665800  0.72085000  1
  N  2182  1  0.87225800  0.53713100  0.74634300  1
  N  2186  1  0.09153800  0.55588100  0.70576600  1
  N  2189  1  0.13010500  0.50870200  0.70833200  1
  N  2194  1  0.18495700  0.55004200  0.74586300  1
  N  2198  1  0.09559400  0.49970300  0.36603800  1
  N  2201  1  0.12806200  0.54909100  0.35140200  1
  N  2206  1  0.18641300  0.54682000  0.32499700  1
  O  1065  1  0.12447600  0.14342500  0.36303800  1
  O  1077  1  0.93400000  0.91793000  0.36030500  1
  O  1089  1  0.92806800  0.12817700  0.70994400  1
  O  1101  1  0.12555700  0.91721000  0.70687100  1
  O  1113  1  0.36074800  0.12608600  0.14639700  1
  O  1125  1  0.35503400  0.93250200  0.92874000  1
  O  1137  1  0.70522600  0.92922200  0.13572800  1
  O  1149  1  0.70326700  0.12319600  0.91949000  1
  O  1161  1  0.13275900  0.35367500  0.13292900  1
  O  1173  1  0.91016900  0.36247000  0.93925000  1
  O  1185  1  0.13988800  0.70156800  0.93762200  1
  O  1197  1  0.92304800  0.70597200  0.13106200  1
  O  1209  1  0.14369000  0.12443800  0.70482600  1
  O  1221  1  0.91753700  0.93400600  0.70753200  1
  O  1233  1  0.12821300  0.92792400  0.35812300  1
  O  1245  1  0.91711600  0.12553400  0.36119700  1
  O  1257  1  0.12606200  0.36057700  0.92152500  1
  O  1269  1  0.93263200  0.35509100  0.13957000  1
  O  1281  1  0.92931200  0.70526300  0.93233000  1
  O  1293  1  0.12307400  0.70360100  0.14816200  1
  O  1305  1  0.35369600  0.13240100  0.93521600  1
  O  1317  1  0.36246100  0.91037000  0.12886300  1
  O  1329  1  0.70147200  0.14027700  0.13061300  1
  O  1341  1  0.70619100  0.92318100  0.93713500  1
  O  1353  1  0.62449300  0.64642200  0.86185600  1
  O  1365  1  0.43387300  0.41763700  0.86130900  1
  O  1377  1  0.42811700  0.62590200  0.20801000  1
  O  1389  1  0.62539900  0.41877600  0.20793100  1
  O  1401  1  0.85990500  0.62649000  0.64557800  1
  O  1413  1  0.85974500  0.43415700  0.42215800  1
  O  1425  1  0.20362700  0.43000900  0.63394900  1
  O  1437  1  0.20436700  0.62309900  0.42098300  1
  O  1449  1  0.63861700  0.85558300  0.63099900  1
  O  1461  1  0.41428200  0.85960600  0.43833700  1
  O  1473  1  0.63800800  0.20237700  0.43643200  1
  O  1485  1  0.42310000  0.20591900  0.63018500  1
  O  1497  1  0.64632800  0.62439500  0.20622600  1
  O  1509  1  0.41794800  0.43387800  0.20657700  1
  O  1521  1  0.62568500  0.42822300  0.86028000  1
  O  1533  1  0.41819700  0.62514100  0.86067300  1
  O  1545  1  0.62659300  0.85981800  0.42243700  1
  O  1557  1  0.43417500  0.85988900  0.64638300  1
  O  1569  1  0.42996700  0.20389900  0.43405400  1
  O  1581  1  0.62323300  0.20466900  0.64659800  1
  O  1593  1  0.85572500  0.63860500  0.43720100  1
  O  1605  1  0.85955500  0.41447400  0.62976500  1
  O  1617  1  0.20243800  0.63812300  0.63175400  1
  O  1629  1  0.20611400  0.42261500  0.43805600  1
  O  1641  1  0.19439000  0.01872800  0.37031200  1
  O  1653  1  0.84390200  0.99995200  0.36940200  1
  O  1665  1  0.85336700  0.01765000  0.69365300  1
  O  1677  1  0.21540200  0.99510300  0.69534700  1
  O  1689  1  0.36869300  0.19728300  0.03102500  1
  O  1701  1  0.36749900  0.84010800  0.00384500  1
  O  1713  1  0.69283900  0.85692100  0.02623200  1
  O  1725  1  0.69434800  0.21435600  0.00624300  1
  O  1737  1  0.01983200  0.36748800  0.20627900  1
  O  1749  1  0.99455400  0.36880300  0.85017300  1
  O  1761  1  0.01691700  0.69314500  0.86435800  1
  O  1773  1  0.99368700  0.69103200  0.22233900  1
  O  1785  1  0.01902500  0.19431600  0.69770700  1
  O  1797  1  0.99985800  0.84420200  0.69872700  1
  O  1809  1  0.01798900  0.85319300  0.37436400  1
  O  1821  1  0.99509600  0.21536700  0.37262200  1
  O  1833  1  0.19763700  0.36862600  0.03726100  1
  O  1845  1  0.84005300  0.36738000  0.06389500  1
  O  1857  1  0.85677000  0.69281800  0.04239100  1
  O  1869  1  0.21416400  0.69436400  0.06217300  1
  O  1881  1  0.36749700  0.01989400  0.86227700  1
  O  1893  1  0.36893100  0.99442600  0.21771300  1
  O  1905  1  0.69331200  0.01670200  0.20383800  1
  O  1917  1  0.69101600  0.99373700  0.84545000  1
  O  1929  1  0.69441700  0.51752200  0.86915300  1
  O  1941  1  0.34407100  0.49854800  0.87032400  1
  O  1953  1  0.35399300  0.52516200  0.19359200  1
  O  1965  1  0.71633800  0.49496300  0.19529100  1
  O  1977  1  0.87026400  0.69731200  0.53103200  1
  O  1989  1  0.86716800  0.33985400  0.50117600  1
  O  2001  1  0.19024000  0.35957800  0.52643800  1
  O  2013  1  0.19525000  0.71762500  0.50600600  1
  O  2025  1  0.56050700  0.86701200  0.72161800  1
  O  2037  1  0.49372600  0.86863800  0.35129000  1
  O  2049  1  0.51909300  0.19287500  0.36423600  1
  O  2061  1  0.49909000  0.19276500  0.72118400  1
  O  2073  1  0.51737600  0.69427500  0.19883600  1
  O  2085  1  0.49800200  0.34450100  0.19758100  1
  O  2097  1  0.52552600  0.35409200  0.87467300  1
  O  2109  1  0.49515500  0.71633100  0.87276100  1
  O  2121  1  0.69736700  0.87021200  0.53768200  1
  O  2133  1  0.34010300  0.86715000  0.56675200  1
  O  2145  1  0.35947700  0.19038400  0.54177800  1
  O  2157  1  0.71764800  0.19517000  0.56242800  1
  O  2169  1  0.86726900  0.56076300  0.34705500  1
  O  2181  1  0.86863600  0.49367700  0.71688700  1
  O  2193  1  0.19291700  0.51898300  0.70381300  1
  O  2205  1  0.19307800  0.49937200  0.34671700  1
