# generated using pymatgen
data_Cd3H34C60(N5O6)2
_symmetry_space_group_name_H-M   'P 1'
_cell_length_a   13.60720000
_cell_length_b   17.20420000
_cell_length_c   52.00073000
_cell_angle_alpha   90.00000000
_cell_angle_beta   90.00000000
_cell_angle_gamma   90.00000000
_symmetry_Int_Tables_number   1
_chemical_formula_structural   Cd3H34C60(N5O6)2
_chemical_formula_sum   'Cd24 H272 C480 N80 O96'
_cell_volume   12173.42238620
_cell_formula_units_Z   8
loop_
 _symmetry_equiv_pos_site_id
 _symmetry_equiv_pos_as_xyz
  1  'x, y, z'
loop_
 _atom_site_type_symbol
 _atom_site_label
 _atom_site_symmetry_multiplicity
 _atom_site_fract_x
 _atom_site_fract_y
 _atom_site_fract_z
 _atom_site_occupancy
  Cd  Cd1  1  0.67739000  0.48307000  0.16990000  1.0
  Cd  Cd2  1  0.90234000  0.97678000  0.16713000  1.0
  Cd  Cd3  1  0.64562000  0.00013000  0.99123000  1.0
  Cd  Cd4  1  0.32261000  0.01693000  0.66990000  1.0
  Cd  Cd5  1  0.09766000  0.52322000  0.66713000  1.0
  Cd  Cd6  1  0.35439000  0.49987000  0.49123000  1.0
  Cd  Cd7  1  0.17739000  0.51693000  0.33010000  1.0
  Cd  Cd8  1  0.40234000  0.02322000  0.33287000  1.0
  Cd  Cd9  1  0.14561000  0.99987000  0.50877000  1.0
  Cd  Cd10  1  0.82261000  0.98307000  0.83010000  1.0
  Cd  Cd11  1  0.59766000  0.47678000  0.83286000  1.0
  Cd  Cd12  1  0.85438000  0.50013000  0.00877000  1.0
  Cd  Cd13  1  0.32261000  0.51693000  0.83010000  1.0
  Cd  Cd14  1  0.09766000  0.02322000  0.83286000  1.0
  Cd  Cd15  1  0.35438000  0.99987000  0.00877000  1.0
  Cd  Cd16  1  0.67739000  0.98307000  0.33010000  1.0
  Cd  Cd17  1  0.90234000  0.47678000  0.33287000  1.0
  Cd  Cd18  1  0.64561000  0.50013000  0.50877000  1.0
  Cd  Cd19  1  0.82261000  0.48307000  0.66990000  1.0
  Cd  Cd20  1  0.59766000  0.97678000  0.66713000  1.0
  Cd  Cd21  1  0.85438000  0.00013000  0.49123000  1.0
  Cd  Cd22  1  0.17739000  0.01693000  0.16990000  1.0
  Cd  Cd23  1  0.40234000  0.52322000  0.16713000  1.0
  Cd  Cd24  1  0.14562000  0.49987000  0.99123000  1.0
  H  H1  1  0.90856000  0.40642000  0.14607000  1.0
  H  H2  1  0.67505000  0.05820000  0.13270000  1.0
  H  H3  1  0.87506000  0.10021000  0.21540000  1.0
  H  H4  1  0.88535000  0.24371000  0.22391000  1.0
  H  H5  1  0.90552000  0.33389000  0.18657000  1.0
  H  H6  1  0.90718000  0.52454000  0.12655000  1.0
  H  H7  1  0.89354000  0.64637000  0.10091000  1.0
  H  H8  1  0.88388000  0.63656000  0.05243000  1.0
  H  H9  1  0.91768000  0.39739000  0.05497000  1.0
  H  H10  1  0.92744000  0.16802000  0.06601000  1.0
  H  H11  1  0.92514000  0.02204000  0.06387000  1.0
  H  H12  1  0.91618000  0.94664000  0.10539000  1.0
  H  H13  1  0.63968000  0.34107000  0.21346000  1.0
  H  H14  1  0.63688000  0.19422000  0.21622000  1.0
  H  H15  1  0.65584000  0.11740000  0.17586000  1.0
  H  H16  1  0.66462000  0.94890000  0.10967000  1.0
  H  H17  1  0.65685000  0.83498000  0.08013000  1.0
  H  H18  1  0.65591000  0.85848000  0.03220000  1.0
  H  H19  1  0.67411000  0.09676000  0.04270000  1.0
  H  H20  1  0.68303000  0.32397000  0.06254000  1.0
  H  H21  1  0.67611000  0.46973000  0.06584000  1.0
  H  H22  1  0.66881000  0.53024000  0.10990000  1.0
  H  H23  1  0.50996000  0.93699000  0.15478000  1.0
  H  H24  1  0.37729000  0.83762000  0.15558000  1.0
  H  H25  1  0.42023000  0.69705000  0.15487000  1.0
  H  H26  1  0.72781000  0.75631000  0.15642000  1.0
  H  H27  1  0.36530000  0.53878000  0.25500000  1.0
  H  H28  1  0.56700000  0.51068000  0.31807000  1.0
  H  H29  1  0.70529000  0.49929000  0.28752000  1.0
  H  H30  1  0.67301000  0.50449000  0.23994000  1.0
  H  H31  1  0.02103000  0.95142000  0.98384000  1.0
  H  H32  1  0.15859000  0.85595000  0.98599000  1.0
  H  H33  1  0.12263000  0.71357000  0.98908000  1.0
  H  H34  1  0.81306000  0.76458000  0.99057000  1.0
  H  H35  1  0.09144000  0.09358000  0.64606000  1.0
  H  H36  1  0.32495000  0.44180000  0.63270000  1.0
  H  H37  1  0.12494000  0.39979000  0.71540000  1.0
  H  H38  1  0.11464000  0.25629000  0.72391000  1.0
  H  H39  1  0.09448000  0.16611000  0.68656000  1.0
  H  H40  1  0.09281000  0.97546000  0.62655000  1.0
  H  H41  1  0.10645000  0.85363000  0.60091000  1.0
  H  H42  1  0.11611000  0.86345000  0.55243000  1.0
  H  H43  1  0.08232000  0.10259000  0.55497000  1.0
  H  H44  1  0.07256000  0.33198000  0.56601000  1.0
  H  H45  1  0.07485000  0.47797000  0.56387000  1.0
  H  H46  1  0.08382000  0.55336000  0.60539000  1.0
  H  H47  1  0.36032000  0.15894000  0.71346000  1.0
  H  H48  1  0.36311000  0.30578000  0.71622000  1.0
  H  H49  1  0.34415000  0.38260000  0.67586000  1.0
  H  H50  1  0.33538000  0.55110000  0.60967000  1.0
  H  H51  1  0.34315000  0.66502000  0.58013000  1.0
  H  H52  1  0.34409000  0.64151000  0.53220000  1.0
  H  H53  1  0.32589000  0.40327000  0.54270000  1.0
  H  H54  1  0.31697000  0.17602000  0.56254000  1.0
  H  H55  1  0.32389000  0.03026000  0.56584000  1.0
  H  H56  1  0.33118000  0.96975000  0.60990000  1.0
  H  H57  1  0.49003000  0.56301000  0.65478000  1.0
  H  H58  1  0.62270000  0.66238000  0.65558000  1.0
  H  H59  1  0.57976000  0.80294000  0.65487000  1.0
  H  H60  1  0.27220000  0.74369000  0.65642000  1.0
  H  H61  1  0.63470000  0.96122000  0.75500000  1.0
  H  H62  1  0.43300000  0.98932000  0.81807000  1.0
  H  H63  1  0.29470000  0.00071000  0.78752000  1.0
  H  H64  1  0.32699000  0.99551000  0.73994000  1.0
  H  H65  1  0.97897000  0.54859000  0.48384000  1.0
  H  H66  1  0.84141000  0.64405000  0.48599000  1.0
  H  H67  1  0.87739000  0.78641000  0.48908000  1.0
  H  H68  1  0.18692000  0.73541000  0.49057000  1.0
  H  H69  1  0.40856000  0.59358000  0.35393000  1.0
  H  H70  1  0.17505000  0.94180000  0.36730000  1.0
  H  H71  1  0.37506000  0.89979000  0.28460000  1.0
  H  H72  1  0.38535000  0.75629000  0.27609000  1.0
  H  H73  1  0.40552000  0.66611000  0.31343000  1.0
  H  H74  1  0.40719000  0.47546000  0.37345000  1.0
  H  H75  1  0.39354000  0.35363000  0.39909000  1.0
  H  H76  1  0.38389000  0.36345000  0.44756000  1.0
  H  H77  1  0.41768000  0.60259000  0.44503000  1.0
  H  H78  1  0.42744000  0.83198000  0.43399000  1.0
  H  H79  1  0.42514000  0.97797000  0.43613000  1.0
  H  H80  1  0.41618000  0.05336000  0.39461000  1.0
  H  H81  1  0.13968000  0.65894000  0.28654000  1.0
  H  H82  1  0.13688000  0.80578000  0.28378000  1.0
  H  H83  1  0.15585000  0.88260000  0.32414000  1.0
  H  H84  1  0.16462000  0.05110000  0.39033000  1.0
  H  H85  1  0.15685000  0.16502000  0.41987000  1.0
  H  H86  1  0.15591000  0.14151000  0.46780000  1.0
  H  H87  1  0.17411000  0.90327000  0.45729000  1.0
  H  H88  1  0.18303000  0.67602000  0.43746000  1.0
  H  H89  1  0.17611000  0.53026000  0.43416000  1.0
  H  H90  1  0.16881000  0.46975000  0.39010000  1.0
  H  H91  1  0.00997000  0.06301000  0.34522000  1.0
  H  H92  1  0.87729000  0.16238000  0.34442000  1.0
  H  H93  1  0.92024000  0.30294000  0.34513000  1.0
  H  H94  1  0.22780000  0.24369000  0.34358000  1.0
  H  H95  1  0.86530000  0.46122000  0.24500000  1.0
  H  H96  1  0.06700000  0.48932000  0.18193000  1.0
  H  H97  1  0.20530000  0.50071000  0.21248000  1.0
  H  H98  1  0.17301000  0.49551000  0.26006000  1.0
  H  H99  1  0.52103000  0.04859000  0.51615000  1.0
  H  H100  1  0.65859000  0.14405000  0.51401000  1.0
  H  H101  1  0.62261000  0.28641000  0.51092000  1.0
  H  H102  1  0.31308000  0.23541000  0.50943000  1.0
  H  H103  1  0.59144000  0.90642000  0.85393000  1.0
  H  H104  1  0.82495000  0.55820000  0.86730000  1.0
  H  H105  1  0.62493000  0.60021000  0.78460000  1.0
  H  H106  1  0.61464000  0.74371000  0.77609000  1.0
  H  H107  1  0.59447000  0.83389000  0.81343000  1.0
  H  H108  1  0.59281000  0.02454000  0.87344000  1.0
  H  H109  1  0.60645000  0.14637000  0.89909000  1.0
  H  H110  1  0.61611000  0.13656000  0.94756000  1.0
  H  H111  1  0.58232000  0.89739000  0.94503000  1.0
  H  H112  1  0.57255000  0.66802000  0.93399000  1.0
  H  H113  1  0.57485000  0.52204000  0.93612000  1.0
  H  H114  1  0.58382000  0.44664000  0.89461000  1.0
  H  H115  1  0.86031000  0.84107000  0.78653000  1.0
  H  H116  1  0.86311000  0.69422000  0.78378000  1.0
  H  H117  1  0.84415000  0.61740000  0.82413000  1.0
  H  H118  1  0.83538000  0.44890000  0.89032000  1.0
  H  H119  1  0.84314000  0.33498000  0.91986000  1.0
  H  H120  1  0.84409000  0.35848000  0.96780000  1.0
  H  H121  1  0.82588000  0.59676000  0.95730000  1.0
  H  H122  1  0.81696000  0.82397000  0.93746000  1.0
  H  H123  1  0.82389000  0.96973000  0.93415000  1.0
  H  H124  1  0.83118000  0.03024000  0.89009000  1.0
  H  H125  1  0.99003000  0.43699000  0.84522000  1.0
  H  H126  1  0.12271000  0.33762000  0.84442000  1.0
  H  H127  1  0.07977000  0.19705000  0.84513000  1.0
  H  H128  1  0.77218000  0.25631000  0.84357000  1.0
  H  H129  1  0.13470000  0.03878000  0.74500000  1.0
  H  H130  1  0.93300000  0.01068000  0.68193000  1.0
  H  H131  1  0.79470000  0.99929000  0.71248000  1.0
  H  H132  1  0.82699000  0.00449000  0.76006000  1.0
  H  H133  1  0.47897000  0.45142000  0.01615000  1.0
  H  H134  1  0.34141000  0.35595000  0.01401000  1.0
  H  H135  1  0.37737000  0.21357000  0.01092000  1.0
  H  H136  1  0.68694000  0.26458000  0.00943000  1.0
  H  H137  1  0.09144000  0.59358000  0.85393000  1.0
  H  H138  1  0.32495000  0.94180000  0.86730000  1.0
  H  H139  1  0.12494000  0.89979000  0.78460000  1.0
  H  H140  1  0.11464000  0.75629000  0.77609000  1.0
  H  H141  1  0.09448000  0.66611000  0.81343000  1.0
  H  H142  1  0.09281000  0.47546000  0.87344000  1.0
  H  H143  1  0.10645000  0.35363000  0.89909000  1.0
  H  H144  1  0.11611000  0.36344000  0.94756000  1.0
  H  H145  1  0.08232000  0.60261000  0.94503000  1.0
  H  H146  1  0.07256000  0.83198000  0.93399000  1.0
  H  H147  1  0.07485000  0.97796000  0.93612000  1.0
  H  H148  1  0.08382000  0.05336000  0.89461000  1.0
  H  H149  1  0.36032000  0.65893000  0.78653000  1.0
  H  H150  1  0.36311000  0.80578000  0.78378000  1.0
  H  H151  1  0.34415000  0.88260000  0.82413000  1.0
  H  H152  1  0.33538000  0.05110000  0.89032000  1.0
  H  H153  1  0.34315000  0.16502000  0.91986000  1.0
  H  H154  1  0.34409000  0.14152000  0.96780000  1.0
  H  H155  1  0.32588000  0.90324000  0.95730000  1.0
  H  H156  1  0.31696000  0.67603000  0.93746000  1.0
  H  H157  1  0.32389000  0.53027000  0.93415000  1.0
  H  H158  1  0.33118000  0.46976000  0.89009000  1.0
  H  H159  1  0.49003000  0.06301000  0.84522000  1.0
  H  H160  1  0.62270000  0.16238000  0.84442000  1.0
  H  H161  1  0.57977000  0.30295000  0.84513000  1.0
  H  H162  1  0.27218000  0.24369000  0.84357000  1.0
  H  H163  1  0.63470000  0.46122000  0.74500000  1.0
  H  H164  1  0.43300000  0.48932000  0.68193000  1.0
  H  H165  1  0.29470000  0.50071000  0.71248000  1.0
  H  H166  1  0.32699000  0.49551000  0.76006000  1.0
  H  H167  1  0.97897000  0.04858000  0.01615000  1.0
  H  H168  1  0.84140000  0.14405000  0.01401000  1.0
  H  H169  1  0.87737000  0.28643000  0.01092000  1.0
  H  H170  1  0.18694000  0.23542000  0.00943000  1.0
  H  H171  1  0.90856000  0.90642000  0.35393000  1.0
  H  H172  1  0.67505000  0.55820000  0.36730000  1.0
  H  H173  1  0.87506000  0.60021000  0.28460000  1.0
  H  H174  1  0.88535000  0.74371000  0.27609000  1.0
  H  H175  1  0.90552000  0.83389000  0.31343000  1.0
  H  H176  1  0.90718000  0.02454000  0.37345000  1.0
  H  H177  1  0.89354000  0.14637000  0.39909000  1.0
  H  H178  1  0.88388000  0.13655000  0.44756000  1.0
  H  H179  1  0.91768000  0.89741000  0.44503000  1.0
  H  H180  1  0.92744000  0.66802000  0.43399000  1.0
  H  H181  1  0.92514000  0.52203000  0.43613000  1.0
  H  H182  1  0.91618000  0.44664000  0.39461000  1.0
  H  H183  1  0.63968000  0.84106000  0.28654000  1.0
  H  H184  1  0.63688000  0.69422000  0.28378000  1.0
  H  H185  1  0.65584000  0.61740000  0.32414000  1.0
  H  H186  1  0.66462000  0.44890000  0.39033000  1.0
  H  H187  1  0.65685000  0.33498000  0.41987000  1.0
  H  H188  1  0.65591000  0.35849000  0.46780000  1.0
  H  H189  1  0.67411000  0.59673000  0.45729000  1.0
  H  H190  1  0.68303000  0.82398000  0.43746000  1.0
  H  H191  1  0.67611000  0.96974000  0.43416000  1.0
  H  H192  1  0.66881000  0.03025000  0.39010000  1.0
  H  H193  1  0.50996000  0.43699000  0.34522000  1.0
  H  H194  1  0.37729000  0.33762000  0.34442000  1.0
  H  H195  1  0.42024000  0.19706000  0.34513000  1.0
  H  H196  1  0.72780000  0.25631000  0.34358000  1.0
  H  H197  1  0.36530000  0.03878000  0.24500000  1.0
  H  H198  1  0.56700000  0.01068000  0.18193000  1.0
  H  H199  1  0.70529000  0.99929000  0.21248000  1.0
  H  H200  1  0.67301000  0.00449000  0.26006000  1.0
  H  H201  1  0.02103000  0.45141000  0.51615000  1.0
  H  H202  1  0.15859000  0.35595000  0.51401000  1.0
  H  H203  1  0.12261000  0.21359000  0.51092000  1.0
  H  H204  1  0.81308000  0.26459000  0.50943000  1.0
  H  H205  1  0.59144000  0.40642000  0.64606000  1.0
  H  H206  1  0.82495000  0.05820000  0.63270000  1.0
  H  H207  1  0.62493000  0.10021000  0.71540000  1.0
  H  H208  1  0.61464000  0.24371000  0.72391000  1.0
  H  H209  1  0.59447000  0.33389000  0.68656000  1.0
  H  H210  1  0.59281000  0.52454000  0.62655000  1.0
  H  H211  1  0.60645000  0.64637000  0.60091000  1.0
  H  H212  1  0.61611000  0.63655000  0.55243000  1.0
  H  H213  1  0.58232000  0.39741000  0.55497000  1.0
  H  H214  1  0.57255000  0.16802000  0.56601000  1.0
  H  H215  1  0.57485000  0.02203000  0.56387000  1.0
  H  H216  1  0.58382000  0.94664000  0.60539000  1.0
  H  H217  1  0.86031000  0.34106000  0.71346000  1.0
  H  H218  1  0.86311000  0.19422000  0.71622000  1.0
  H  H219  1  0.84415000  0.11740000  0.67586000  1.0
  H  H220  1  0.83538000  0.94890000  0.60967000  1.0
  H  H221  1  0.84314000  0.83498000  0.58013000  1.0
  H  H222  1  0.84409000  0.85849000  0.53220000  1.0
  H  H223  1  0.82588000  0.09673000  0.54270000  1.0
  H  H224  1  0.81696000  0.32398000  0.56254000  1.0
  H  H225  1  0.82389000  0.46974000  0.56584000  1.0
  H  H226  1  0.83118000  0.53025000  0.60990000  1.0
  H  H227  1  0.99003000  0.93699000  0.65478000  1.0
  H  H228  1  0.12271000  0.83762000  0.65558000  1.0
  H  H229  1  0.07976000  0.69706000  0.65487000  1.0
  H  H230  1  0.77219000  0.75631000  0.65642000  1.0
  H  H231  1  0.13470000  0.53878000  0.75500000  1.0
  H  H232  1  0.93300000  0.51068000  0.81807000  1.0
  H  H233  1  0.79470000  0.49929000  0.78752000  1.0
  H  H234  1  0.82699000  0.50449000  0.73994000  1.0
  H  H235  1  0.47897000  0.95141000  0.48384000  1.0
  H  H236  1  0.34141000  0.85595000  0.48599000  1.0
  H  H237  1  0.37739000  0.71359000  0.48908000  1.0
  H  H238  1  0.68691000  0.76459000  0.49057000  1.0
  H  H239  1  0.40856000  0.09358000  0.14607000  1.0
  H  H240  1  0.17505000  0.44180000  0.13270000  1.0
  H  H241  1  0.37506000  0.39979000  0.21540000  1.0
  H  H242  1  0.38535000  0.25629000  0.22391000  1.0
  H  H243  1  0.40552000  0.16611000  0.18657000  1.0
  H  H244  1  0.40719000  0.97546000  0.12655000  1.0
  H  H245  1  0.39354000  0.85363000  0.10091000  1.0
  H  H246  1  0.38388000  0.86344000  0.05243000  1.0
  H  H247  1  0.41768000  0.10261000  0.05497000  1.0
  H  H248  1  0.42744000  0.33198000  0.06601000  1.0
  H  H249  1  0.42514000  0.47796000  0.06387000  1.0
  H  H250  1  0.41618000  0.55336000  0.10539000  1.0
  H  H251  1  0.13968000  0.15893000  0.21346000  1.0
  H  H252  1  0.13688000  0.30578000  0.21622000  1.0
  H  H253  1  0.15585000  0.38260000  0.17586000  1.0
  H  H254  1  0.16462000  0.55110000  0.10967000  1.0
  H  H255  1  0.15685000  0.66502000  0.08013000  1.0
  H  H256  1  0.15591000  0.64152000  0.03220000  1.0
  H  H257  1  0.17411000  0.40324000  0.04270000  1.0
  H  H258  1  0.18303000  0.17603000  0.06254000  1.0
  H  H259  1  0.17611000  0.03027000  0.06584000  1.0
  H  H260  1  0.16882000  0.96976000  0.10990000  1.0
  H  H261  1  0.00996000  0.56301000  0.15478000  1.0
  H  H262  1  0.87729000  0.66238000  0.15558000  1.0
  H  H263  1  0.92023000  0.80295000  0.15487000  1.0
  H  H264  1  0.22781000  0.74369000  0.15642000  1.0
  H  H265  1  0.86530000  0.96122000  0.25500000  1.0
  H  H266  1  0.06700000  0.98932000  0.31807000  1.0
  H  H267  1  0.20530000  0.00071000  0.28752000  1.0
  H  H268  1  0.17301000  0.99551000  0.23994000  1.0
  H  H269  1  0.52103000  0.54858000  0.98384000  1.0
  H  H270  1  0.65859000  0.64405000  0.98599000  1.0
  H  H271  1  0.62262000  0.78643000  0.98908000  1.0
  H  H272  1  0.31306000  0.73542000  0.99057000  1.0
  C  C1  1  0.88447000  0.14145000  0.19972000  1.0
  C  C2  1  0.88989000  0.22160000  0.20433000  1.0
  C  C3  1  0.90093000  0.27144000  0.18365000  1.0
  C  C4  1  0.90632000  0.24084000  0.15852000  1.0
  C  C5  1  0.91433000  0.28543000  0.13557000  1.0
  C  C6  1  0.92028000  0.37574000  0.10536000  1.0
  C  C7  1  0.91577000  0.45095000  0.09271000  1.0
  C  C8  1  0.90785000  0.52219000  0.10564000  1.0
  C  C9  1  0.89839000  0.59030000  0.09131000  1.0
  C  C10  1  0.89406000  0.58562000  0.06457000  1.0
  C  C11  1  0.91274000  0.45160000  0.06569000  1.0
  C  C12  1  0.91911000  0.25206000  0.11094000  1.0
  C  C13  1  0.91756000  0.16961000  0.10753000  1.0
  C  C14  1  0.92230000  0.13274000  0.08336000  1.0
  C  C15  1  0.92097000  0.05232000  0.08222000  1.0
  C  C16  1  0.91539000  0.00995000  0.10523000  1.0
  C  C17  1  0.90997000  0.12281000  0.12997000  1.0
  C  C18  1  0.90225000  0.15830000  0.15547000  1.0
  C  C19  1  0.64649000  0.30493000  0.19635000  1.0
  C  C20  1  0.64522000  0.22333000  0.19775000  1.0
  C  C21  1  0.65493000  0.18061000  0.17534000  1.0
  C  C22  1  0.66378000  0.21961000  0.15160000  1.0
  C  C23  1  0.67093000  0.18285000  0.12715000  1.0
  C  C24  1  0.67456000  0.10346000  0.09367000  1.0
  C  C25  1  0.67153000  0.03252000  0.07847000  1.0
  C  C26  1  0.66607000  0.95748000  0.08896000  1.0
  C  C27  1  0.66127000  0.89371000  0.07247000  1.0
  C  C28  1  0.66053000  0.90600000  0.04597000  1.0
  C  C29  1  0.67081000  0.03953000  0.05157000  1.0
  C  C30  1  0.67511000  0.22451000  0.10393000  1.0
  C  C31  1  0.67496000  0.30782000  0.10373000  1.0
  C  C32  1  0.67851000  0.35296000  0.08111000  1.0
  C  C33  1  0.67523000  0.43322000  0.08296000  1.0
  C  C34  1  0.67104000  0.46741000  0.10745000  1.0
  C  C35  1  0.67015000  0.34672000  0.12784000  1.0
  C  C36  1  0.66363000  0.30277000  0.15180000  1.0
  C  C37  1  0.62755000  0.85310000  0.15476000  1.0
  C  C38  1  0.52849000  0.87559000  0.15459000  1.0
  C  C39  1  0.45412000  0.81957000  0.15488000  1.0
  C  C40  1  0.47826000  0.74056000  0.15474000  1.0
  C  C41  1  0.57747000  0.71751000  0.15507000  1.0
  C  C42  1  0.65130000  0.77396000  0.15543000  1.0
  C  C43  1  0.70879000  0.91166000  0.15546000  1.0
  C  C44  1  0.60597000  0.63357000  0.15591000  1.0
  C  C45  1  0.51745000  0.52343000  0.24479000  1.0
  C  C46  1  0.43954000  0.53039000  0.26216000  1.0
  C  C47  1  0.45654000  0.52446000  0.28863000  1.0
  C  C48  1  0.55293000  0.51496000  0.29758000  1.0
  C  C49  1  0.63110000  0.50859000  0.28026000  1.0
  C  C50  1  0.61361000  0.51152000  0.25382000  1.0
  C  C51  1  0.49554000  0.52320000  0.21665000  1.0
  C  C52  1  0.37116000  0.52489000  0.30678000  1.0
  C  C53  1  0.90780000  0.86375000  0.98585000  1.0
  C  C54  1  0.00580000  0.88940000  0.98499000  1.0
  C  C55  1  0.08279000  0.83559000  0.98625000  1.0
  C  C56  1  0.06308000  0.75600000  0.98857000  1.0
  C  C57  1  0.96534000  0.73037000  0.99066000  1.0
  C  C58  1  0.88860000  0.78442000  0.98905000  1.0
  C  C59  1  0.82315000  0.91974000  0.98439000  1.0
  C  C60  1  0.94054000  0.64690000  0.99575000  1.0
  C  C61  1  0.11553000  0.35855000  0.69971000  1.0
  C  C62  1  0.11011000  0.27840000  0.70433000  1.0
  C  C63  1  0.09906000  0.22856000  0.68365000  1.0
  C  C64  1  0.09367000  0.25917000  0.65852000  1.0
  C  C65  1  0.08567000  0.21458000  0.63557000  1.0
  C  C66  1  0.07972000  0.12426000  0.60536000  1.0
  C  C67  1  0.08422000  0.04905000  0.59271000  1.0
  C  C68  1  0.09215000  0.97782000  0.60564000  1.0
  C  C69  1  0.10160000  0.90970000  0.59131000  1.0
  C  C70  1  0.10594000  0.91439000  0.56457000  1.0
  C  C71  1  0.08725000  0.04839000  0.56569000  1.0
  C  C72  1  0.08088000  0.24794000  0.61094000  1.0
  C  C73  1  0.08243000  0.33038000  0.60753000  1.0
  C  C74  1  0.07769000  0.36726000  0.58336000  1.0
  C  C75  1  0.07903000  0.44768000  0.58221000  1.0
  C  C76  1  0.08460000  0.49005000  0.60523000  1.0
  C  C77  1  0.09002000  0.37719000  0.62996000  1.0
  C  C78  1  0.09774000  0.34170000  0.65547000  1.0
  C  C79  1  0.35351000  0.19507000  0.69635000  1.0
  C  C80  1  0.35478000  0.27667000  0.69775000  1.0
  C  C81  1  0.34507000  0.31938000  0.67534000  1.0
  C  C82  1  0.33622000  0.28039000  0.65160000  1.0
  C  C83  1  0.32907000  0.31714000  0.62715000  1.0
  C  C84  1  0.32543000  0.39654000  0.59367000  1.0
  C  C85  1  0.32847000  0.46748000  0.57848000  1.0
  C  C86  1  0.33393000  0.54252000  0.58896000  1.0
  C  C87  1  0.33872000  0.60628000  0.57247000  1.0
  C  C88  1  0.33946000  0.59400000  0.54597000  1.0
  C  C89  1  0.32919000  0.46047000  0.55157000  1.0
  C  C90  1  0.32488000  0.27549000  0.60393000  1.0
  C  C91  1  0.32504000  0.19219000  0.60373000  1.0
  C  C92  1  0.32149000  0.14705000  0.58111000  1.0
  C  C93  1  0.32476000  0.06678000  0.58296000  1.0
  C  C94  1  0.32896000  0.03259000  0.60744000  1.0
  C  C95  1  0.32985000  0.15328000  0.62784000  1.0
  C  C96  1  0.33637000  0.19723000  0.65179000  1.0
  C  C97  1  0.37245000  0.64689000  0.65476000  1.0
  C  C98  1  0.47151000  0.62441000  0.65459000  1.0
  C  C99  1  0.54587000  0.68043000  0.65488000  1.0
  C  C100  1  0.52173000  0.75944000  0.65474000  1.0
  C  C101  1  0.42253000  0.78249000  0.65506000  1.0
  C  C102  1  0.34871000  0.72604000  0.65543000  1.0
  C  C103  1  0.29120000  0.58834000  0.65546000  1.0
  C  C104  1  0.39403000  0.86642000  0.65591000  1.0
  C  C105  1  0.48255000  0.97657000  0.74479000  1.0
  C  C106  1  0.56046000  0.96961000  0.76216000  1.0
  C  C107  1  0.54345000  0.97554000  0.78863000  1.0
  C  C108  1  0.44707000  0.98504000  0.79757000  1.0
  C  C109  1  0.36890000  0.99141000  0.78026000  1.0
  C  C110  1  0.38639000  0.98848000  0.75381000  1.0
  C  C111  1  0.50446000  0.97679000  0.71665000  1.0
  C  C112  1  0.62884000  0.97511000  0.80678000  1.0
  C  C113  1  0.09221000  0.63625000  0.48585000  1.0
  C  C114  1  0.99421000  0.61061000  0.48499000  1.0
  C  C115  1  0.91722000  0.66441000  0.48625000  1.0
  C  C116  1  0.93692000  0.74400000  0.48858000  1.0
  C  C117  1  0.03466000  0.76963000  0.49066000  1.0
  C  C118  1  0.11137000  0.71557000  0.48905000  1.0
  C  C119  1  0.17684000  0.58026000  0.48439000  1.0
  C  C120  1  0.05945000  0.85310000  0.49575000  1.0
  C  C121  1  0.38447000  0.85855000  0.30028000  1.0
  C  C122  1  0.38989000  0.77840000  0.29567000  1.0
  C  C123  1  0.40093000  0.72856000  0.31635000  1.0
  C  C124  1  0.40632000  0.75917000  0.34148000  1.0
  C  C125  1  0.41433000  0.71458000  0.36443000  1.0
  C  C126  1  0.42028000  0.62426000  0.39463000  1.0
  C  C127  1  0.41577000  0.54905000  0.40729000  1.0
  C  C128  1  0.40785000  0.47782000  0.39436000  1.0
  C  C129  1  0.39839000  0.40970000  0.40869000  1.0
  C  C130  1  0.39406000  0.41439000  0.43542000  1.0
  C  C131  1  0.41274000  0.54839000  0.43431000  1.0
  C  C132  1  0.41912000  0.74794000  0.38906000  1.0
  C  C133  1  0.41756000  0.83038000  0.39247000  1.0
  C  C134  1  0.42230000  0.86726000  0.41664000  1.0
  C  C135  1  0.42097000  0.94768000  0.41778000  1.0
  C  C136  1  0.41540000  0.99005000  0.39477000  1.0
  C  C137  1  0.40997000  0.87719000  0.37003000  1.0
  C  C138  1  0.40225000  0.84170000  0.34453000  1.0
  C  C139  1  0.14649000  0.69507000  0.30365000  1.0
  C  C140  1  0.14522000  0.77667000  0.30225000  1.0
  C  C141  1  0.15493000  0.81938000  0.32466000  1.0
  C  C142  1  0.16378000  0.78039000  0.34839000  1.0
  C  C143  1  0.17093000  0.81714000  0.37285000  1.0
  C  C144  1  0.17456000  0.89654000  0.40633000  1.0
  C  C145  1  0.17153000  0.96748000  0.42152000  1.0
  C  C146  1  0.16607000  0.04252000  0.41104000  1.0
  C  C147  1  0.16128000  0.10628000  0.42753000  1.0
  C  C148  1  0.16053000  0.09400000  0.45403000  1.0
  C  C149  1  0.17081000  0.96047000  0.44843000  1.0
  C  C150  1  0.17511000  0.77549000  0.39607000  1.0
  C  C151  1  0.17496000  0.69219000  0.39627000  1.0
  C  C152  1  0.17851000  0.64705000  0.41888000  1.0
  C  C153  1  0.17524000  0.56678000  0.41703000  1.0
  C  C154  1  0.17104000  0.53259000  0.39255000  1.0
  C  C155  1  0.17015000  0.65328000  0.37216000  1.0
  C  C156  1  0.16363000  0.69723000  0.34820000  1.0
  C  C157  1  0.12755000  0.14689000  0.34524000  1.0
  C  C158  1  0.02849000  0.12441000  0.34540000  1.0
  C  C159  1  0.95412000  0.18043000  0.34512000  1.0
  C  C160  1  0.97826000  0.25944000  0.34526000  1.0
  C  C161  1  0.07747000  0.28249000  0.34493000  1.0
  C  C162  1  0.15129000  0.22604000  0.34457000  1.0
  C  C163  1  0.20880000  0.08834000  0.34454000  1.0
  C  C164  1  0.10597000  0.36642000  0.34409000  1.0
  C  C165  1  0.01745000  0.47657000  0.25520000  1.0
  C  C166  1  0.93953000  0.46961000  0.23784000  1.0
  C  C167  1  0.95654000  0.47554000  0.21137000  1.0
  C  C168  1  0.05293000  0.48504000  0.20242000  1.0
  C  C169  1  0.13110000  0.49141000  0.21974000  1.0
  C  C170  1  0.11361000  0.48848000  0.24618000  1.0
  C  C171  1  0.99553000  0.47679000  0.28335000  1.0
  C  C172  1  0.87115000  0.47511000  0.19322000  1.0
  C  C173  1  0.40779000  0.13625000  0.51415000  1.0
  C  C174  1  0.50579000  0.11061000  0.51501000  1.0
  C  C175  1  0.58278000  0.16441000  0.51375000  1.0
  C  C176  1  0.56307000  0.24400000  0.51142000  1.0
  C  C177  1  0.46534000  0.26963000  0.50934000  1.0
  C  C178  1  0.38863000  0.21557000  0.51094000  1.0
  C  C179  1  0.32316000  0.08026000  0.51561000  1.0
  C  C180  1  0.44055000  0.35310000  0.50425000  1.0
  C  C181  1  0.61553000  0.64145000  0.80028000  1.0
  C  C182  1  0.61010000  0.72160000  0.79567000  1.0
  C  C183  1  0.59906000  0.77144000  0.81635000  1.0
  C  C184  1  0.59367000  0.74084000  0.84148000  1.0
  C  C185  1  0.58567000  0.78543000  0.86443000  1.0
  C  C186  1  0.57972000  0.87574000  0.89463000  1.0
  C  C187  1  0.58422000  0.95095000  0.90729000  1.0
  C  C188  1  0.59215000  0.02219000  0.89435000  1.0
  C  C189  1  0.60160000  0.09030000  0.90869000  1.0
  C  C190  1  0.60594000  0.08562000  0.93542000  1.0
  C  C191  1  0.58725000  0.95160000  0.93431000  1.0
  C  C192  1  0.58088000  0.75206000  0.88906000  1.0
  C  C193  1  0.58243000  0.66961000  0.89247000  1.0
  C  C194  1  0.57769000  0.63274000  0.91664000  1.0
  C  C195  1  0.57902000  0.55232000  0.91778000  1.0
  C  C196  1  0.58460000  0.50995000  0.89477000  1.0
  C  C197  1  0.59002000  0.62281000  0.87003000  1.0
  C  C198  1  0.59774000  0.65830000  0.84453000  1.0
  C  C199  1  0.85351000  0.80493000  0.80364000  1.0
  C  C200  1  0.85478000  0.72333000  0.80225000  1.0
  C  C201  1  0.84506000  0.68061000  0.82466000  1.0
  C  C202  1  0.83622000  0.71961000  0.84839000  1.0
  C  C203  1  0.82907000  0.68285000  0.87285000  1.0
  C  C204  1  0.82543000  0.60346000  0.90633000  1.0
  C  C205  1  0.82847000  0.53252000  0.92152000  1.0
  C  C206  1  0.83393000  0.45748000  0.91104000  1.0
  C  C207  1  0.83872000  0.39371000  0.92753000  1.0
  C  C208  1  0.83946000  0.40600000  0.95403000  1.0
  C  C209  1  0.82918000  0.53953000  0.94843000  1.0
  C  C210  1  0.82488000  0.72451000  0.89607000  1.0
  C  C211  1  0.82504000  0.80782000  0.89627000  1.0
  C  C212  1  0.82149000  0.85296000  0.91889000  1.0
  C  C213  1  0.82476000  0.93322000  0.91703000  1.0
  C  C214  1  0.82895000  0.96741000  0.89255000  1.0
  C  C215  1  0.82985000  0.84672000  0.87216000  1.0
  C  C216  1  0.83637000  0.80277000  0.84820000  1.0
  C  C217  1  0.87245000  0.35310000  0.84524000  1.0
  C  C218  1  0.97151000  0.37559000  0.84540000  1.0
  C  C219  1  0.04588000  0.31957000  0.84512000  1.0
  C  C220  1  0.02174000  0.24056000  0.84526000  1.0
  C  C221  1  0.92253000  0.21751000  0.84493000  1.0
  C  C222  1  0.84870000  0.27396000  0.84457000  1.0
  C  C223  1  0.79120000  0.41166000  0.84454000  1.0
  C  C224  1  0.89403000  0.13357000  0.84409000  1.0
  C  C225  1  0.98255000  0.02343000  0.75520000  1.0
  C  C226  1  0.06046000  0.03039000  0.73783000  1.0
  C  C227  1  0.04346000  0.02446000  0.71137000  1.0
  C  C228  1  0.94707000  0.01496000  0.70242000  1.0
  C  C229  1  0.86890000  0.00859000  0.71974000  1.0
  C  C230  1  0.88639000  0.01152000  0.74618000  1.0
  C  C231  1  0.00446000  0.02320000  0.78335000  1.0
  C  C232  1  0.12884000  0.02489000  0.69322000  1.0
  C  C233  1  0.59220000  0.36375000  0.01415000  1.0
  C  C234  1  0.49420000  0.38940000  0.01501000  1.0
  C  C235  1  0.41721000  0.33559000  0.01375000  1.0
  C  C236  1  0.43692000  0.25600000  0.01142000  1.0
  C  C237  1  0.53466000  0.23037000  0.00934000  1.0
  C  C238  1  0.61139000  0.28442000  0.01094000  1.0
  C  C239  1  0.67684000  0.41974000  0.01561000  1.0
  C  C240  1  0.55946000  0.14690000  0.00425000  1.0
  C  C241  1  0.11553000  0.85855000  0.80028000  1.0
  C  C242  1  0.11010000  0.77840000  0.79567000  1.0
  C  C243  1  0.09906000  0.72856000  0.81635000  1.0
  C  C244  1  0.09367000  0.75916000  0.84148000  1.0
  C  C245  1  0.08567000  0.71457000  0.86443000  1.0
  C  C246  1  0.07972000  0.62426000  0.89463000  1.0
  C  C247  1  0.08422000  0.54905000  0.90729000  1.0
  C  C248  1  0.09215000  0.47781000  0.89435000  1.0
  C  C249  1  0.10160000  0.40970000  0.90869000  1.0
  C  C250  1  0.10594000  0.41438000  0.93542000  1.0
  C  C251  1  0.08725000  0.54840000  0.93431000  1.0
  C  C252  1  0.08088000  0.74794000  0.88906000  1.0
  C  C253  1  0.08243000  0.83039000  0.89247000  1.0
  C  C254  1  0.07769000  0.86726000  0.91664000  1.0
  C  C255  1  0.07903000  0.94768000  0.91778000  1.0
  C  C256  1  0.08460000  0.99005000  0.89477000  1.0
  C  C257  1  0.09002000  0.87719000  0.87003000  1.0
  C  C258  1  0.09774000  0.84170000  0.84453000  1.0
  C  C259  1  0.35351000  0.69507000  0.80364000  1.0
  C  C260  1  0.35478000  0.77667000  0.80225000  1.0
  C  C261  1  0.34506000  0.81939000  0.82466000  1.0
  C  C262  1  0.33622000  0.78039000  0.84839000  1.0
  C  C263  1  0.32907000  0.81715000  0.87285000  1.0
  C  C264  1  0.32543000  0.89654000  0.90633000  1.0
  C  C265  1  0.32847000  0.96748000  0.92152000  1.0
  C  C266  1  0.33393000  0.04252000  0.91104000  1.0
  C  C267  1  0.33872000  0.10629000  0.92753000  1.0
  C  C268  1  0.33946000  0.09400000  0.95403000  1.0
  C  C269  1  0.32919000  0.96047000  0.94843000  1.0
  C  C270  1  0.32489000  0.77549000  0.89607000  1.0
  C  C271  1  0.32504000  0.69218000  0.89627000  1.0
  C  C272  1  0.32149000  0.64704000  0.91889000  1.0
  C  C273  1  0.32476000  0.56678000  0.91703000  1.0
  C  C274  1  0.32896000  0.53259000  0.89255000  1.0
  C  C275  1  0.32985000  0.65328000  0.87216000  1.0
  C  C276  1  0.33637000  0.69723000  0.84820000  1.0
  C  C277  1  0.37245000  0.14690000  0.84524000  1.0
  C  C278  1  0.47151000  0.12441000  0.84540000  1.0
  C  C279  1  0.54587000  0.18043000  0.84512000  1.0
  C  C280  1  0.52174000  0.25944000  0.84526000  1.0
  C  C281  1  0.42253000  0.28249000  0.84493000  1.0
  C  C282  1  0.34870000  0.22604000  0.84457000  1.0
  C  C283  1  0.29120000  0.08834000  0.84454000  1.0
  C  C284  1  0.39403000  0.36643000  0.84409000  1.0
  C  C285  1  0.48255000  0.47657000  0.75520000  1.0
  C  C286  1  0.56046000  0.46961000  0.73783000  1.0
  C  C287  1  0.54346000  0.47554000  0.71137000  1.0
  C  C288  1  0.44707000  0.48504000  0.70242000  1.0
  C  C289  1  0.36890000  0.49141000  0.71974000  1.0
  C  C290  1  0.38639000  0.48848000  0.74618000  1.0
  C  C291  1  0.50446000  0.47680000  0.78335000  1.0
  C  C292  1  0.62884000  0.47511000  0.69322000  1.0
  C  C293  1  0.09220000  0.13625000  0.01415000  1.0
  C  C294  1  0.99420000  0.11060000  0.01501000  1.0
  C  C295  1  0.91721000  0.16441000  0.01375000  1.0
  C  C296  1  0.93691000  0.24400000  0.01142000  1.0
  C  C297  1  0.03466000  0.26963000  0.00934000  1.0
  C  C298  1  0.11139000  0.21558000  0.01094000  1.0
  C  C299  1  0.17684000  0.08026000  0.01561000  1.0
  C  C300  1  0.05946000  0.35310000  0.00425000  1.0
  C  C301  1  0.88447000  0.64145000  0.30028000  1.0
  C  C302  1  0.88989000  0.72160000  0.29567000  1.0
  C  C303  1  0.90093000  0.77144000  0.31635000  1.0
  C  C304  1  0.90632000  0.74083000  0.34148000  1.0
  C  C305  1  0.91433000  0.78542000  0.36443000  1.0
  C  C306  1  0.92028000  0.87574000  0.39463000  1.0
  C  C307  1  0.91577000  0.95095000  0.40729000  1.0
  C  C308  1  0.90785000  0.02218000  0.39436000  1.0
  C  C309  1  0.89839000  0.09030000  0.40869000  1.0
  C  C310  1  0.89406000  0.08561000  0.43542000  1.0
  C  C311  1  0.91274000  0.95161000  0.43431000  1.0
  C  C312  1  0.91912000  0.75206000  0.38906000  1.0
  C  C313  1  0.91756000  0.66962000  0.39247000  1.0
  C  C314  1  0.92230000  0.63274000  0.41664000  1.0
  C  C315  1  0.92097000  0.55233000  0.41778000  1.0
  C  C316  1  0.91539000  0.50995000  0.39477000  1.0
  C  C317  1  0.90997000  0.62281000  0.37003000  1.0
  C  C318  1  0.90225000  0.65830000  0.34453000  1.0
  C  C319  1  0.64649000  0.80493000  0.30365000  1.0
  C  C320  1  0.64521000  0.72333000  0.30225000  1.0
  C  C321  1  0.65493000  0.68062000  0.32466000  1.0
  C  C322  1  0.66378000  0.71961000  0.34839000  1.0
  C  C323  1  0.67093000  0.68286000  0.37285000  1.0
  C  C324  1  0.67456000  0.60346000  0.40633000  1.0
  C  C325  1  0.67153000  0.53252000  0.42152000  1.0
  C  C326  1  0.66607000  0.45748000  0.41104000  1.0
  C  C327  1  0.66127000  0.39372000  0.42753000  1.0
  C  C328  1  0.66053000  0.40600000  0.45403000  1.0
  C  C329  1  0.67081000  0.53953000  0.44843000  1.0
  C  C330  1  0.67511000  0.72451000  0.39607000  1.0
  C  C331  1  0.67496000  0.80781000  0.39627000  1.0
  C  C332  1  0.67851000  0.85295000  0.41888000  1.0
  C  C333  1  0.67524000  0.93322000  0.41703000  1.0
  C  C334  1  0.67104000  0.96741000  0.39255000  1.0
  C  C335  1  0.67015000  0.84672000  0.37216000  1.0
  C  C336  1  0.66363000  0.80277000  0.34820000  1.0
  C  C337  1  0.62755000  0.35311000  0.34524000  1.0
  C  C338  1  0.52849000  0.37559000  0.34540000  1.0
  C  C339  1  0.45413000  0.31957000  0.34512000  1.0
  C  C340  1  0.47826000  0.24056000  0.34526000  1.0
  C  C341  1  0.57747000  0.21751000  0.34493000  1.0
  C  C342  1  0.65129000  0.27396000  0.34457000  1.0
  C  C343  1  0.70880000  0.41166000  0.34454000  1.0
  C  C344  1  0.60596000  0.13358000  0.34409000  1.0
  C  C345  1  0.51745000  0.02343000  0.25520000  1.0
  C  C346  1  0.43953000  0.03039000  0.23784000  1.0
  C  C347  1  0.45654000  0.02446000  0.21137000  1.0
  C  C348  1  0.55293000  0.01496000  0.20242000  1.0
  C  C349  1  0.63110000  0.00859000  0.21974000  1.0
  C  C350  1  0.61361000  0.01152000  0.24618000  1.0
  C  C351  1  0.49553000  0.02321000  0.28335000  1.0
  C  C352  1  0.37115000  0.02489000  0.19322000  1.0
  C  C353  1  0.90779000  0.36375000  0.51415000  1.0
  C  C354  1  0.00579000  0.38939000  0.51501000  1.0
  C  C355  1  0.08278000  0.33559000  0.51375000  1.0
  C  C356  1  0.06307000  0.25600000  0.51142000  1.0
  C  C357  1  0.96534000  0.23037000  0.50934000  1.0
  C  C358  1  0.88863000  0.28443000  0.51094000  1.0
  C  C359  1  0.82316000  0.41974000  0.51561000  1.0
  C  C360  1  0.94055000  0.14690000  0.50425000  1.0
  C  C361  1  0.61553000  0.14145000  0.69971000  1.0
  C  C362  1  0.61010000  0.22160000  0.70433000  1.0
  C  C363  1  0.59906000  0.27144000  0.68365000  1.0
  C  C364  1  0.59367000  0.24083000  0.65852000  1.0
  C  C365  1  0.58567000  0.28542000  0.63557000  1.0
  C  C366  1  0.57972000  0.37574000  0.60536000  1.0
  C  C367  1  0.58422000  0.45095000  0.59271000  1.0
  C  C368  1  0.59215000  0.52218000  0.60564000  1.0
  C  C369  1  0.60160000  0.59030000  0.59131000  1.0
  C  C370  1  0.60594000  0.58561000  0.56457000  1.0
  C  C371  1  0.58725000  0.45161000  0.56569000  1.0
  C  C372  1  0.58088000  0.25206000  0.61094000  1.0
  C  C373  1  0.58243000  0.16962000  0.60753000  1.0
  C  C374  1  0.57769000  0.13274000  0.58336000  1.0
  C  C375  1  0.57902000  0.05232000  0.58221000  1.0
  C  C376  1  0.58460000  0.00995000  0.60523000  1.0
  C  C377  1  0.59002000  0.12281000  0.62996000  1.0
  C  C378  1  0.59774000  0.15830000  0.65547000  1.0
  C  C379  1  0.85351000  0.30493000  0.69635000  1.0
  C  C380  1  0.85478000  0.22333000  0.69775000  1.0
  C  C381  1  0.84506000  0.18062000  0.67534000  1.0
  C  C382  1  0.83622000  0.21961000  0.65160000  1.0
  C  C383  1  0.82907000  0.18286000  0.62715000  1.0
  C  C384  1  0.82543000  0.10346000  0.59367000  1.0
  C  C385  1  0.82847000  0.03252000  0.57848000  1.0
  C  C386  1  0.83393000  0.95748000  0.58896000  1.0
  C  C387  1  0.83872000  0.89372000  0.57247000  1.0
  C  C388  1  0.83946000  0.90600000  0.54597000  1.0
  C  C389  1  0.82919000  0.03953000  0.55157000  1.0
  C  C390  1  0.82488000  0.22451000  0.60393000  1.0
  C  C391  1  0.82504000  0.30781000  0.60373000  1.0
  C  C392  1  0.82149000  0.35295000  0.58111000  1.0
  C  C393  1  0.82476000  0.43322000  0.58296000  1.0
  C  C394  1  0.82895000  0.46741000  0.60744000  1.0
  C  C395  1  0.82985000  0.34672000  0.62784000  1.0
  C  C396  1  0.83637000  0.30277000  0.65179000  1.0
  C  C397  1  0.87245000  0.85311000  0.65476000  1.0
  C  C398  1  0.97151000  0.87559000  0.65459000  1.0
  C  C399  1  0.04587000  0.81957000  0.65488000  1.0
  C  C400  1  0.02173000  0.74056000  0.65474000  1.0
  C  C401  1  0.92253000  0.71751000  0.65506000  1.0
  C  C402  1  0.84871000  0.77396000  0.65543000  1.0
  C  C403  1  0.79120000  0.91166000  0.65546000  1.0
  C  C404  1  0.89403000  0.63358000  0.65591000  1.0
  C  C405  1  0.98254000  0.52343000  0.74479000  1.0
  C  C406  1  0.06046000  0.53039000  0.76216000  1.0
  C  C407  1  0.04346000  0.52446000  0.78863000  1.0
  C  C408  1  0.94707000  0.51496000  0.79757000  1.0
  C  C409  1  0.86890000  0.50859000  0.78026000  1.0
  C  C410  1  0.88639000  0.51152000  0.75381000  1.0
  C  C411  1  0.00446000  0.52321000  0.71665000  1.0
  C  C412  1  0.12884000  0.52489000  0.80678000  1.0
  C  C413  1  0.59221000  0.86375000  0.48585000  1.0
  C  C414  1  0.49421000  0.88939000  0.48499000  1.0
  C  C415  1  0.41722000  0.83559000  0.48625000  1.0
  C  C416  1  0.43692000  0.75600000  0.48858000  1.0
  C  C417  1  0.53466000  0.73037000  0.49066000  1.0
  C  C418  1  0.61137000  0.78443000  0.48905000  1.0
  C  C419  1  0.67684000  0.91974000  0.48439000  1.0
  C  C420  1  0.55945000  0.64690000  0.49575000  1.0
  C  C421  1  0.38447000  0.35855000  0.19972000  1.0
  C  C422  1  0.38989000  0.27840000  0.20433000  1.0
  C  C423  1  0.40093000  0.22856000  0.18365000  1.0
  C  C424  1  0.40633000  0.25916000  0.15852000  1.0
  C  C425  1  0.41433000  0.21457000  0.13557000  1.0
  C  C426  1  0.42028000  0.12426000  0.10536000  1.0
  C  C427  1  0.41577000  0.04905000  0.09271000  1.0
  C  C428  1  0.40785000  0.97781000  0.10564000  1.0
  C  C429  1  0.39839000  0.90970000  0.09131000  1.0
  C  C430  1  0.39406000  0.91438000  0.06457000  1.0
  C  C431  1  0.41274000  0.04840000  0.06569000  1.0
  C  C432  1  0.41912000  0.24794000  0.11094000  1.0
  C  C433  1  0.41756000  0.33039000  0.10753000  1.0
  C  C434  1  0.42231000  0.36726000  0.08336000  1.0
  C  C435  1  0.42097000  0.44768000  0.08222000  1.0
  C  C436  1  0.41540000  0.49005000  0.10523000  1.0
  C  C437  1  0.40997000  0.37719000  0.12997000  1.0
  C  C438  1  0.40225000  0.34170000  0.15547000  1.0
  C  C439  1  0.14649000  0.19507000  0.19635000  1.0
  C  C440  1  0.14522000  0.27667000  0.19775000  1.0
  C  C441  1  0.15493000  0.31939000  0.17534000  1.0
  C  C442  1  0.16378000  0.28039000  0.15160000  1.0
  C  C443  1  0.17093000  0.31715000  0.12715000  1.0
  C  C444  1  0.17456000  0.39654000  0.09367000  1.0
  C  C445  1  0.17153000  0.46748000  0.07847000  1.0
  C  C446  1  0.16607000  0.54252000  0.08896000  1.0
  C  C447  1  0.16128000  0.60629000  0.07247000  1.0
  C  C448  1  0.16053000  0.59400000  0.04597000  1.0
  C  C449  1  0.17081000  0.46047000  0.05157000  1.0
  C  C450  1  0.17511000  0.27549000  0.10393000  1.0
  C  C451  1  0.17496000  0.19218000  0.10373000  1.0
  C  C452  1  0.17851000  0.14704000  0.08111000  1.0
  C  C453  1  0.17524000  0.06678000  0.08296000  1.0
  C  C454  1  0.17104000  0.03259000  0.10745000  1.0
  C  C455  1  0.17015000  0.15328000  0.12784000  1.0
  C  C456  1  0.16363000  0.19723000  0.15180000  1.0
  C  C457  1  0.12755000  0.64690000  0.15476000  1.0
  C  C458  1  0.02849000  0.62441000  0.15459000  1.0
  C  C459  1  0.95412000  0.68043000  0.15488000  1.0
  C  C460  1  0.97826000  0.75944000  0.15474000  1.0
  C  C461  1  0.07747000  0.78249000  0.15507000  1.0
  C  C462  1  0.15130000  0.72604000  0.15543000  1.0
  C  C463  1  0.20879000  0.58834000  0.15546000  1.0
  C  C464  1  0.10597000  0.86643000  0.15591000  1.0
  C  C465  1  0.01745000  0.97657000  0.24479000  1.0
  C  C466  1  0.93953000  0.96961000  0.26216000  1.0
  C  C467  1  0.95654000  0.97554000  0.28863000  1.0
  C  C468  1  0.05293000  0.98504000  0.29758000  1.0
  C  C469  1  0.13110000  0.99141000  0.28026000  1.0
  C  C470  1  0.11361000  0.98848000  0.25382000  1.0
  C  C471  1  0.99554000  0.97680000  0.21665000  1.0
  C  C472  1  0.87115000  0.97511000  0.30678000  1.0
  C  C473  1  0.40780000  0.63625000  0.98585000  1.0
  C  C474  1  0.50580000  0.61060000  0.98499000  1.0
  C  C475  1  0.58279000  0.66441000  0.98625000  1.0
  C  C476  1  0.56308000  0.74400000  0.98857000  1.0
  C  C477  1  0.46534000  0.76963000  0.99066000  1.0
  C  C478  1  0.38861000  0.71558000  0.98905000  1.0
  C  C479  1  0.32315000  0.58026000  0.98439000  1.0
  C  C480  1  0.44054000  0.85310000  0.99575000  1.0
  N  N1  1  0.89073000  0.11121000  0.17610000  1.0
  N  N2  1  0.90980000  0.04425000  0.12823000  1.0
  N  N3  1  0.65583000  0.34307000  0.17410000  1.0
  N  N4  1  0.66970000  0.42568000  0.12912000  1.0
  N  N5  1  0.92310000  0.30841000  0.09246000  1.0
  N  N6  1  0.91612000  0.36445000  0.13165000  1.0
  N  N7  1  0.67733000  0.17479000  0.08340000  1.0
  N  N8  1  0.67081000  0.10552000  0.12023000  1.0
  N  N9  1  0.90083000  0.51696000  0.05208000  1.0
  N  N10  1  0.66470000  0.97815000  0.03584000  1.0
  N  N11  1  0.10927000  0.38879000  0.67610000  1.0
  N  N12  1  0.09019000  0.45575000  0.62823000  1.0
  N  N13  1  0.34417000  0.15693000  0.67410000  1.0
  N  N14  1  0.33030000  0.07432000  0.62912000  1.0
  N  N15  1  0.07690000  0.19159000  0.59246000  1.0
  N  N16  1  0.08388000  0.13555000  0.63165000  1.0
  N  N17  1  0.32266000  0.32521000  0.58340000  1.0
  N  N18  1  0.32918000  0.39447000  0.62024000  1.0
  N  N19  1  0.09916000  0.98303000  0.55207000  1.0
  N  N20  1  0.33529000  0.52186000  0.53584000  1.0
  N  N21  1  0.39073000  0.88879000  0.32390000  1.0
  N  N22  1  0.40980000  0.95575000  0.37177000  1.0
  N  N23  1  0.15583000  0.65693000  0.32590000  1.0
  N  N24  1  0.16970000  0.57432000  0.37088000  1.0
  N  N25  1  0.42310000  0.69159000  0.40754000  1.0
  N  N26  1  0.41612000  0.63555000  0.36834000  1.0
  N  N27  1  0.17733000  0.82521000  0.41660000  1.0
  N  N28  1  0.17082000  0.89448000  0.37976000  1.0
  N  N29  1  0.40084000  0.48303000  0.44792000  1.0
  N  N30  1  0.16470000  0.02186000  0.46416000  1.0
  N  N31  1  0.60927000  0.61121000  0.82389000  1.0
  N  N32  1  0.59019000  0.54425000  0.87177000  1.0
  N  N33  1  0.84416000  0.84307000  0.82590000  1.0
  N  N34  1  0.83029000  0.92568000  0.87088000  1.0
  N  N35  1  0.57690000  0.80841000  0.90753000  1.0
  N  N36  1  0.58387000  0.86445000  0.86834000  1.0
  N  N37  1  0.82266000  0.67479000  0.91659000  1.0
  N  N38  1  0.82918000  0.60552000  0.87976000  1.0
  N  N39  1  0.59916000  0.01696000  0.94792000  1.0
  N  N40  1  0.83529000  0.47815000  0.96416000  1.0
  N  N41  1  0.10927000  0.88879000  0.82389000  1.0
  N  N42  1  0.09019000  0.95575000  0.87177000  1.0
  N  N43  1  0.34417000  0.65693000  0.82590000  1.0
  N  N44  1  0.33030000  0.57432000  0.87088000  1.0
  N  N45  1  0.07690000  0.69159000  0.90753000  1.0
  N  N46  1  0.08388000  0.63555000  0.86834000  1.0
  N  N47  1  0.32266000  0.82521000  0.91659000  1.0
  N  N48  1  0.32918000  0.89448000  0.87976000  1.0
  N  N49  1  0.09916000  0.48304000  0.94792000  1.0
  N  N50  1  0.33529000  0.02185000  0.96416000  1.0
  N  N51  1  0.89073000  0.61121000  0.32390000  1.0
  N  N52  1  0.90980000  0.54425000  0.37177000  1.0
  N  N53  1  0.65583000  0.84307000  0.32590000  1.0
  N  N54  1  0.66970000  0.92568000  0.37088000  1.0
  N  N55  1  0.92310000  0.80841000  0.40754000  1.0
  N  N56  1  0.91612000  0.86445000  0.36834000  1.0
  N  N57  1  0.67733000  0.67479000  0.41660000  1.0
  N  N58  1  0.67081000  0.60552000  0.37976000  1.0
  N  N59  1  0.90083000  0.01697000  0.44792000  1.0
  N  N60  1  0.66470000  0.47814000  0.46416000  1.0
  N  N61  1  0.60927000  0.11121000  0.67610000  1.0
  N  N62  1  0.59019000  0.04425000  0.62823000  1.0
  N  N63  1  0.84416000  0.34307000  0.67410000  1.0
  N  N64  1  0.83029000  0.42568000  0.62912000  1.0
  N  N65  1  0.57690000  0.30841000  0.59246000  1.0
  N  N66  1  0.58387000  0.36445000  0.63165000  1.0
  N  N67  1  0.82266000  0.17479000  0.58340000  1.0
  N  N68  1  0.82918000  0.10553000  0.62024000  1.0
  N  N69  1  0.59916000  0.51697000  0.55207000  1.0
  N  N70  1  0.83529000  0.97814000  0.53584000  1.0
  N  N71  1  0.39073000  0.38879000  0.17610000  1.0
  N  N72  1  0.40980000  0.45575000  0.12823000  1.0
  N  N73  1  0.15583000  0.15693000  0.17410000  1.0
  N  N74  1  0.16970000  0.07432000  0.12912000  1.0
  N  N75  1  0.42310000  0.19159000  0.09246000  1.0
  N  N76  1  0.41612000  0.13555000  0.13165000  1.0
  N  N77  1  0.17733000  0.32521000  0.08340000  1.0
  N  N78  1  0.17082000  0.39448000  0.12023000  1.0
  N  N79  1  0.40084000  0.98304000  0.05208000  1.0
  N  N80  1  0.16470000  0.52185000  0.03584000  1.0
  O  O1  1  0.69012000  0.98422000  0.15497000  1.0
  O  O2  1  0.79599000  0.88358000  0.15688000  1.0
  O  O3  1  0.54273000  0.58155000  0.14976000  1.0
  O  O4  1  0.69364000  0.61607000  0.16257000  1.0
  O  O5  1  0.41437000  0.55406000  0.20942000  1.0
  O  O6  1  0.55493000  0.48845000  0.20165000  1.0
  O  O7  1  0.28553000  0.51972000  0.29688000  1.0
  O  O8  1  0.38582000  0.52982000  0.33100000  1.0
  O  O9  1  0.73602000  0.88977000  0.98447000  1.0
  O  O10  1  0.83834000  0.99220000  0.98326000  1.0
  O  O11  1  0.85156000  0.63249000  0.00265000  1.0
  O  O12  1  0.00497000  0.59379000  0.99351000  1.0
  O  O13  1  0.30989000  0.51577000  0.65497000  1.0
  O  O14  1  0.20401000  0.61642000  0.65688000  1.0
  O  O15  1  0.45727000  0.91845000  0.64976000  1.0
  O  O16  1  0.30636000  0.88393000  0.66257000  1.0
  O  O17  1  0.58563000  0.94594000  0.70942000  1.0
  O  O18  1  0.44506000  0.01155000  0.70165000  1.0
  O  O19  1  0.71447000  0.98028000  0.79688000  1.0
  O  O20  1  0.61417000  0.97018000  0.83100000  1.0
  O  O21  1  0.26398000  0.61024000  0.48447000  1.0
  O  O22  1  0.16165000  0.50780000  0.48326000  1.0
  O  O23  1  0.14844000  0.86749000  0.50265000  1.0
  O  O24  1  0.99502000  0.90621000  0.49351000  1.0
  O  O25  1  0.19011000  0.01577000  0.34503000  1.0
  O  O26  1  0.29599000  0.11642000  0.34312000  1.0
  O  O27  1  0.04273000  0.41845000  0.35024000  1.0
  O  O28  1  0.19364000  0.38393000  0.33743000  1.0
  O  O29  1  0.91437000  0.44594000  0.29058000  1.0
  O  O30  1  0.05493000  0.51155000  0.29835000  1.0
  O  O31  1  0.78552000  0.48028000  0.20312000  1.0
  O  O32  1  0.88582000  0.47018000  0.16900000  1.0
  O  O33  1  0.23602000  0.11024000  0.51553000  1.0
  O  O34  1  0.33835000  0.00780000  0.51674000  1.0
  O  O35  1  0.35155000  0.36749000  0.49735000  1.0
  O  O36  1  0.50497000  0.40621000  0.50649000  1.0
  O  O37  1  0.80988000  0.48422000  0.84503000  1.0
  O  O38  1  0.70401000  0.38358000  0.84311000  1.0
  O  O39  1  0.95726000  0.08155000  0.85024000  1.0
  O  O40  1  0.80636000  0.11607000  0.83743000  1.0
  O  O41  1  0.08563000  0.05406000  0.79058000  1.0
  O  O42  1  0.94507000  0.98845000  0.79835000  1.0
  O  O43  1  0.21447000  0.01972000  0.70312000  1.0
  O  O44  1  0.11417000  0.02982000  0.66900000  1.0
  O  O45  1  0.76398000  0.38977000  0.01553000  1.0
  O  O46  1  0.66166000  0.49220000  0.01674000  1.0
  O  O47  1  0.64843000  0.13249000  0.99735000  1.0
  O  O48  1  0.49503000  0.09379000  0.00649000  1.0
  O  O49  1  0.30988000  0.01578000  0.84503000  1.0
  O  O50  1  0.20401000  0.11642000  0.84311000  1.0
  O  O51  1  0.45726000  0.41845000  0.85024000  1.0
  O  O52  1  0.30636000  0.38393000  0.83743000  1.0
  O  O53  1  0.58563000  0.44594000  0.79058000  1.0
  O  O54  1  0.44507000  0.51155000  0.79835000  1.0
  O  O55  1  0.71447000  0.48028000  0.70312000  1.0
  O  O56  1  0.61417000  0.47018000  0.66900000  1.0
  O  O57  1  0.26398000  0.11023000  0.01553000  1.0
  O  O58  1  0.16166000  0.00780000  0.01674000  1.0
  O  O59  1  0.14844000  0.36751000  0.99735000  1.0
  O  O60  1  0.99503000  0.40621000  0.00649000  1.0
  O  O61  1  0.69011000  0.48423000  0.34503000  1.0
  O  O62  1  0.79599000  0.38358000  0.34312000  1.0
  O  O63  1  0.54273000  0.08155000  0.35024000  1.0
  O  O64  1  0.69364000  0.11607000  0.33743000  1.0
  O  O65  1  0.41437000  0.05406000  0.29058000  1.0
  O  O66  1  0.55493000  0.98845000  0.29835000  1.0
  O  O67  1  0.28553000  0.01972000  0.20312000  1.0
  O  O68  1  0.38582000  0.02982000  0.16900000  1.0
  O  O69  1  0.73602000  0.38976000  0.51553000  1.0
  O  O70  1  0.83835000  0.49220000  0.51674000  1.0
  O  O71  1  0.85155000  0.13251000  0.49735000  1.0
  O  O72  1  0.00498000  0.09379000  0.50649000  1.0
  O  O73  1  0.80988000  0.98423000  0.65497000  1.0
  O  O74  1  0.70401000  0.88358000  0.65688000  1.0
  O  O75  1  0.95727000  0.58155000  0.64976000  1.0
  O  O76  1  0.80636000  0.61607000  0.66257000  1.0
  O  O77  1  0.08563000  0.55406000  0.70942000  1.0
  O  O78  1  0.94506000  0.48845000  0.70165000  1.0
  O  O79  1  0.21447000  0.51972000  0.79688000  1.0
  O  O80  1  0.11417000  0.52982000  0.83100000  1.0
  O  O81  1  0.76397000  0.88976000  0.48447000  1.0
  O  O82  1  0.66165000  0.99220000  0.48326000  1.0
  O  O83  1  0.64844000  0.63251000  0.50265000  1.0
  O  O84  1  0.49502000  0.59379000  0.49351000  1.0
  O  O85  1  0.19012000  0.51578000  0.15497000  1.0
  O  O86  1  0.29599000  0.61642000  0.15688000  1.0
  O  O87  1  0.04274000  0.91845000  0.14976000  1.0
  O  O88  1  0.19364000  0.88393000  0.16257000  1.0
  O  O89  1  0.91437000  0.94594000  0.20942000  1.0
  O  O90  1  0.05493000  0.01155000  0.20165000  1.0
  O  O91  1  0.78552000  0.98028000  0.29688000  1.0
  O  O92  1  0.88582000  0.97018000  0.33100000  1.0
  O  O93  1  0.23602000  0.61023000  0.98447000  1.0
  O  O94  1  0.33834000  0.50780000  0.98326000  1.0
  O  O95  1  0.35156000  0.86751000  0.00265000  1.0
  O  O96  1  0.50497000  0.90621000  0.99351000  1.0
