# generated using pymatgen
data_H13C15(N3O2)2
_symmetry_space_group_name_H-M   'P 1'
_cell_length_a   22.46640000
_cell_length_b   61.07010000
_cell_length_c   61.07010000
_cell_angle_alpha   90.00000000
_cell_angle_beta   90.00000000
_cell_angle_gamma   90.00000000
_symmetry_Int_Tables_number   1
_chemical_formula_structural   H13C15(N3O2)2
_chemical_formula_sum   'H832 C960 N384 O256'
_cell_volume   83789.72194619
_cell_formula_units_Z   64
loop_
 _symmetry_equiv_pos_site_id
 _symmetry_equiv_pos_as_xyz
  1  'x, y, z'
loop_
 _atom_site_type_symbol
 _atom_site_label
 _atom_site_symmetry_multiplicity
 _atom_site_fract_x
 _atom_site_fract_y
 _atom_site_fract_z
 _atom_site_occupancy
  C  1  1  0.28433700  0.08597900  0.99513800  1
  C  2  1  0.32689600  0.06892700  0.99529700  1
  C  3  1  0.38368800  0.07101900  0.98545900  1
  C  4  1  0.39648700  0.09056800  0.97344000  1
  C  5  1  0.35448400  0.10818200  0.97361200  1
  C  6  1  0.29814200  0.10601200  0.98421100  1
  C  9  1  0.23226900  0.08321800  0.00817100  1
  C  10  1  0.18834300  0.06668500  0.00437300  1
  C  11  1  0.13651000  0.06594300  0.01816100  1
  C  12  1  0.13007700  0.08087700  0.03612300  1
  C  13  1  0.17459600  0.09707600  0.03956700  1
  C  14  1  0.22417000  0.09812400  0.02559700  1
  C  27  1  0.17393400  0.11144700  0.05782200  1
  C  28  1  0.08858900  0.05164600  0.01308500  1
  C  29  1  0.42737400  0.05450700  0.98923800  1
  C  30  1  0.36724900  0.12764600  0.96166500  1
  C  35  1  0.78454600  0.41561100  0.00657200  1
  C  36  1  0.82699200  0.43270300  0.00646800  1
  C  37  1  0.88384300  0.43059300  0.01625400  1
  C  38  1  0.89670000  0.41102900  0.02824300  1
  C  39  1  0.85478800  0.39338500  0.02801000  1
  C  40  1  0.79845800  0.39554200  0.01740400  1
  C  43  1  0.73246100  0.41841700  0.99356300  1
  C  44  1  0.68852700  0.43492000  0.99746600  1
  C  45  1  0.63688300  0.43584800  0.98358900  1
  C  46  1  0.63059400  0.42105900  0.96549300  1
  C  47  1  0.67491300  0.40478200  0.96205100  1
  C  48  1  0.72437200  0.40360300  0.97606300  1
  C  61  1  0.67412800  0.39040500  0.94380000  1
  C  62  1  0.58905600  0.45021200  0.98864200  1
  C  63  1  0.92749500  0.44712500  0.01250200  1
  C  64  1  0.86749900  0.37393600  0.03997900  1
  C  69  1  0.53445900  0.25662600  0.83609600  1
  C  70  1  0.57687200  0.25645900  0.81899100  1
  C  71  1  0.63374500  0.26624300  0.82105300  1
  C  72  1  0.64665600  0.27828500  0.84057600  1
  C  73  1  0.60475800  0.27814700  0.85822000  1
  C  74  1  0.54841100  0.26754200  0.85611600  1
  C  77  1  0.48235700  0.24361000  0.83335500  1
  C  78  1  0.43839900  0.24744700  0.81684300  1
  C  79  1  0.38673500  0.23357600  0.81599300  1
  C  80  1  0.38045900  0.21554200  0.83085800  1
  C  81  1  0.42481900  0.21215400  0.84712900  1
  C  82  1  0.47431000  0.22615600  0.84823000  1
  C  95  1  0.42416500  0.19389500  0.86150100  1
  C  96  1  0.33889900  0.23856700  0.80161300  1
  C  97  1  0.67737500  0.26239000  0.80453700  1
  C  98  1  0.61753200  0.29021700  0.87759100  1
  C  103  1  0.03428500  0.24510200  0.16571900  1
  C  104  1  0.07681600  0.24525900  0.18278300  1
  C  105  1  0.13365700  0.23546700  0.18067100  1
  C  106  1  0.14646600  0.22344500  0.16112800  1
  C  107  1  0.10442900  0.22357100  0.14352600  1
  C  108  1  0.04808000  0.23416700  0.14569000  1
  C  111  1  0.98222300  0.25814300  0.16846900  1
  C  112  1  0.93836000  0.25440600  0.18504000  1
  C  113  1  0.88658900  0.26822300  0.18577300  1
  C  114  1  0.88019700  0.28617600  0.17083000  1
  C  115  1  0.92466800  0.28956400  0.15460300  1
  C  116  1  0.97416900  0.27556000  0.15354800  1
  C  129  1  0.92402500  0.30779900  0.14021200  1
  C  130  1  0.83866000  0.26316800  0.20007300  1
  C  131  1  0.17734300  0.23928400  0.19717200  1
  C  132  1  0.11720400  0.21159100  0.12409100  1
  C  137  1  0.71733200  0.91472900  0.00660600  1
  C  138  1  0.67401900  0.93147800  0.00555900  1
  C  139  1  0.61610100  0.92898000  0.01434100  1
  C  140  1  0.60303700  0.90950700  0.02645400  1
  C  141  1  0.64597000  0.89220900  0.02719400  1
  C  142  1  0.70325800  0.89464400  0.01736600  1
  C  145  1  0.77076100  0.91778700  0.99446300  1
  C  146  1  0.81466600  0.93393400  0.99963400  1
  C  147  1  0.86827300  0.93484200  0.98683300  1
  C  148  1  0.87641200  0.92051900  0.96846000  1
  C  149  1  0.83181000  0.90469900  0.96364500  1
  C  150  1  0.78054700  0.90338900  0.97674400  1
  C  163  1  0.83440700  0.89088100  0.94498100  1
  C  164  1  0.91661400  0.94819800  0.99358600  1
  C  165  1  0.57179500  0.94493800  0.00938500  1
  C  166  1  0.63316400  0.87286900  0.03934500  1
  C  171  1  0.21738500  0.58690400  0.99493800  1
  C  172  1  0.17414400  0.57012500  0.99595700  1
  C  173  1  0.11616300  0.57264800  0.98722700  1
  C  174  1  0.10306700  0.59212100  0.97512000  1
  C  175  1  0.14599000  0.60942100  0.97437200  1
  C  176  1  0.20326200  0.60699900  0.98420900  1
  C  179  1  0.27069600  0.58388900  0.00716300  1
  C  180  1  0.31487800  0.56783200  0.00201700  1
  C  181  1  0.36830000  0.56694300  0.01493300  1
  C  182  1  0.37600500  0.58123500  0.03336100  1
  C  183  1  0.33123500  0.59701400  0.03809300  1
  C  184  1  0.28012700  0.59827600  0.02491500  1
  C  197  1  0.33355000  0.61088100  0.05672400  1
  C  198  1  0.41686900  0.55360500  0.00834000  1
  C  199  1  0.07182500  0.55670300  0.99219900  1
  C  200  1  0.13311400  0.62877100  0.96224600  1
  C  205  1  0.46867200  0.74432300  0.16566000  1
  C  206  1  0.42616700  0.74448200  0.18273400  1
  C  207  1  0.36934200  0.73466400  0.18064500  1
  C  208  1  0.35653000  0.72263200  0.16110800  1
  C  209  1  0.39847300  0.72280500  0.14348000  1
  C  210  1  0.45481200  0.73340600  0.14562900  1
  C  213  1  0.52071000  0.75737800  0.16840600  1
  C  214  1  0.56456200  0.75364500  0.18498100  1
  C  215  1  0.61630400  0.76747800  0.18574100  1
  C  216  1  0.62270000  0.78542500  0.17078400  1
  C  217  1  0.57829400  0.78879000  0.15452700  1
  C  218  1  0.52879600  0.77478300  0.15347400  1
  C  231  1  0.57893900  0.80702300  0.14012100  1
  C  232  1  0.66420200  0.76243000  0.20006000  1
  C  233  1  0.32565400  0.73848500  0.19714500  1
  C  234  1  0.38568600  0.71081400  0.12406000  1
  C  239  1  0.96841600  0.75733400  0.83611700  1
  C  240  1  0.92602400  0.75715700  0.81900800  1
  C  241  1  0.86913900  0.76693000  0.82105400  1
  C  242  1  0.85621700  0.77898500  0.84057000  1
  C  243  1  0.89807800  0.77884100  0.85823000  1
  C  244  1  0.95444200  0.76824500  0.85613700  1
  C  247  1  0.02060300  0.74436600  0.83337000  1
  C  248  1  0.06452600  0.74824600  0.81685800  1
  C  249  1  0.11620000  0.73438400  0.81596500  1
  C  250  1  0.12255500  0.71634000  0.83082000  1
  C  251  1  0.07828400  0.71293300  0.84712400  1
  C  252  1  0.02874300  0.72691200  0.84823500  1
  C  265  1  0.07903200  0.69467500  0.86150000  1
  C  266  1  0.16396000  0.73936100  0.80154600  1
  C  267  1  0.82553200  0.76308800  0.80452400  1
  C  268  1  0.88515000  0.79081900  0.87765000  1
  C  273  1  0.78473500  0.58607700  0.49442300  1
  C  274  1  0.82719600  0.56899500  0.49465400  1
  C  275  1  0.88406800  0.57102100  0.48486600  1
  C  276  1  0.89700500  0.59052600  0.47279300  1
  C  277  1  0.85512500  0.60818100  0.47291500  1
  C  278  1  0.79872500  0.60608400  0.48348800  1
  C  281  1  0.73258400  0.58335200  0.50741500  1
  C  282  1  0.68866700  0.56682500  0.50359200  1
  C  283  1  0.63699200  0.56597100  0.51745600  1
  C  284  1  0.63066100  0.58086800  0.53546300  1
  C  285  1  0.67496200  0.59716800  0.53883600  1
  C  286  1  0.72445800  0.59826000  0.52483400  1
  C  299  1  0.67431200  0.61156100  0.55708200  1
  C  300  1  0.58919900  0.55156100  0.51249100  1
  C  301  1  0.92768200  0.55450300  0.48874600  1
  C  302  1  0.86809100  0.62762300  0.46096700  1
  C  307  1  0.28452200  0.91574100  0.50724000  1
  C  308  1  0.32698000  0.93282900  0.50704300  1
  C  309  1  0.38385200  0.93076100  0.51682600  1
  C  310  1  0.39675900  0.91125100  0.52888900  1
  C  311  1  0.35484400  0.89360900  0.52875600  1
  C  312  1  0.29847100  0.89572600  0.51817000  1
  C  315  1  0.23249800  0.91843800  0.49416600  1
  C  316  1  0.18856000  0.93499100  0.49785900  1
  C  317  1  0.13687000  0.93571100  0.48399600  1
  C  318  1  0.13056800  0.92071200  0.46607900  1
  C  319  1  0.17507400  0.90448300  0.46275000  1
  C  320  1  0.22451700  0.90347100  0.47678500  1
  C  333  1  0.17455200  0.89004400  0.44454500  1
  C  334  1  0.08894400  0.95005700  0.48894100  1
  C  335  1  0.42750900  0.94726200  0.51295600  1
  C  336  1  0.36774800  0.87416100  0.54070100  1
  C  341  1  0.03592400  0.75652500  0.33689300  1
  C  342  1  0.07916500  0.75544600  0.32011400  1
  C  343  1  0.13715900  0.76416700  0.32260600  1
  C  344  1  0.15029900  0.77630300  0.34205800  1
  C  345  1  0.10739800  0.77711300  0.35935700  1
  C  346  1  0.05008800  0.76729700  0.35696200  1
  C  349  1  0.98248100  0.74437700  0.33387500  1
  C  350  1  0.93853300  0.74952700  0.31773500  1
  C  351  1  0.88492700  0.73672200  0.31686700  1
  C  352  1  0.87685000  0.71835400  0.33120100  1
  C  353  1  0.92151000  0.71355300  0.34700300  1
  C  354  1  0.97276700  0.72665800  0.34828200  1
  C  367  1  0.91895800  0.69488100  0.36082000  1
  C  368  1  0.83655500  0.74347300  0.30352200  1
  C  369  1  0.18144200  0.75913400  0.30666500  1
  C  370  1  0.12028500  0.78934200  0.37863000  1
  C  375  1  0.53571900  0.74510600  0.66477800  1
  C  376  1  0.57895200  0.74612700  0.68155900  1
  C  377  1  0.63688800  0.73735100  0.67906800  1
  C  378  1  0.64991600  0.72519600  0.65961900  1
  C  379  1  0.60700600  0.72443300  0.64231600  1
  C  380  1  0.54977100  0.73430800  0.64471100  1
  C  383  1  0.48238800  0.75732800  0.66777200  1
  C  384  1  0.43818200  0.75219800  0.68382500  1
  C  385  1  0.38476800  0.76511900  0.68469000  1
  C  386  1  0.37710400  0.78353900  0.67038700  1
  C  387  1  0.42186400  0.78824300  0.65459300  1
  C  388  1  0.47298500  0.77506800  0.65336500  1
  C  401  1  0.41960300  0.80688900  0.64074400  1
  C  402  1  0.33619300  0.75856100  0.69804500  1
  C  403  1  0.68124000  0.74231900  0.69501100  1
  C  404  1  0.61986900  0.71228400  0.62297700  1
  C  409  1  0.21724300  0.41480000  0.50747600  1
  C  410  1  0.17399200  0.43156900  0.50636000  1
  C  411  1  0.11604300  0.42913300  0.51513900  1
  C  412  1  0.10292500  0.40972100  0.52734100  1
  C  413  1  0.14576700  0.39239600  0.52813700  1
  C  414  1  0.20306700  0.39476100  0.51830200  1
  C  417  1  0.27057600  0.41773800  0.49524000  1
  C  418  1  0.31478000  0.43381400  0.50029200  1
  C  419  1  0.36821000  0.43462000  0.48737600  1
  C  420  1  0.37588800  0.42021500  0.46903100  1
  C  421  1  0.33111900  0.40440700  0.46439100  1
  C  422  1  0.27999400  0.40324500  0.47757200  1
  C  435  1  0.33331167  0.39050200  0.44578100  1
  C  436  1  0.41678600  0.44799800  0.49388000  1
  C  437  1  0.07171900  0.44505700  0.51007800  1
  C  438  1  0.13273500  0.37305000  0.54024800  1
  C  443  1  0.71723000  0.08689600  0.49423800  1
  C  444  1  0.67399400  0.07012100  0.49536700  1
  C  445  1  0.61592600  0.07262100  0.48671400  1
  C  446  1  0.60268800  0.09205900  0.47457200  1
  C  447  1  0.64559900  0.10935700  0.47371300  1
  C  448  1  0.70298000  0.10696100  0.48347200  1
  C  451  1  0.77062500  0.08393400  0.50642900  1
  C  452  1  0.81462400  0.06777800  0.50138900  1
  C  453  1  0.86814400  0.06696200  0.51425000  1
  C  454  1  0.87609600  0.08138600  0.53255500  1
  C  455  1  0.83138700  0.09720400  0.53725000  1
  C  456  1  0.78022600  0.09842000  0.52409100  1
  C  469  1  0.83374400  0.11109800  0.55586400  1
  C  470  1  0.91659200  0.05358400  0.50763300  1
  C  471  1  0.57164800  0.05669800  0.49182100  1
  C  472  1  0.63252100  0.12870200  0.46160200  1
  C  477  1  0.96715200  0.24423900  0.66482100  1
  C  478  1  0.92392700  0.24527900  0.68160800  1
  C  479  1  0.86593200  0.23655400  0.67910500  1
  C  480  1  0.85280600  0.22444200  0.65963800  1
  C  481  1  0.89567800  0.22367900  0.64232900  1
  C  482  1  0.95298000  0.23349700  0.64473600  1
  C  485  1  0.02050100  0.25644900  0.66781600  1
  C  486  1  0.06461900  0.25133700  0.68390700  1
  C  487  1  0.11809500  0.26422600  0.68476400  1
  C  488  1  0.12588900  0.28260800  0.67042300  1
  C  489  1  0.08118500  0.28731700  0.65460800  1
  C  490  1  0.03001300  0.27416300  0.65338700  1
  C  503  1  0.08352200  0.30595800  0.64074400  1
  C  504  1  0.16660200  0.25760400  0.69811900  1
  C  505  1  0.82160600  0.24157300  0.69503700  1
  C  506  1  0.88273900  0.21152900  0.62301000  1
  C  511  1  0.46698800  0.25731600  0.33692700  1
  C  512  1  0.42376400  0.25625500  0.32014300  1
  C  513  1  0.36576800  0.26496600  0.32263900  1
  C  514  1  0.35259500  0.27708000  0.34209700  1
  C  515  1  0.39549600  0.27789000  0.35939800  1
  C  516  1  0.45282600  0.26808500  0.35699900  1
  C  519  1  0.52044500  0.24516900  0.33392400  1
  C  520  1  0.56434600  0.25026600  0.31774800  1
  C  521  1  0.61795300  0.23746300  0.31691400  1
  C  522  1  0.62611600  0.21916100  0.33132400  1
  C  523  1  0.58148100  0.21439500  0.34714800  1
  C  524  1  0.53019800  0.22749100  0.34837800  1
  C  537  1  0.58401800  0.19574700  0.36100300  1
  C  538  1  0.66630700  0.24416000  0.30353800  1
  C  539  1  0.32151000  0.25993900  0.30668800  1
  C  540  1  0.38249000  0.29001900  0.37873000  1
  C  545  1  0.05277500  0.01381300  0.00866400  1
  C  547  1  0.95074500  0.00746800  0.99773300  1
  C  548  1  0.95796000  0.98464700  0.99934900  1
  C  550  1  0.06095700  0.99065100  0.01060300  1
  C  551  1  0.11115500  0.97964100  0.01860400  1
  C  555  1  0.19800100  0.99039600  0.03606700  1
  C  556  1  0.25785400  0.00177400  0.03154200  1
  C  566  1  0.55372400  0.48807000  0.99353600  1
  C  568  1  0.45071900  0.49437900  0.00323600  1
  C  569  1  0.45839900  0.51721400  0.00229300  1
  C  571  1  0.56250100  0.51126600  0.99237700  1
  C  572  1  0.61362800  0.52256000  0.98567000  1
  C  576  1  0.69663700  0.51175300  0.96592700  1
  C  577  1  0.75662400  0.49990100  0.96871600  1
  C  587  1  0.30351300  0.24325600  0.76373700  1
  C  589  1  0.20059900  0.25304800  0.75738000  1
  C  590  1  0.20819900  0.25188700  0.73455200  1
  C  592  1  0.31223700  0.24190900  0.74055000  1
  C  593  1  0.36319700  0.23492200  0.72932700  1
  C  597  1  0.44681500  0.21558300  0.74024100  1
  C  598  1  0.50680000  0.21869600  0.75201100  1
  C  608  1  0.80271100  0.25892200  0.23790800  1
  C  610  1  0.70064100  0.24804600  0.24426200  1
  C  611  1  0.70778500  0.24977000  0.26707800  1
  C  613  1  0.81082700  0.26096400  0.26106400  1
  C  614  1  0.86100900  0.26900700  0.27205100  1
  C  618  1  0.94811400  0.28629400  0.26129300  1
  C  619  1  0.00806700  0.28162700  0.25004400  1
  C  629  1  0.95498200  0.48574800  0.00681100  1
  C  631  1  0.05675900  0.49658800  0.00006200  1
  C  632  1  0.04112700  0.51893600  0.99953400  1
  C  634  1  0.93874700  0.50831900  0.00679800  1
  C  635  1  0.88174600  0.51593000  0.01097800  1
  C  639  1  0.79771600  0.50687000  0.03199800  1
  C  640  1  0.78186900  0.49884900  0.05516200  1
  C  650  1  0.45500100  0.01588300  0.99481200  1
  C  652  1  0.55673000  0.00507700  0.00172600  1
  C  653  1  0.54120700  0.98271400  0.00208100  1
  C  655  1  0.43891200  0.99330100  0.99461900  1
  C  656  1  0.38199600  0.98568500  0.99014200  1
  C  660  1  0.29932900  0.99462000  0.96845700  1
  C  661  1  0.28468500  0.00255300  0.94515600  1
  C  671  1  0.70482500  0.25654900  0.76593300  1
  C  673  1  0.80650500  0.24953300  0.75513700  1
  C  674  1  0.79093500  0.24903700  0.73278200  1
  C  676  1  0.68864300  0.25654400  0.74335700  1
  C  677  1  0.63171400  0.26097500  0.73575900  1
  C  681  1  0.54752600  0.28191200  0.74467500  1
  C  682  1  0.53142600  0.30508900  0.75259400  1
  C  692  1  0.20491300  0.24495600  0.23578500  1
  C  694  1  0.30653200  0.25211500  0.24656600  1
  C  695  1  0.29101100  0.25248800  0.26892900  1
  C  697  1  0.18884900  0.24475800  0.25837000  1
  C  698  1  0.13213300  0.24016800  0.26602400  1
  C  702  1  0.04900200  0.21869800  0.25690100  1
  C  703  1  0.03407500  0.19546100  0.24885500  1
  C  713  1  0.70003100  0.75815300  0.23790500  1
  C  715  1  0.80219400  0.74738000  0.24425200  1
  C  716  1  0.79501500  0.74904900  0.26707000  1
  C  718  1  0.69186100  0.76012600  0.26106700  1
  C  719  1  0.64159700  0.76805300  0.27209500  1
  C  723  1  0.55508400  0.78569800  0.26129000  1
  C  724  1  0.49504900  0.78129400  0.24999100  1
  C  734  1  0.19914500  0.74423000  0.76365200  1
  C  736  1  0.30243600  0.75348600  0.75728300  1
  C  737  1  0.29460300  0.75263600  0.73445200  1
  C  739  1  0.19017900  0.74319800  0.74045700  1
  C  740  1  0.13875200  0.73686300  0.72912400  1
  C  744  1  0.05715500  0.71638000  0.73999200  1
  C  745  1  0.99731000  0.71861000  0.75206200  1
  C  755  1  0.29810600  0.74419700  0.23575800  1
  C  757  1  0.19643900  0.75123800  0.24655300  1
  C  758  1  0.21199800  0.75167700  0.26891100  1
  C  760  1  0.31422800  0.74408100  0.25833900  1
  C  761  1  0.37102400  0.73959700  0.26598600  1
  C  765  1  0.45447600  0.71830900  0.25683300  1
  C  766  1  0.46973800  0.69512200  0.24872200  1
  C  776  1  0.79810200  0.75716600  0.76592400  1
  C  778  1  0.69627400  0.75052900  0.75508300  1
  C  779  1  0.71196600  0.74982500  0.73274400  1
  C  781  1  0.81443000  0.75694500  0.74336200  1
  C  782  1  0.87166700  0.76092400  0.73578200  1
  C  786  1  0.95535000  0.78215500  0.74455100  1
  C  787  1  0.97098600  0.80539500  0.75241000  1
  C  797  1  0.55389000  0.51365500  0.50789000  1
  C  799  1  0.45069400  0.50726400  0.49850700  1
  C  800  1  0.45841900  0.48443800  0.49956700  1
  C  802  1  0.56273500  0.49046700  0.50914100  1
  C  803  1  0.61403400  0.47918800  0.51570500  1
  C  807  1  0.69654600  0.49012300  0.53565300  1
  C  808  1  0.75650600  0.50202600  0.53299900  1
  C  818  1  0.05320200  0.98792200  0.49323800  1
  C  820  1  0.95083600  0.99430300  0.50373100  1
  C  821  1  0.95812700  0.01711800  0.50212100  1
  C  823  1  0.06152900  0.01108400  0.49135300  1
  C  824  1  0.11196900  0.02212300  0.48358800  1
  C  828  1  0.19813800  0.01123500  0.46576900  1
  C  829  1  0.25807800  0.99981400  0.47004000  1
  C  839  1  0.45501200  0.98585500  0.50709400  1
  C  841  1  0.55657900  0.99660500  0.49980100  1
  C  842  1  0.54108300  0.01896900  0.49938800  1
  C  844  1  0.43893300  0.00843900  0.50720900  1
  C  845  1  0.38218200  0.01606400  0.51189300  1
  C  849  1  0.29848400  0.00707500  0.53306400  1
  C  850  1  0.28288800  0.99908900  0.55626400  1
  C  860  1  0.95507600  0.51591300  0.49475100  1
  C  862  1  0.05678500  0.50510600  0.50167900  1
  C  863  1  0.04110400  0.48276600  0.50238800  1
  C  865  1  0.93879600  0.49334800  0.49493300  1
  C  866  1  0.88180200  0.48572000  0.49075900  1
  C  870  1  0.79785000  0.49469500  0.46965700  1
  C  871  1  0.78211300  0.50266600  0.44646400  1
  C  881  1  0.36629700  0.14518800  0.92595700  1
  C  883  1  0.39365800  0.18278000  0.92019800  1
  C  884  1  0.39929600  0.17929700  0.89748100  1
  C  886  1  0.37194100  0.14121800  0.90306700  1
  C  887  1  0.36178700  0.12115700  0.89278500  1
  C  891  1  0.33573100  0.08501700  0.90094500  1
  C  892  1  0.35321900  0.06601900  0.91620100  1
  C  902  1  0.86660800  0.35645400  0.07568600  1
  C  904  1  0.89295600  0.31878400  0.08152300  1
  C  905  1  0.89916400  0.32234400  0.10420900  1
  C  907  1  0.87295800  0.36051700  0.09853200  1
  C  908  1  0.86387800  0.38064100  0.10877800  1
  C  912  1  0.83548800  0.41652300  0.10051500  1
  C  913  1  0.85145900  0.43557800  0.08510200  1
  C  923  1  0.61634600  0.32591100  0.89512500  1
  C  925  1  0.64240000  0.33176300  0.93281800  1
  C  926  1  0.64884800  0.35443700  0.92924000  1
  C  928  1  0.62290700  0.34874500  0.89104400  1
  C  929  1  0.61404500  0.35897600  0.87089900  1
  C  933  1  0.58576700  0.35067400  0.83501500  1
  C  934  1  0.60172200  0.33520500  0.81600300  1
  C  944  1  0.11596400  0.17590800  0.10650600  1
  C  946  1  0.14318700  0.17013400  0.06890400  1
  C  947  1  0.14892000  0.14742300  0.07240000  1
  C  949  1  0.12165100  0.15302000  0.11048500  1
  C  950  1  0.11158700  0.14274700  0.13055700  1
  C  954  1  0.08575800  0.15092300  0.16671500  1
  C  955  1  0.10336500  0.16619300  0.18569000  1
  C  965  1  0.63400100  0.85559200  0.07522100  1
  C  967  1  0.60760000  0.81794500  0.08124400  1
  C  968  1  0.60233600  0.82152300  0.10396100  1
  C  970  1  0.62869300  0.85964100  0.09810500  1
  C  971  1  0.63842600  0.87977400  0.10822700  1
  C  975  1  0.66223200  0.91603400  0.09955700  1
  C  976  1  0.64248500  0.93477100  0.08435000  1
  C  986  1  0.13425100  0.64611500  0.92638900  1
  C  988  1  0.10683400  0.68367300  0.92040900  1
  C  989  1  0.10224100  0.68015700  0.89766300  1
  C  991  1  0.12969000  0.64213400  0.90347000  1
  C  992  1  0.14049200  0.62205200  0.89334500  1
  C  996  1  0.16209000  0.58558700  0.90190900  1
  C  997  1  0.14088500  0.56692400  0.91693600  1
  C  1007  1  0.38758200  0.67525800  0.10620800  1
  C  1009  1  0.36079500  0.66970400  0.06853900  1
  C  1010  1  0.35572400  0.64693700  0.07182200  1
  C  1012  1  0.38238100  0.65232500  0.10999800  1
  C  1013  1  0.39210900  0.64201600  0.13006000  1
  C  1017  1  0.41870900  0.64999000  0.16619400  1
  C  1018  1  0.40097000  0.66500600  0.18535400  1
  C  1028  1  0.88738000  0.82639100  0.89547700  1
  C  1030  1  0.85975400  0.83196200  0.93306700  1
  C  1031  1  0.85561000  0.85476300  0.92983600  1
  C  1033  1  0.88306200  0.84935600  0.89174500  1
  C  1034  1  0.89378700  0.85973100  0.87180600  1
  C  1038  1  0.91929400  0.85159300  0.83557100  1
  C  1039  1  0.90038600  0.83674600  0.81642900  1
  C  1049  1  0.86608800  0.64542500  0.42535700  1
  C  1051  1  0.89509800  0.68288200  0.41979600  1
  C  1052  1  0.89831100  0.67972500  0.39696700  1
  C  1054  1  0.86937700  0.64177900  0.40235200  1
  C  1055  1  0.85724300  0.62192100  0.39198700  1
  C  1059  1  0.83405100  0.58545200  0.40000200  1
  C  1060  1  0.85463700  0.56635900  0.41460900  1
  C  1070  1  0.36621200  0.85639200  0.57631300  1
  C  1072  1  0.39402800  0.81881300  0.58184600  1
  C  1073  1  0.39816600  0.82202200  0.60464900  1
  C  1075  1  0.37052500  0.86010000  0.59928500  1
  C  1076  1  0.35967700  0.88001600  0.60968400  1
  C  1080  1  0.33408000  0.91624800  0.60158700  1
  C  1081  1  0.35300200  0.93542600  0.58679100  1
  C  1091  1  0.11907700  0.82517900  0.39599200  1
  C  1093  1  0.14512300  0.83120800  0.43366900  1
  C  1094  1  0.15067200  0.85391300  0.43007300  1
  C  1096  1  0.12467700  0.84805000  0.39191800  1
  C  1097  1  0.11526000  0.85816600  0.37176300  1
  C  1101  1  0.09133400  0.84947400  0.33552200  1
  C  1102  1  0.11085200  0.83418900  0.31681800  1
  C  1112  1  0.61877600  0.67641900  0.60565300  1
  C  1114  1  0.64593200  0.67043600  0.56807000  1
  C  1115  1  0.65073100  0.64769800  0.57159900  1
  C  1117  1  0.62349900  0.65350400  0.60964200  1
  C  1118  1  0.61291400  0.64338000  0.62974000  1
  C  1122  1  0.59127700  0.65194100  0.66620000  1
  C  1123  1  0.61234900  0.66701000  0.68485000  1
  C  1133  1  0.13442500  0.35542300  0.57598900  1
  C  1135  1  0.10663800  0.31785800  0.58169200  1
  C  1136  1  0.10343400  0.32107200  0.60451800  1
  C  1138  1  0.13113100  0.35910500  0.59898500  1
  C  1139  1  0.14251800  0.37902800  0.60925900  1
  C  1143  1  0.16369100  0.41559600  0.60085500  1
  C  1144  1  0.14111500  0.43445300  0.58634600  1
  C  1154  1  0.63454600  0.14634900  0.42585300  1
  C  1156  1  0.60570300  0.18380500  0.42011700  1
  C  1157  1  0.60333300  0.18063800  0.39727100  1
  C  1159  1  0.63215200  0.14272200  0.40283200  1
  C  1160  1  0.64466400  0.12284400  0.39259800  1
  C  1164  1  0.66332700  0.08607800  0.40089000  1
  C  1165  1  0.63899100  0.06732500  0.41514600  1
  C  1175  1  0.88482000  0.17584400  0.60530200  1
  C  1177  1  0.85809800  0.17011400  0.56764400  1
  C  1178  1  0.85406500  0.14731600  0.57093100  1
  C  1180  1  0.88069200  0.15288000  0.60907000  1
  C  1181  1  0.89093800  0.14268900  0.62914400  1
  C  1185  1  0.91316200  0.15101000  0.66561800  1
  C  1186  1  0.89179000  0.16578000  0.68446400  1
  C  1196  1  0.38455900  0.32574200  0.39638200  1
  C  1198  1  0.35713200  0.33147300  0.43397600  1
  C  1199  1  0.35366100  0.35428900  0.43072600  1
  C  1201  1  0.38099400  0.34872700  0.39266000  1
  C  1202  1  0.39205800  0.35898900  0.37270400  1
  C  1206  1  0.41322500  0.35055600  0.33614500  1
  C  1207  1  0.39079100  0.33597400  0.31732200  1
  C  2433  1  0.28433700  0.08597900  0.25713200  1
  C  2434  1  0.32689600  0.06892700  0.25729100  1
  C  2435  1  0.38368800  0.07101900  0.24745300  1
  C  2436  1  0.39648700  0.09056800  0.23543400  1
  C  2437  1  0.35448400  0.10818200  0.23560600  1
  C  2438  1  0.29814200  0.10601200  0.24620500  1
  C  2441  1  0.23226900  0.08321800  0.27016500  1
  C  2442  1  0.18834300  0.06668500  0.26636700  1
  C  2443  1  0.13651000  0.06594300  0.28015500  1
  C  2444  1  0.13007700  0.08087700  0.29811700  1
  C  2445  1  0.17459600  0.09707600  0.30156100  1
  C  2446  1  0.22417000  0.09812400  0.28759100  1
  C  2459  1  0.17393400  0.11144700  0.31981600  1
  C  2460  1  0.08858900  0.05164600  0.27507900  1
  C  2461  1  0.42737400  0.05450700  0.25123200  1
  C  2462  1  0.36724900  0.12764600  0.22365900  1
  C  2467  1  0.78454600  0.41561100  0.26856600  1
  C  2468  1  0.82699200  0.43270300  0.26846200  1
  C  2469  1  0.88384300  0.43059300  0.27824800  1
  C  2470  1  0.89670000  0.41102900  0.29023700  1
  C  2471  1  0.85478800  0.39338500  0.29000400  1
  C  2472  1  0.79845800  0.39554200  0.27939800  1
  C  2475  1  0.73246100  0.41841700  0.25555700  1
  C  2476  1  0.68852700  0.43492000  0.25946000  1
  C  2477  1  0.63688300  0.43584800  0.24558300  1
  C  2478  1  0.63059400  0.42105900  0.22748700  1
  C  2479  1  0.67491300  0.40478200  0.22404500  1
  C  2480  1  0.72437200  0.40360300  0.23805700  1
  C  2493  1  0.67412800  0.39040500  0.20579400  1
  C  2494  1  0.58905600  0.45021200  0.25063600  1
  C  2495  1  0.92749500  0.44712500  0.27449600  1
  C  2496  1  0.86749900  0.37393600  0.30197300  1
  C  2501  1  0.53445900  0.25662600  0.09809000  1
  C  2502  1  0.57687200  0.25645900  0.08098500  1
  C  2503  1  0.63374500  0.26624300  0.08304700  1
  C  2504  1  0.64665600  0.27828500  0.10257000  1
  C  2505  1  0.60475800  0.27814700  0.12021400  1
  C  2506  1  0.54841100  0.26754200  0.11811000  1
  C  2509  1  0.48235700  0.24361000  0.09534900  1
  C  2510  1  0.43839900  0.24744700  0.07883700  1
  C  2511  1  0.38673500  0.23357600  0.07798700  1
  C  2512  1  0.38045900  0.21554200  0.09285200  1
  C  2513  1  0.42481900  0.21215400  0.10912300  1
  C  2514  1  0.47431000  0.22615600  0.11022400  1
  C  2527  1  0.42416500  0.19389500  0.12349500  1
  C  2528  1  0.33889900  0.23856700  0.06360700  1
  C  2529  1  0.67737500  0.26239000  0.06653100  1
  C  2530  1  0.61753200  0.29021700  0.13958500  1
  C  2535  1  0.03428500  0.24510200  0.42771300  1
  C  2536  1  0.07681600  0.24525900  0.44477700  1
  C  2537  1  0.13365700  0.23546700  0.44266500  1
  C  2538  1  0.14646600  0.22344500  0.42312200  1
  C  2539  1  0.10442900  0.22357100  0.40552000  1
  C  2540  1  0.04808000  0.23416700  0.40768400  1
  C  2543  1  0.98222300  0.25814300  0.43046300  1
  C  2544  1  0.93836000  0.25440600  0.44703400  1
  C  2545  1  0.88658900  0.26822300  0.44776700  1
  C  2546  1  0.88019700  0.28617600  0.43282400  1
  C  2547  1  0.92466800  0.28956400  0.41659700  1
  C  2548  1  0.97416900  0.27556000  0.41554200  1
  C  2561  1  0.92402500  0.30779900  0.40220600  1
  C  2562  1  0.83866000  0.26316800  0.46206700  1
  C  2563  1  0.17734300  0.23928400  0.45916600  1
  C  2564  1  0.11720400  0.21159100  0.38608500  1
  C  2569  1  0.71733200  0.91472900  0.26860000  1
  C  2570  1  0.67401900  0.93147800  0.26755300  1
  C  2571  1  0.61610100  0.92898000  0.27633500  1
  C  2572  1  0.60303700  0.90950700  0.28844800  1
  C  2573  1  0.64597000  0.89220900  0.28918800  1
  C  2574  1  0.70325800  0.89464400  0.27936000  1
  C  2577  1  0.77076100  0.91778700  0.25645700  1
  C  2578  1  0.81466600  0.93393400  0.26162800  1
  C  2579  1  0.86827300  0.93484200  0.24882700  1
  C  2580  1  0.87641200  0.92051900  0.23045400  1
  C  2581  1  0.83181000  0.90469900  0.22563900  1
  C  2582  1  0.78054700  0.90338900  0.23873800  1
  C  2595  1  0.83440700  0.89088100  0.20697500  1
  C  2596  1  0.91661400  0.94819800  0.25558000  1
  C  2597  1  0.57179500  0.94493800  0.27137900  1
  C  2598  1  0.63316400  0.87286900  0.30133900  1
  C  2603  1  0.21738500  0.58690400  0.25693200  1
  C  2604  1  0.17414400  0.57012500  0.25795100  1
  C  2605  1  0.11616300  0.57264800  0.24922100  1
  C  2606  1  0.10306700  0.59212100  0.23711400  1
  C  2607  1  0.14599000  0.60942100  0.23636600  1
  C  2608  1  0.20326200  0.60699900  0.24620300  1
  C  2611  1  0.27069600  0.58388900  0.26915700  1
  C  2612  1  0.31487800  0.56783200  0.26401100  1
  C  2613  1  0.36830000  0.56694300  0.27692700  1
  C  2614  1  0.37600500  0.58123500  0.29535500  1
  C  2615  1  0.33123500  0.59701400  0.30008700  1
  C  2616  1  0.28012700  0.59827600  0.28690900  1
  C  2629  1  0.33355000  0.61088100  0.31871800  1
  C  2630  1  0.41686900  0.55360500  0.27033400  1
  C  2631  1  0.07182500  0.55670300  0.25419300  1
  C  2632  1  0.13311400  0.62877100  0.22424000  1
  C  2637  1  0.46867200  0.74432300  0.42765400  1
  C  2638  1  0.42616700  0.74448200  0.44472800  1
  C  2639  1  0.36934200  0.73466400  0.44263900  1
  C  2640  1  0.35653000  0.72263200  0.42310200  1
  C  2641  1  0.39847300  0.72280500  0.40547400  1
  C  2642  1  0.45481200  0.73340600  0.40762300  1
  C  2645  1  0.52071000  0.75737800  0.43040000  1
  C  2646  1  0.56456200  0.75364500  0.44697500  1
  C  2647  1  0.61630400  0.76747800  0.44773500  1
  C  2648  1  0.62270000  0.78542500  0.43277800  1
  C  2649  1  0.57829400  0.78879000  0.41652100  1
  C  2650  1  0.52879600  0.77478300  0.41546800  1
  C  2663  1  0.57893900  0.80702300  0.40211500  1
  C  2664  1  0.66420200  0.76243000  0.46205400  1
  C  2665  1  0.32565400  0.73848500  0.45913900  1
  C  2666  1  0.38568600  0.71081400  0.38605400  1
  C  2671  1  0.96841600  0.75733400  0.09811100  1
  C  2672  1  0.92602400  0.75715700  0.08100200  1
  C  2673  1  0.86913900  0.76693000  0.08304800  1
  C  2674  1  0.85621700  0.77898500  0.10256400  1
  C  2675  1  0.89807800  0.77884100  0.12022400  1
  C  2676  1  0.95444200  0.76824500  0.11813100  1
  C  2679  1  0.02060300  0.74436600  0.09536400  1
  C  2680  1  0.06452600  0.74824600  0.07885200  1
  C  2681  1  0.11620000  0.73438400  0.07795900  1
  C  2682  1  0.12255500  0.71634000  0.09281400  1
  C  2683  1  0.07828400  0.71293300  0.10911800  1
  C  2684  1  0.02874300  0.72691200  0.11022900  1
  C  2697  1  0.07903200  0.69467500  0.12349400  1
  C  2698  1  0.16396000  0.73936100  0.06354000  1
  C  2699  1  0.82553200  0.76308800  0.06651800  1
  C  2700  1  0.88515000  0.79081900  0.13964400  1
  C  2705  1  0.78473500  0.58607700  0.75641700  1
  C  2706  1  0.82719600  0.56899500  0.75664800  1
  C  2707  1  0.88406800  0.57102100  0.74686000  1
  C  2708  1  0.89700500  0.59052600  0.73478700  1
  C  2709  1  0.85512500  0.60818100  0.73490900  1
  C  2710  1  0.79872500  0.60608400  0.74548200  1
  C  2713  1  0.73258400  0.58335200  0.76940900  1
  C  2714  1  0.68866700  0.56682500  0.76558600  1
  C  2715  1  0.63699200  0.56597100  0.77945000  1
  C  2716  1  0.63066100  0.58086800  0.79745700  1
  C  2717  1  0.67496200  0.59716800  0.80083000  1
  C  2718  1  0.72445800  0.59826000  0.78682800  1
  C  2731  1  0.67431200  0.61156100  0.81907600  1
  C  2732  1  0.58919900  0.55156100  0.77448500  1
  C  2733  1  0.92768200  0.55450300  0.75074000  1
  C  2734  1  0.86809100  0.62762300  0.72296100  1
  C  2739  1  0.28452200  0.91574100  0.76923400  1
  C  2740  1  0.32698000  0.93282900  0.76903700  1
  C  2741  1  0.38385200  0.93076100  0.77882000  1
  C  2742  1  0.39675900  0.91125100  0.79088300  1
  C  2743  1  0.35484400  0.89360900  0.79075000  1
  C  2744  1  0.29847100  0.89572600  0.78016400  1
  C  2747  1  0.23249800  0.91843800  0.75616000  1
  C  2748  1  0.18856000  0.93499100  0.75985300  1
  C  2749  1  0.13687000  0.93571100  0.74599000  1
  C  2750  1  0.13056800  0.92071200  0.72807300  1
  C  2751  1  0.17507400  0.90448300  0.72474400  1
  C  2752  1  0.22451700  0.90347100  0.73877900  1
  C  2765  1  0.17455200  0.89004400  0.70653900  1
  C  2766  1  0.08894400  0.95005700  0.75093500  1
  C  2767  1  0.42750900  0.94726200  0.77495000  1
  C  2768  1  0.36774800  0.87416100  0.80269500  1
  C  2773  1  0.03592400  0.75652500  0.59888700  1
  C  2774  1  0.07916500  0.75544600  0.58210800  1
  C  2775  1  0.13715900  0.76416700  0.58460000  1
  C  2776  1  0.15029900  0.77630300  0.60405200  1
  C  2777  1  0.10739800  0.77711300  0.62135100  1
  C  2778  1  0.05008800  0.76729700  0.61895600  1
  C  2781  1  0.98248100  0.74437700  0.59586900  1
  C  2782  1  0.93853300  0.74952700  0.57972900  1
  C  2783  1  0.88492700  0.73672200  0.57886100  1
  C  2784  1  0.87685000  0.71835400  0.59319500  1
  C  2785  1  0.92151000  0.71355300  0.60899700  1
  C  2786  1  0.97276700  0.72665800  0.61027600  1
  C  2799  1  0.91895800  0.69488100  0.62281400  1
  C  2800  1  0.83655500  0.74347300  0.56551600  1
  C  2801  1  0.18144200  0.75913400  0.56865900  1
  C  2802  1  0.12028500  0.78934200  0.64062400  1
  C  2807  1  0.53571900  0.74510600  0.92677200  1
  C  2808  1  0.57895200  0.74612700  0.94355300  1
  C  2809  1  0.63688800  0.73735100  0.94106200  1
  C  2810  1  0.64991600  0.72519600  0.92161300  1
  C  2811  1  0.60700600  0.72443300  0.90431000  1
  C  2812  1  0.54977100  0.73430800  0.90670500  1
  C  2815  1  0.48238800  0.75732800  0.92976600  1
  C  2816  1  0.43818200  0.75219800  0.94581900  1
  C  2817  1  0.38476800  0.76511900  0.94668400  1
  C  2818  1  0.37710400  0.78353900  0.93238100  1
  C  2819  1  0.42186400  0.78824300  0.91658700  1
  C  2820  1  0.47298500  0.77506800  0.91535900  1
  C  2833  1  0.41960300  0.80688900  0.90273800  1
  C  2834  1  0.33619300  0.75856100  0.96003900  1
  C  2835  1  0.68124000  0.74231900  0.95700500  1
  C  2836  1  0.61986900  0.71228400  0.88497100  1
  C  2841  1  0.21724300  0.41480000  0.76947000  1
  C  2842  1  0.17399200  0.43156900  0.76835400  1
  C  2843  1  0.11604300  0.42913300  0.77713300  1
  C  2844  1  0.10292500  0.40972100  0.78933500  1
  C  2845  1  0.14576700  0.39239600  0.79013100  1
  C  2846  1  0.20306700  0.39476100  0.78029600  1
  C  2849  1  0.27057600  0.41773800  0.75723400  1
  C  2850  1  0.31478000  0.43381400  0.76228600  1
  C  2851  1  0.36821000  0.43462000  0.74937000  1
  C  2852  1  0.37588800  0.42021500  0.73102500  1
  C  2853  1  0.33111900  0.40440700  0.72638500  1
  C  2854  1  0.27999400  0.40324500  0.73956600  1
  C  2867  1  0.33331167  0.39050200  0.70777500  1
  C  2868  1  0.41678600  0.44799800  0.75587400  1
  C  2869  1  0.07171900  0.44505700  0.77207200  1
  C  2870  1  0.13273500  0.37305000  0.80224200  1
  C  2875  1  0.71723000  0.08689600  0.75623200  1
  C  2876  1  0.67399400  0.07012100  0.75736100  1
  C  2877  1  0.61592600  0.07262100  0.74870800  1
  C  2878  1  0.60268800  0.09205900  0.73656600  1
  C  2879  1  0.64559900  0.10935700  0.73570700  1
  C  2880  1  0.70298000  0.10696100  0.74546600  1
  C  2883  1  0.77062500  0.08393400  0.76842300  1
  C  2884  1  0.81462400  0.06777800  0.76338300  1
  C  2885  1  0.86814400  0.06696200  0.77624400  1
  C  2886  1  0.87609600  0.08138600  0.79454900  1
  C  2887  1  0.83138700  0.09720400  0.79924400  1
  C  2888  1  0.78022600  0.09842000  0.78608500  1
  C  2901  1  0.83374400  0.11109800  0.81785800  1
  C  2902  1  0.91659200  0.05358400  0.76962700  1
  C  2903  1  0.57164800  0.05669800  0.75381500  1
  C  2904  1  0.63252100  0.12870200  0.72359600  1
  C  2909  1  0.96715200  0.24423900  0.92681500  1
  C  2910  1  0.92392700  0.24527900  0.94360200  1
  C  2911  1  0.86593200  0.23655400  0.94109900  1
  C  2912  1  0.85280600  0.22444200  0.92163200  1
  C  2913  1  0.89567800  0.22367900  0.90432300  1
  C  2914  1  0.95298000  0.23349700  0.90673000  1
  C  2917  1  0.02050100  0.25644900  0.92981000  1
  C  2918  1  0.06461900  0.25133700  0.94590100  1
  C  2919  1  0.11809500  0.26422600  0.94675800  1
  C  2920  1  0.12588900  0.28260800  0.93241700  1
  C  2921  1  0.08118500  0.28731700  0.91660200  1
  C  2922  1  0.03001300  0.27416300  0.91538100  1
  C  2935  1  0.08352200  0.30595800  0.90273800  1
  C  2936  1  0.16660200  0.25760400  0.96011300  1
  C  2937  1  0.82160600  0.24157300  0.95703100  1
  C  2938  1  0.88273900  0.21152900  0.88500400  1
  C  2943  1  0.46698800  0.25731600  0.59892100  1
  C  2944  1  0.42376400  0.25625500  0.58213700  1
  C  2945  1  0.36576800  0.26496600  0.58463300  1
  C  2946  1  0.35259500  0.27708000  0.60409100  1
  C  2947  1  0.39549600  0.27789000  0.62139200  1
  C  2948  1  0.45282600  0.26808500  0.61899300  1
  C  2951  1  0.52044500  0.24516900  0.59591800  1
  C  2952  1  0.56434600  0.25026600  0.57974200  1
  C  2953  1  0.61795300  0.23746300  0.57890800  1
  C  2954  1  0.62611600  0.21916100  0.59331800  1
  C  2955  1  0.58148100  0.21439500  0.60914200  1
  C  2956  1  0.53019800  0.22749100  0.61037200  1
  C  2969  1  0.58401800  0.19574700  0.62299700  1
  C  2970  1  0.66630700  0.24416000  0.56553200  1
  C  2971  1  0.32151000  0.25993900  0.56868200  1
  C  2972  1  0.38249000  0.29001900  0.64072400  1
  C  2977  1  0.05277500  0.01381300  0.27065800  1
  C  2979  1  0.95074500  0.00746800  0.25972700  1
  C  2980  1  0.95796000  0.98464700  0.26134300  1
  C  2982  1  0.06095700  0.99065100  0.27259700  1
  C  2983  1  0.11115500  0.97964100  0.28059800  1
  C  2987  1  0.19800100  0.99039600  0.29806100  1
  C  2988  1  0.25785400  0.00177400  0.29353600  1
  C  2998  1  0.55372400  0.48807000  0.25553000  1
  C  3000  1  0.45071900  0.49437900  0.26523000  1
  C  3001  1  0.45839900  0.51721400  0.26428700  1
  C  3003  1  0.56250100  0.51126600  0.25437100  1
  C  3004  1  0.61362800  0.52256000  0.24766400  1
  C  3008  1  0.69663700  0.51175300  0.22792100  1
  C  3009  1  0.75662400  0.49990100  0.23071000  1
  C  3019  1  0.30351300  0.24325600  0.02573100  1
  C  3021  1  0.20059900  0.25304800  0.01937400  1
  C  3022  1  0.20819900  0.25188700  0.99654600  1
  C  3024  1  0.31223700  0.24190900  0.00254400  1
  C  3025  1  0.36319700  0.23492200  0.99132100  1
  C  3029  1  0.44681500  0.21558300  0.00223500  1
  C  3030  1  0.50680000  0.21869600  0.01400500  1
  C  3040  1  0.80271100  0.25892200  0.49990200  1
  C  3042  1  0.70064100  0.24804600  0.50625600  1
  C  3043  1  0.70778500  0.24977000  0.52907200  1
  C  3045  1  0.81082700  0.26096400  0.52305800  1
  C  3046  1  0.86100900  0.26900700  0.53404500  1
  C  3050  1  0.94811400  0.28629400  0.52328700  1
  C  3051  1  0.00806700  0.28162700  0.51203800  1
  C  3061  1  0.95498200  0.48574800  0.26880500  1
  C  3063  1  0.05675900  0.49658800  0.26205600  1
  C  3064  1  0.04112700  0.51893600  0.26152800  1
  C  3066  1  0.93874700  0.50831900  0.26879200  1
  C  3067  1  0.88174600  0.51593000  0.27297200  1
  C  3071  1  0.79771600  0.50687000  0.29399200  1
  C  3072  1  0.78186900  0.49884900  0.31715600  1
  C  3082  1  0.45500100  0.01588300  0.25680600  1
  C  3084  1  0.55673000  0.00507700  0.26372000  1
  C  3085  1  0.54120700  0.98271400  0.26407500  1
  C  3087  1  0.43891200  0.99330100  0.25661300  1
  C  3088  1  0.38199600  0.98568500  0.25213600  1
  C  3092  1  0.29932900  0.99462000  0.23045100  1
  C  3093  1  0.28468500  0.00255300  0.20715000  1
  C  3103  1  0.70482500  0.25654900  0.02792700  1
  C  3105  1  0.80650500  0.24953300  0.01713100  1
  C  3106  1  0.79093500  0.24903700  0.99477600  1
  C  3108  1  0.68864300  0.25654400  0.00535100  1
  C  3109  1  0.63171400  0.26097500  0.99775300  1
  C  3113  1  0.54752600  0.28191200  0.00666900  1
  C  3114  1  0.53142600  0.30508900  0.01458800  1
  C  3124  1  0.20491300  0.24495600  0.49777900  1
  C  3126  1  0.30653200  0.25211500  0.50856000  1
  C  3127  1  0.29101100  0.25248800  0.53092300  1
  C  3129  1  0.18884900  0.24475800  0.52036400  1
  C  3130  1  0.13213300  0.24016800  0.52801800  1
  C  3134  1  0.04900200  0.21869800  0.51889500  1
  C  3135  1  0.03407500  0.19546100  0.51084900  1
  C  3145  1  0.70003100  0.75815300  0.49989900  1
  C  3147  1  0.80219400  0.74738000  0.50624600  1
  C  3148  1  0.79501500  0.74904900  0.52906400  1
  C  3150  1  0.69186100  0.76012600  0.52306100  1
  C  3151  1  0.64159700  0.76805300  0.53408900  1
  C  3155  1  0.55508400  0.78569800  0.52328400  1
  C  3156  1  0.49504900  0.78129400  0.51198500  1
  C  3166  1  0.19914500  0.74423000  0.02564600  1
  C  3168  1  0.30243600  0.75348600  0.01927700  1
  C  3169  1  0.29460300  0.75263600  0.99644600  1
  C  3171  1  0.19017900  0.74319800  0.00245100  1
  C  3172  1  0.13875200  0.73686300  0.99111800  1
  C  3176  1  0.05715500  0.71638000  0.00198600  1
  C  3177  1  0.99731000  0.71861000  0.01405600  1
  C  3187  1  0.29810600  0.74419700  0.49775200  1
  C  3189  1  0.19643900  0.75123800  0.50854700  1
  C  3190  1  0.21199800  0.75167700  0.53090500  1
  C  3192  1  0.31422800  0.74408100  0.52033300  1
  C  3193  1  0.37102400  0.73959700  0.52798000  1
  C  3197  1  0.45447600  0.71830900  0.51882700  1
  C  3198  1  0.46973800  0.69512200  0.51071600  1
  C  3208  1  0.79810200  0.75716600  0.02791800  1
  C  3210  1  0.69627400  0.75052900  0.01707700  1
  C  3211  1  0.71196600  0.74982500  0.99473800  1
  C  3213  1  0.81443000  0.75694500  0.00535600  1
  C  3214  1  0.87166700  0.76092400  0.99777600  1
  C  3218  1  0.95535000  0.78215500  0.00654500  1
  C  3219  1  0.97098600  0.80539500  0.01440400  1
  C  3229  1  0.55389000  0.51365500  0.76988400  1
  C  3231  1  0.45069400  0.50726400  0.76050100  1
  C  3232  1  0.45841900  0.48443800  0.76156100  1
  C  3234  1  0.56273500  0.49046700  0.77113500  1
  C  3235  1  0.61403400  0.47918800  0.77769900  1
  C  3239  1  0.69654600  0.49012300  0.79764700  1
  C  3240  1  0.75650600  0.50202600  0.79499300  1
  C  3250  1  0.05320200  0.98792200  0.75523200  1
  C  3252  1  0.95083600  0.99430300  0.76572500  1
  C  3253  1  0.95812700  0.01711800  0.76411500  1
  C  3255  1  0.06152900  0.01108400  0.75334700  1
  C  3256  1  0.11196900  0.02212300  0.74558200  1
  C  3260  1  0.19813800  0.01123500  0.72776300  1
  C  3261  1  0.25807800  0.99981400  0.73203400  1
  C  3271  1  0.45501200  0.98585500  0.76908800  1
  C  3273  1  0.55657900  0.99660500  0.76179500  1
  C  3274  1  0.54108300  0.01896900  0.76138200  1
  C  3276  1  0.43893300  0.00843900  0.76920300  1
  C  3277  1  0.38218200  0.01606400  0.77388700  1
  C  3281  1  0.29848400  0.00707500  0.79505800  1
  C  3282  1  0.28288800  0.99908900  0.81825800  1
  C  3292  1  0.95507600  0.51591300  0.75674500  1
  C  3294  1  0.05678500  0.50510600  0.76367300  1
  C  3295  1  0.04110400  0.48276600  0.76438200  1
  C  3297  1  0.93879600  0.49334800  0.75692700  1
  C  3298  1  0.88180200  0.48572000  0.75275300  1
  C  3302  1  0.79785000  0.49469500  0.73165100  1
  C  3303  1  0.78211300  0.50266600  0.70845800  1
  C  3313  1  0.36629700  0.14518800  0.18795100  1
  C  3315  1  0.39365800  0.18278000  0.18219200  1
  C  3316  1  0.39929600  0.17929700  0.15947500  1
  C  3318  1  0.37194100  0.14121800  0.16506100  1
  C  3319  1  0.36178700  0.12115700  0.15477900  1
  C  3323  1  0.33573100  0.08501700  0.16293900  1
  C  3324  1  0.35321900  0.06601900  0.17819500  1
  C  3334  1  0.86660800  0.35645400  0.33768000  1
  C  3336  1  0.89295600  0.31878400  0.34351700  1
  C  3337  1  0.89916400  0.32234400  0.36620300  1
  C  3339  1  0.87295800  0.36051700  0.36052600  1
  C  3340  1  0.86387800  0.38064100  0.37077200  1
  C  3344  1  0.83548800  0.41652300  0.36250900  1
  C  3345  1  0.85145900  0.43557800  0.34709600  1
  C  3355  1  0.61634600  0.32591100  0.15711900  1
  C  3357  1  0.64240000  0.33176300  0.19481200  1
  C  3358  1  0.64884800  0.35443700  0.19123400  1
  C  3360  1  0.62290700  0.34874500  0.15303800  1
  C  3361  1  0.61404500  0.35897600  0.13289300  1
  C  3365  1  0.58576700  0.35067400  0.09700900  1
  C  3366  1  0.60172200  0.33520500  0.07799700  1
  C  3376  1  0.11596400  0.17590800  0.36850000  1
  C  3378  1  0.14318700  0.17013400  0.33089800  1
  C  3379  1  0.14892000  0.14742300  0.33439400  1
  C  3381  1  0.12165100  0.15302000  0.37247900  1
  C  3382  1  0.11158700  0.14274700  0.39255100  1
  C  3386  1  0.08575800  0.15092300  0.42870900  1
  C  3387  1  0.10336500  0.16619300  0.44768400  1
  C  3397  1  0.63400100  0.85559200  0.33721500  1
  C  3399  1  0.60760000  0.81794500  0.34323800  1
  C  3400  1  0.60233600  0.82152300  0.36595500  1
  C  3402  1  0.62869300  0.85964100  0.36009900  1
  C  3403  1  0.63842600  0.87977400  0.37022100  1
  C  3407  1  0.66223200  0.91603400  0.36155100  1
  C  3408  1  0.64248500  0.93477100  0.34634400  1
  C  3418  1  0.13425100  0.64611500  0.18838300  1
  C  3420  1  0.10683400  0.68367300  0.18240300  1
  C  3421  1  0.10224100  0.68015700  0.15965700  1
  C  3423  1  0.12969000  0.64213400  0.16546400  1
  C  3424  1  0.14049200  0.62205200  0.15533900  1
  C  3428  1  0.16209000  0.58558700  0.16390300  1
  C  3429  1  0.14088500  0.56692400  0.17893000  1
  C  3439  1  0.38758200  0.67525800  0.36820200  1
  C  3441  1  0.36079500  0.66970400  0.33053300  1
  C  3442  1  0.35572400  0.64693700  0.33381600  1
  C  3444  1  0.38238100  0.65232500  0.37199200  1
  C  3445  1  0.39210900  0.64201600  0.39205400  1
  C  3449  1  0.41870900  0.64999000  0.42818800  1
  C  3450  1  0.40097000  0.66500600  0.44734800  1
  C  3460  1  0.88738000  0.82639100  0.15747100  1
  C  3462  1  0.85975400  0.83196200  0.19506100  1
  C  3463  1  0.85561000  0.85476300  0.19183000  1
  C  3465  1  0.88306200  0.84935600  0.15373900  1
  C  3466  1  0.89378700  0.85973100  0.13380000  1
  C  3470  1  0.91929400  0.85159300  0.09756500  1
  C  3471  1  0.90038600  0.83674600  0.07842300  1
  C  3481  1  0.86608800  0.64542500  0.68735100  1
  C  3483  1  0.89509800  0.68288200  0.68179000  1
  C  3484  1  0.89831100  0.67972500  0.65896100  1
  C  3486  1  0.86937700  0.64177900  0.66434600  1
  C  3487  1  0.85724300  0.62192100  0.65398100  1
  C  3491  1  0.83405100  0.58545200  0.66199600  1
  C  3492  1  0.85463700  0.56635900  0.67660300  1
  C  3502  1  0.36621200  0.85639200  0.83830700  1
  C  3504  1  0.39402800  0.81881300  0.84384000  1
  C  3505  1  0.39816600  0.82202200  0.86664300  1
  C  3507  1  0.37052500  0.86010000  0.86127900  1
  C  3508  1  0.35967700  0.88001600  0.87167800  1
  C  3512  1  0.33408000  0.91624800  0.86358100  1
  C  3513  1  0.35300200  0.93542600  0.84878500  1
  C  3523  1  0.11907700  0.82517900  0.65798600  1
  C  3525  1  0.14512300  0.83120800  0.69566300  1
  C  3526  1  0.15067200  0.85391300  0.69206700  1
  C  3528  1  0.12467700  0.84805000  0.65391200  1
  C  3529  1  0.11526000  0.85816600  0.63375700  1
  C  3533  1  0.09133400  0.84947400  0.59751600  1
  C  3534  1  0.11085200  0.83418900  0.57881200  1
  C  3544  1  0.61877600  0.67641900  0.86764700  1
  C  3546  1  0.64593200  0.67043600  0.83006400  1
  C  3547  1  0.65073100  0.64769800  0.83359300  1
  C  3549  1  0.62349900  0.65350400  0.87163600  1
  C  3550  1  0.61291400  0.64338000  0.89173400  1
  C  3554  1  0.59127700  0.65194100  0.92819400  1
  C  3555  1  0.61234900  0.66701000  0.94684400  1
  C  3565  1  0.13442500  0.35542300  0.83798300  1
  C  3567  1  0.10663800  0.31785800  0.84368600  1
  C  3568  1  0.10343400  0.32107200  0.86651200  1
  C  3570  1  0.13113100  0.35910500  0.86097900  1
  C  3571  1  0.14251800  0.37902800  0.87125300  1
  C  3575  1  0.16369100  0.41559600  0.86284900  1
  C  3576  1  0.14111500  0.43445300  0.84834000  1
  C  3586  1  0.63454600  0.14634900  0.68784700  1
  C  3588  1  0.60570300  0.18380500  0.68211100  1
  C  3589  1  0.60333300  0.18063800  0.65926500  1
  C  3591  1  0.63215200  0.14272200  0.66482600  1
  C  3592  1  0.64466400  0.12284400  0.65459200  1
  C  3596  1  0.66332700  0.08607800  0.66288400  1
  C  3597  1  0.63899100  0.06732500  0.67714000  1
  C  3607  1  0.88482000  0.17584400  0.86729600  1
  C  3609  1  0.85809800  0.17011400  0.82963800  1
  C  3610  1  0.85406500  0.14731600  0.83292500  1
  C  3612  1  0.88069200  0.15288000  0.87106400  1
  C  3613  1  0.89093800  0.14268900  0.89113800  1
  C  3617  1  0.91316200  0.15101000  0.92761200  1
  C  3618  1  0.89179000  0.16578000  0.94645800  1
  C  3628  1  0.38455900  0.32574200  0.65837600  1
  C  3630  1  0.35713200  0.33147300  0.69597000  1
  C  3631  1  0.35366100  0.35428900  0.69272000  1
  C  3633  1  0.38099400  0.34872700  0.65465400  1
  C  3634  1  0.39205800  0.35898900  0.63469800  1
  C  3638  1  0.41322500  0.35055600  0.59813900  1
  C  3639  1  0.39079100  0.33597400  0.57931600  1
  H  7  1  0.31822000  0.05552600  0.00487900  1
  H  16  1  0.25662600  0.10954400  0.02876300  1
  H  19  1  0.21569000  0.12023200  0.98778200  1
  H  20  1  0.26392600  0.13609500  0.97545100  1
  H  21  1  0.16176000  0.04379800  0.98159400  1
  H  22  1  0.22506700  0.05541300  0.97560500  1
  H  23  1  0.05671300  0.06685200  0.05066400  1
  H  24  1  0.07797600  0.08953600  0.06255300  1
  H  25  1  0.45362300  0.10392200  0.95064200  1
  H  26  1  0.46724800  0.07832300  0.95616300  1
  H  41  1  0.81829800  0.44609000  0.99687400  1
  H  50  1  0.75676200  0.39216600  0.97287000  1
  H  53  1  0.71611700  0.38124500  0.01371900  1
  H  54  1  0.76444500  0.36537200  0.02598600  1
  H  55  1  0.66143100  0.45733200  0.02061100  1
  H  56  1  0.72488100  0.44576600  0.02646400  1
  H  57  1  0.55814800  0.43546000  0.95071800  1
  H  58  1  0.57913900  0.41277300  0.93877800  1
  H  59  1  0.95383000  0.39767600  0.05104300  1
  H  60  1  0.96730500  0.42330000  0.04558600  1
  H  75  1  0.56815000  0.24682100  0.80563400  1
  H  84  1  0.50672900  0.22300600  0.85966700  1
  H  87  1  0.46610200  0.26392900  0.87043900  1
  H  88  1  0.51446300  0.27625500  0.88625700  1
  H  89  1  0.41126100  0.27049100  0.79433600  1
  H  90  1  0.47471000  0.27639500  0.80588800  1
  H  91  1  0.30769400  0.20079000  0.81662000  1
  H  92  1  0.32876000  0.18894800  0.83934500  1
  H  93  1  0.70420600  0.30101600  0.85388100  1
  H  94  1  0.71769700  0.29546700  0.82829900  1
  H  109  1  0.06814100  0.25488600  0.19615300  1
  H  118  1  0.00658200  0.27868300  0.14210100  1
  H  121  1  0.96561400  0.23771400  0.13147700  1
  H  122  1  0.01386000  0.22538200  0.11561600  1
  H  123  1  0.91180700  0.23169600  0.20799900  1
  H  124  1  0.97497900  0.22562100  0.19632300  1
  H  125  1  0.80693000  0.30078000  0.18487100  1
  H  126  1  0.82822000  0.31263700  0.16217300  1
  H  127  1  0.20383600  0.20074000  0.14774200  1
  H  128  1  0.21771000  0.20629200  0.17330600  1
  H  143  1  0.68324800  0.94487400  0.99604200  1
  H  152  1  0.74821600  0.89219400  0.97271600  1
  H  155  1  0.78634800  0.88071500  0.01460800  1
  H  156  1  0.73756900  0.86466200  0.02640800  1
  H  157  1  0.83861500  0.95606600  0.02351700  1
  H  158  1  0.77401000  0.94464200  0.02789300  1
  H  159  1  0.95231200  0.93457600  0.95585700  1
  H  160  1  0.93180100  0.91245900  0.94275700  1
  H  161  1  0.54420300  0.89612700  0.04863200  1
  H  162  1  0.52959000  0.92148200  0.04234000  1
  H  177  1  0.18333000  0.55676300  0.00552500  1
  H  186  1  0.24766500  0.60943900  0.02889500  1
  H  189  1  0.28626900  0.62098800  0.98705900  1
  H  190  1  0.23744600  0.63703600  0.97527400  1
  H  191  1  0.33967000  0.54604400  0.97795600  1
  H  192  1  0.27477800  0.55725100  0.97360500  1
  H  193  1  0.45148200  0.56712300  0.04624200  1
  H  194  1  0.43061800  0.58920900  0.05931200  1
  H  195  1  0.04417500  0.60551200  0.95296800  1
  H  196  1  0.02958000  0.58015400  0.95925300  1
  H  211  1  0.43478600  0.75412800  0.19609300  1
  H  220  1  0.49638700  0.77789900  0.14202300  1
  H  223  1  0.53721700  0.73698900  0.13137300  1
  H  224  1  0.48891400  0.72469800  0.11550800  1
  H  225  1  0.59124000  0.73090600  0.20788100  1
  H  226  1  0.52806800  0.72482700  0.19620200  1
  H  227  1  0.69586000  0.80006500  0.18486300  1
  H  228  1  0.67473800  0.81186700  0.16211600  1
  H  229  1  0.29914800  0.69986400  0.14776800  1
  H  230  1  0.28550900  0.70540900  0.17334000  1
  H  245  1  0.93485700  0.74752900  0.80565600  1
  H  254  1  0.99634200  0.72373700  0.85967200  1
  H  257  1  0.03676000  0.76466200  0.87046200  1
  H  258  1  0.98835200  0.77696200  0.88627800  1
  H  259  1  0.09163800  0.77141500  0.79446200  1
  H  260  1  0.02811500  0.77722300  0.80598500  1
  H  261  1  0.19521900  0.70158000  0.81651900  1
  H  262  1  0.17437900  0.68976900  0.83928600  1
  H  263  1  0.79889800  0.80176300  0.85385400  1
  H  264  1  0.78522700  0.79619300  0.82828100  1
  H  279  1  0.81837400  0.55563200  0.50427100  1
  H  288  1  0.75688500  0.60969400  0.52799000  1
  H  291  1  0.71637300  0.62039300  0.48702500  1
  H  292  1  0.76478100  0.63620800  0.47472100  1
  H  293  1  0.66167800  0.54426000  0.48056600  1
  H  294  1  0.72513100  0.55580200  0.47468200  1
  H  295  1  0.55801400  0.56660400  0.55024900  1
  H  296  1  0.57887200  0.58939100  0.56202400  1
  H  297  1  0.95418800  0.60375800  0.44994500  1
  H  298  1  0.96769700  0.57817300  0.45556300  1
  H  313  1  0.31830600  0.94617300  0.49738200  1
  H  322  1  0.25699900  0.89204200  0.47368700  1
  H  325  1  0.21609400  0.88142600  0.51461200  1
  H  326  1  0.26446500  0.86560000  0.52691200  1
  H  327  1  0.16167600  0.95786800  0.52058200  1
  H  328  1  0.22495600  0.94628600  0.52667500  1
  H  329  1  0.05752100  0.93475500  0.45134300  1
  H  330  1  0.07878800  0.91200100  0.43958600  1
  H  331  1  0.45393200  0.89799500  0.55172800  1
  H  332  1  0.46750600  0.92357900  0.54611000  1
  H  347  1  0.06993500  0.74585900  0.30676900  1
  H  356  1  0.00512700  0.72265000  0.35947200  1
  H  359  1  0.96707400  0.76454100  0.37095200  1
  H  360  1  0.01594800  0.77633700  0.38697300  1
  H  361  1  0.91445800  0.77339000  0.29561300  1
  H  362  1  0.97908500  0.77779400  0.30702100  1
  H  363  1  0.80084200  0.70575400  0.31720100  1
  H  364  1  0.82141200  0.69268900  0.33932800  1
  H  365  1  0.20957700  0.79837700  0.35542400  1
  H  366  1  0.22416400  0.79203500  0.33010200  1
  H  381  1  0.56972100  0.75571300  0.69490400  1
  H  390  1  0.50545600  0.77902600  0.64219900  1
  H  393  1  0.46674900  0.73713600  0.63074200  1
  H  394  1  0.51549100  0.72525500  0.61472900  1
  H  395  1  0.41334300  0.72812800  0.70560700  1
  H  396  1  0.47826000  0.72378600  0.69442000  1
  H  397  1  0.30154600  0.79643400  0.68445100  1
  H  398  1  0.32239400  0.80944500  0.66233400  1
  H  399  1  0.70884200  0.70304900  0.64623100  1
  H  400  1  0.72367500  0.70937100  0.67154900  1
  H  415  1  0.18327200  0.44491100  0.49677300  1
  H  424  1  0.24748800  0.39208000  0.47364600  1
  H  427  1  0.28608200  0.38076700  0.51557100  1
  H  428  1  0.23722700  0.36477600  0.52741300  1
  H  429  1  0.33954200  0.45577900  0.52420700  1
  H  430  1  0.27464800  0.44459900  0.52862000  1
  H  431  1  0.45147300  0.43420400  0.45609400  1
  H  432  1  0.43067800  0.41201200  0.44319500  1
  H  433  1  0.04412100  0.39646200  0.54959900  1
  H  434  1  0.02954100  0.42179000  0.54318700  1
  H  449  1  0.68326200  0.05679000  0.50497000  1
  H  458  1  0.74780400  0.10960800  0.52804200  1
  H  461  1  0.78602600  0.12095200  0.48614900  1
  H  462  1  0.73705300  0.13698400  0.47443200  1
  H  463  1  0.83889600  0.04558800  0.47761800  1
  H  464  1  0.77423700  0.05693500  0.47313100  1
  H  465  1  0.95186400  0.06740100  0.54534500  1
  H  466  1  0.93118900  0.08958800  0.55829400  1
  H  467  1  0.54356200  0.10538300  0.45247000  1
  H  468  1  0.52893800  0.08006200  0.45889500  1
  H  483  1  0.93314100  0.25485600  0.69496000  1
  H  492  1  0.99757500  0.27812600  0.64221100  1
  H  495  1  0.03599000  0.23628100  0.63074700  1
  H  496  1  0.98710400  0.22453500  0.61469700  1
  H  497  1  0.08923800  0.22737100  0.70583000  1
  H  498  1  0.02443600  0.22297800  0.69456100  1
  H  499  1  0.20156200  0.29543200  0.68446400  1
  H  500  1  0.18088200  0.30840900  0.66230300  1
  H  501  1  0.79360800  0.20235400  0.64624700  1
  H  502  1  0.77899100  0.20866700  0.67157500  1
  H  517  1  0.43306700  0.24669000  0.30678800  1
  H  526  1  0.49783600  0.22350400  0.35957700  1
  H  529  1  0.53589300  0.26539500  0.37096000  1
  H  530  1  0.48699300  0.27715200  0.38699600  1
  H  531  1  0.58832400  0.27406400  0.29553200  1
  H  532  1  0.52374400  0.27850100  0.30695200  1
  H  533  1  0.70222500  0.20655800  0.31739400  1
  H  534  1  0.68172800  0.19358700  0.33958700  1
  H  535  1  0.29341800  0.29912800  0.35549500  1
  H  536  1  0.27861900  0.29278000  0.33017800  1
  H  552  1  0.91131500  0.01429000  0.99294200  1
  H  557  1  0.20684900  0.97447500  0.04364400  1
  H  558  1  0.17292300  0.00051400  0.04766900  1
  H  559  1  0.28492500  0.99157200  0.02083500  1
  H  560  1  0.28187300  0.00434300  0.04686700  1
  H  561  1  0.25058200  0.01761300  0.02369700  1
  H  563  1  0.87442000  0.97692800  0.99063800  1
  H  565  1  0.13465700  0.02438100  0.01634400  1
  H  573  1  0.41072800  0.48752000  0.00728500  1
  H  578  1  0.70497200  0.52793200  0.95882900  1
  H  579  1  0.66932300  0.50224600  0.95449400  1
  H  580  1  0.78586800  0.50952400  0.97919400  1
  H  581  1  0.77802700  0.49780100  0.95280600  1
  H  582  1  0.74991000  0.48380600  0.97609700  1
  H  584  1  0.37435300  0.52486700  0.01037000  1
  H  586  1  0.63594400  0.47738600  0.98655300  1
  H  594  1  0.16066900  0.25721600  0.76421800  1
  H  599  1  0.45522400  0.20832800  0.72413600  1
  H  600  1  0.41983800  0.20417000  0.74990000  1
  H  601  1  0.53573000  0.22916100  0.74224700  1
  H  602  1  0.52860000  0.20288200  0.75426700  1
  H  603  1  0.50000300  0.22623200  0.76802900  1
  H  605  1  0.12418800  0.25996500  0.72685600  1
  H  607  1  0.38570700  0.23625300  0.77443800  1
  H  615  1  0.66120800  0.24325100  0.23744500  1
  H  620  1  0.95684500  0.29395700  0.27718100  1
  H  621  1  0.92326800  0.29786600  0.25106400  1
  H  622  1  0.03492500  0.27095700  0.26036100  1
  H  623  1  0.03224300  0.29690800  0.24741200  1
  H  624  1  0.00091300  0.27368900  0.23424400  1
  H  626  1  0.62422400  0.24109800  0.27480000  1
  H  628  1  0.88466000  0.26651700  0.22734400  1
  H  636  1  0.09956600  0.49155100  0.99750700  1
  H  641  1  0.78471000  0.49415800  0.02030500  1
  H  642  1  0.77224300  0.52173600  0.02849100  1
  H  643  1  0.80629600  0.48384700  0.05887700  1
  H  644  1  0.73422900  0.49548400  0.05623300  1
  H  645  1  0.79340100  0.51131700  0.06725000  1
  H  647  1  0.12281800  0.52977800  0.99249000  1
  H  649  1  0.87413500  0.47310200  0.01195600  1
  H  657  1  0.59945200  0.01012800  0.00444200  1
  H  662  1  0.28536100  0.00732100  0.98001300  1
  H  663  1  0.27396300  0.97968700  0.97178300  1
  H  664  1  0.30902300  0.01761300  0.94160900  1
  H  665  1  0.23705300  0.00578400  0.94369900  1
  H  666  1  0.29718000  0.99009500  0.93318800  1
  H  668  1  0.62282400  0.97186500  0.00921400  1
  H  670  1  0.37409600  0.02849900  0.98963900  1
  H  678  1  0.84926000  0.24689200  0.76019200  1
  H  683  1  0.53444600  0.27025200  0.75740800  1
  H  684  1  0.52225600  0.27833400  0.72977700  1
  H  685  1  0.55562900  0.30887400  0.76762700  1
  H  686  1  0.48373500  0.30612800  0.75586700  1
  H  687  1  0.54304800  0.31714500  0.74010700  1
  H  689  1  0.87255500  0.24184000  0.72197700  1
  H  691  1  0.62402400  0.26187300  0.77855400  1
  H  699  1  0.34920400  0.25491700  0.24150600  1
  H  704  1  0.03541900  0.23033400  0.24421900  1
  H  705  1  0.02347800  0.22203200  0.27179600  1
  H  706  1  0.05856900  0.19191400  0.23383000  1
  H  707  1  0.98646700  0.19412800  0.24552600  1
  H  708  1  0.04618400  0.18342000  0.26129300  1
  H  710  1  0.37252700  0.25980500  0.27975900  1
  H  712  1  0.12408000  0.23963600  0.22318400  1
  H  720  1  0.84165800  0.74263100  0.23742900  1
  H  725  1  0.54649100  0.79332900  0.27720600  1
  H  726  1  0.58028600  0.79721800  0.25112100  1
  H  727  1  0.46784000  0.77068800  0.26025300  1
  H  728  1  0.47130700  0.79667300  0.24740100  1
  H  729  1  0.50205100  0.77338500  0.23416700  1
  H  731  1  0.87864400  0.74045000  0.27477800  1
  H  733  1  0.61805800  0.76568000  0.22731400  1
  H  741  1  0.34259900  0.75733100  0.76412500  1
  H  746  1  0.04883000  0.70941100  0.72375600  1
  H  747  1  0.08529600  0.70504500  0.74928600  1
  H  748  1  0.96730800  0.72900900  0.74266900  1
  H  749  1  0.97676200  0.70253200  0.75402500  1
  H  750  1  0.00402100  0.72583300  0.76822700  1
  H  752  1  0.37878600  0.76048000  0.72677100  1
  H  754  1  0.11686600  0.73747300  0.77441500  1
  H  762  1  0.15372600  0.75396600  0.24149800  1
  H  767  1  0.46786200  0.73000200  0.24417500  1
  H  768  1  0.47997600  0.72166100  0.27172900  1
  H  769  1  0.44528200  0.69155900  0.23369200  1
  H  770  1  0.51736300  0.69389400  0.24538300  1
  H  771  1  0.45782700  0.68302600  0.26113400  1
  H  773  1  0.13043300  0.75892600  0.27973400  1
  H  775  1  0.37894500  0.73894200  0.22314300  1
  H  783  1  0.65340100  0.74811200  0.76011500  1
  H  788  1  0.96868100  0.77056000  0.75731100  1
  H  789  1  0.98067800  0.77860700  0.72966000  1
  H  790  1  0.94672800  0.80915500  0.76744100  1
  H  791  1  0.01865800  0.80657300  0.75567400  1
  H  792  1  0.95911100  0.81739000  0.73989500  1
  H  794  1  0.63022400  0.74282600  0.72192600  1
  H  796  1  0.87894200  0.76234200  0.77856900  1
  H  804  1  0.41061100  0.51409400  0.49453100  1
  H  809  1  0.70485600  0.47395500  0.54278100  1
  H  810  1  0.66896200  0.49961600  0.54701000  1
  H  811  1  0.78599900  0.49242600  0.52259300  1
  H  812  1  0.77762000  0.50415000  0.54895700  1
  H  813  1  0.74981800  0.51811100  0.52559700  1
  H  815  1  0.37427800  0.47672600  0.49168900  1
  H  817  1  0.63615600  0.52441300  0.51469000  1
  H  825  1  0.91124200  0.98748900  0.50834700  1
  H  830  1  0.20684200  0.02716700  0.45819100  1
  H  831  1  0.17267800  0.00115500  0.45424700  1
  H  832  1  0.28555400  0.00998800  0.48063800  1
  H  833  1  0.28160100  0.99723700  0.45461200  1
  H  834  1  0.25096400  0.98397500  0.47790300  1
  H  836  1  0.87438000  0.02485500  0.51054300  1
  H  838  1  0.13523600  0.97728800  0.48586800  1
  H  846  1  0.59924900  0.99153500  0.49701100  1
  H  851  1  0.28507700  0.99438800  0.52140700  1
  H  852  1  0.27319400  0.02199800  0.52961600  1
  H  853  1  0.30711500  0.98402900  0.55992300  1
  H  854  1  0.23521100  0.99583900  0.55744100  1
  H  855  1  0.29483900  0.01153000  0.56832400  1
  H  857  1  0.62259800  0.02976000  0.49198700  1
  H  859  1  0.37420600  0.97325600  0.51250800  1
  H  867  1  0.09957900  0.51015300  0.50424000  1
  H  872  1  0.78480000  0.50743800  0.48131400  1
  H  873  1  0.77234800  0.47984200  0.47318600  1
  H  874  1  0.80654100  0.51766600  0.44272900  1
  H  875  1  0.73447600  0.50602200  0.44535500  1
  H  876  1  0.79371300  0.49017300  0.43441200  1
  H  878  1  0.12274500  0.47197700  0.50956300  1
  H  880  1  0.87428600  0.52854300  0.48944900  1
  H  888  1  0.40057900  0.19787100  0.92695100  1
  H  893  1  0.33642600  0.07906600  0.88403900  1
  H  894  1  0.29027100  0.09007400  0.90502500  1
  H  895  1  0.39914900  0.06105800  0.91314000  1
  H  896  1  0.32402000  0.05202100  0.91334300  1
  H  897  1  0.34882200  0.07105300  0.93325200  1
  H  899  1  0.40765000  0.21100300  0.88885000  1
  H  901  1  0.31893100  0.11890700  0.93547000  1
  H  909  1  0.89928400  0.30363600  0.07481800  1
  H  914  1  0.83641700  0.42255400  0.11739100  1
  H  915  1  0.79018300  0.41111600  0.09666200  1
  H  916  1  0.89718700  0.44090000  0.08796000  1
  H  917  1  0.82156800  0.44936900  0.08800700  1
  H  918  1  0.84686100  0.43043000  0.06809300  1
  H  920  1  0.90734900  0.29065100  0.11290100  1
  H  922  1  0.81912200  0.38268300  0.06615800  1
  H  930  1  0.64851600  0.32506900  0.94798200  1
  H  935  1  0.58682400  0.36753500  0.82895000  1
  H  936  1  0.54041500  0.34686800  0.84040600  1
  H  937  1  0.64748100  0.33802100  0.81069400  1
  H  938  1  0.57188900  0.33809500  0.80219400  1
  H  939  1  0.59703300  0.31821100  0.82119000  1
  H  941  1  0.65680000  0.36314300  0.96093600  1
  H  943  1  0.56906700  0.31636700  0.86885000  1
  H  951  1  0.15012000  0.17688400  0.05381200  1
  H  956  1  0.08648800  0.13402200  0.17267500  1
  H  957  1  0.04026800  0.15500200  0.16169300  1
  H  958  1  0.14932500  0.16313300  0.19061400  1
  H  959  1  0.07425200  0.16334400  0.19971300  1
  H  960  1  0.09894200  0.18323900  0.18064800  1
  H  962  1  0.15748200  0.13879600  0.04070200  1
  H  964  1  0.06874900  0.18542900  0.13281900  1
  H  972  1  0.60087000  0.80280200  0.07458300  1
  H  977  1  0.66280600  0.92212800  0.11641100  1
  H  978  1  0.70751100  0.91120500  0.09496400  1
  H  979  1  0.59681200  0.93960200  0.08807000  1
  H  980  1  0.67158800  0.94891700  0.08655000  1
  H  981  1  0.64500700  0.92951700  0.06731600  1
  H  983  1  0.59418400  0.78984100  0.11272100  1
  H  985  1  0.68045900  0.88204500  0.06561100  1
  H  993  1  0.09948000  0.69876400  0.92709800  1
  H  998  1  0.16297100  0.57956300  0.88503200  1
  H  999  1  0.20743200  0.59009200  0.90674600  1
  H  1000  1  0.09510000  0.56242600  0.91299100  1
  H  1001  1  0.16933500  0.55258800  0.91480100  1
  H  1002  1  0.14311100  0.57208300  0.93400300  1
  H  1004  1  0.09384900  0.71183600  0.88895300  1
  H  1006  1  0.18067800  0.61965500  0.93602400  1
  H  1014  1  0.35379700  0.67656500  0.05350100  1
  H  1019  1  0.41882000  0.63303600  0.17200700  1
  H  1020  1  0.46389000  0.65435900  0.16104200  1
  H  1021  1  0.35535200  0.66158400  0.19047000  1
  H  1022  1  0.43070700  0.66227800  0.19922500  1
  H  1023  1  0.40429600  0.68211600  0.18040700  1
  H  1025  1  0.34528700  0.63881500  0.04006400  1
  H  1027  1  0.43453600  0.68471100  0.13260200  1
  H  1035  1  0.85217600  0.82509200  0.94806300  1
  H  1040  1  0.92030400  0.86854900  0.82977600  1
  H  1041  1  0.96429000  0.84686400  0.84062000  1
  H  1042  1  0.85488600  0.84052400  0.81142500  1
  H  1043  1  0.93003400  0.83926100  0.80249100  1
  H  1044  1  0.90282900  0.81961000  0.82134800  1
  H  1046  1  0.84454600  0.86282300  0.96158100  1
  H  1048  1  0.93434300  0.81684800  0.86911600  1
  H  1056  1  0.90354800  0.69780300  0.42669000  1
  H  1061  1  0.83248800  0.57974700  0.38302200  1
  H  1062  1  0.78905500  0.59016600  0.40506500  1
  H  1063  1  0.90019600  0.56169200  0.41050800  1
  H  1064  1  0.82558700  0.55223200  0.41220200  1
  H  1065  1  0.85276300  0.57116100  0.43178700  1
  H  1067  1  0.90978400  0.71145700  0.38893600  1
  H  1069  1  0.81896800  0.61909600  0.43492800  1
  H  1077  1  0.40169100  0.80383000  0.57496000  1
  H  1082  1  0.33297100  0.92201200  0.61855400  1
  H  1083  1  0.28912300  0.91119000  0.59682000  1
  H  1084  1  0.39846100  0.94044700  0.59061300  1
  H  1085  1  0.32328900  0.94934300  0.58931100  1
  H  1086  1  0.35067700  0.93054000  0.56964200  1
  H  1088  1  0.40891100  0.79026900  0.61272300  1
  H  1090  1  0.31903800  0.88272900  0.56683000  1
  H  1098  1  0.15159900  0.82455900  0.44883300  1
  H  1103  1  0.09101800  0.86631700  0.32939700  1
  H  1104  1  0.04598600  0.84498300  0.34036100  1
  H  1105  1  0.15657800  0.83780900  0.31197700  1
  H  1106  1  0.08177700  0.83641700  0.30266800  1
  H  1107  1  0.10808500  0.81717000  0.32210700  1
  H  1109  1  0.15856000  0.86271100  0.46174900  1
  H  1111  1  0.07276000  0.81556600  0.36951000  1
  H  1119  1  0.65319400  0.67712500  0.55297100  1
  H  1124  1  0.59058800  0.63506700  0.67223500  1
  H  1125  1  0.54587800  0.65670900  0.66170200  1
  H  1126  1  0.65818600  0.66313800  0.68933900  1
  H  1127  1  0.58395300  0.66483700  0.69919500  1
  H  1128  1  0.60991400  0.68407100  0.67968400  1
  H  1130  1  0.65906700  0.63897500  0.53991700  1
  H  1132  1  0.57243600  0.68604600  0.63213900  1
  H  1140  1  0.09860300  0.30288100  0.57485200  1
  H  1145  1  0.16635800  0.42142000  0.61777500  1
  H  1146  1  0.20845700  0.41109600  0.59534300  1
  H  1147  1  0.09591500  0.43902000  0.59105200  1
  H  1148  1  0.17004800  0.44870100  0.58816600  1
  H  1149  1  0.14124400  0.42945100  0.56921000  1
  H  1151  1  0.09266200  0.28933100  0.61265500  1
  H  1153  1  0.18062000  0.38196900  0.56643600  1
  H  1161  1  0.59696100  0.19872700  0.42696000  1
  H  1166  1  0.66654500  0.08031900  0.38396000  1
  H  1167  1  0.70803600  0.09021800  0.40673900  1
  H  1168  1  0.59381700  0.06310400  0.41009700  1
  H  1169  1  0.66726000  0.05288100  0.41346700  1
  H  1170  1  0.63847200  0.07225300  0.43230300  1
  H  1172  1  0.59193600  0.21235300  0.38915900  1
  H  1174  1  0.68058800  0.11978100  0.43546500  1
  H  1182  1  0.85071600  0.17693100  0.55261100  1
  H  1187  1  0.91478900  0.13408900  0.67149400  1
  H  1188  1  0.95821600  0.15610900  0.66102000  1
  H  1189  1  0.84634900  0.16149800  0.68912300  1
  H  1190  1  0.92077400  0.16374800  0.69866700  1
  H  1191  1  0.89299400  0.18289500  0.67940300  1
  H  1193  1  0.84356700  0.13912600  0.53918800  1
  H  1195  1  0.93079500  0.18537200  0.63190100  1
  H  1203  1  0.34934100  0.32465100  0.44897900  1
  H  1208  1  0.41564100  0.36747300  0.33029200  1
  H  1209  1  0.45808300  0.34513600  0.34063600  1
  H  1210  1  0.34551300  0.34058900  0.31276500  1
  H  1211  1  0.41965600  0.33782600  0.30306000  1
  H  1212  1  0.39117000  0.31884800  0.32235200  1
  H  1214  1  0.34313800  0.36247500  0.46246300  1
  H  1216  1  0.43047200  0.31617700  0.36977700  1
  H  2439  1  0.31822000  0.05552600  0.26687300  1
  H  2448  1  0.25662600  0.10954400  0.29075700  1
  H  2451  1  0.21569000  0.12023200  0.24977600  1
  H  2452  1  0.26392600  0.13609500  0.23744500  1
  H  2453  1  0.16176000  0.04379800  0.24358800  1
  H  2454  1  0.22506700  0.05541300  0.23759900  1
  H  2455  1  0.05671300  0.06685200  0.31265800  1
  H  2456  1  0.07797600  0.08953600  0.32454700  1
  H  2457  1  0.45362300  0.10392200  0.21263600  1
  H  2458  1  0.46724800  0.07832300  0.21815700  1
  H  2473  1  0.81829800  0.44609000  0.25886800  1
  H  2482  1  0.75676200  0.39216600  0.23486400  1
  H  2485  1  0.71611700  0.38124500  0.27571300  1
  H  2486  1  0.76444500  0.36537200  0.28798000  1
  H  2487  1  0.66143100  0.45733200  0.28260500  1
  H  2488  1  0.72488100  0.44576600  0.28845800  1
  H  2489  1  0.55814800  0.43546000  0.21271200  1
  H  2490  1  0.57913900  0.41277300  0.20077200  1
  H  2491  1  0.95383000  0.39767600  0.31303700  1
  H  2492  1  0.96730500  0.42330000  0.30758000  1
  H  2507  1  0.56815000  0.24682100  0.06762800  1
  H  2516  1  0.50672900  0.22300600  0.12166100  1
  H  2519  1  0.46610200  0.26392900  0.13243300  1
  H  2520  1  0.51446300  0.27625500  0.14825100  1
  H  2521  1  0.41126100  0.27049100  0.05633000  1
  H  2522  1  0.47471000  0.27639500  0.06788200  1
  H  2523  1  0.30769400  0.20079000  0.07861400  1
  H  2524  1  0.32876000  0.18894800  0.10133900  1
  H  2525  1  0.70420600  0.30101600  0.11587500  1
  H  2526  1  0.71769700  0.29546700  0.09029300  1
  H  2541  1  0.06814100  0.25488600  0.45814700  1
  H  2550  1  0.00658200  0.27868300  0.40409500  1
  H  2553  1  0.96561400  0.23771400  0.39347100  1
  H  2554  1  0.01386000  0.22538200  0.37761000  1
  H  2555  1  0.91180700  0.23169600  0.46999300  1
  H  2556  1  0.97497900  0.22562100  0.45831700  1
  H  2557  1  0.80693000  0.30078000  0.44686500  1
  H  2558  1  0.82822000  0.31263700  0.42416700  1
  H  2559  1  0.20383600  0.20074000  0.40973600  1
  H  2560  1  0.21771000  0.20629200  0.43530000  1
  H  2575  1  0.68324800  0.94487400  0.25803600  1
  H  2584  1  0.74821600  0.89219400  0.23471000  1
  H  2587  1  0.78634800  0.88071500  0.27660200  1
  H  2588  1  0.73756900  0.86466200  0.28840200  1
  H  2589  1  0.83861500  0.95606600  0.28551100  1
  H  2590  1  0.77401000  0.94464200  0.28988700  1
  H  2591  1  0.95231200  0.93457600  0.21785100  1
  H  2592  1  0.93180100  0.91245900  0.20475100  1
  H  2593  1  0.54420300  0.89612700  0.31062600  1
  H  2594  1  0.52959000  0.92148200  0.30433400  1
  H  2609  1  0.18333000  0.55676300  0.26751900  1
  H  2618  1  0.24766500  0.60943900  0.29088900  1
  H  2621  1  0.28626900  0.62098800  0.24905300  1
  H  2622  1  0.23744600  0.63703600  0.23726800  1
  H  2623  1  0.33967000  0.54604400  0.23995000  1
  H  2624  1  0.27477800  0.55725100  0.23559900  1
  H  2625  1  0.45148200  0.56712300  0.30823600  1
  H  2626  1  0.43061800  0.58920900  0.32130600  1
  H  2627  1  0.04417500  0.60551200  0.21496200  1
  H  2628  1  0.02958000  0.58015400  0.22124700  1
  H  2643  1  0.43478600  0.75412800  0.45808700  1
  H  2652  1  0.49638700  0.77789900  0.40401700  1
  H  2655  1  0.53721700  0.73698900  0.39336700  1
  H  2656  1  0.48891400  0.72469800  0.37750200  1
  H  2657  1  0.59124000  0.73090600  0.46987500  1
  H  2658  1  0.52806800  0.72482700  0.45819600  1
  H  2659  1  0.69586000  0.80006500  0.44685700  1
  H  2660  1  0.67473800  0.81186700  0.42411000  1
  H  2661  1  0.29914800  0.69986400  0.40976200  1
  H  2662  1  0.28550900  0.70540900  0.43533400  1
  H  2677  1  0.93485700  0.74752900  0.06765000  1
  H  2686  1  0.99634200  0.72373700  0.12166600  1
  H  2689  1  0.03676000  0.76466200  0.13245600  1
  H  2690  1  0.98835200  0.77696200  0.14827200  1
  H  2691  1  0.09163800  0.77141500  0.05645600  1
  H  2692  1  0.02811500  0.77722300  0.06797900  1
  H  2693  1  0.19521900  0.70158000  0.07851300  1
  H  2694  1  0.17437900  0.68976900  0.10128000  1
  H  2695  1  0.79889800  0.80176300  0.11584800  1
  H  2696  1  0.78522700  0.79619300  0.09027500  1
  H  2711  1  0.81837400  0.55563200  0.76626500  1
  H  2720  1  0.75688500  0.60969400  0.78998400  1
  H  2723  1  0.71637300  0.62039300  0.74901900  1
  H  2724  1  0.76478100  0.63620800  0.73671500  1
  H  2725  1  0.66167800  0.54426000  0.74256000  1
  H  2726  1  0.72513100  0.55580200  0.73667600  1
  H  2727  1  0.55801400  0.56660400  0.81224300  1
  H  2728  1  0.57887200  0.58939100  0.82401800  1
  H  2729  1  0.95418800  0.60375800  0.71193900  1
  H  2730  1  0.96769700  0.57817300  0.71755700  1
  H  2745  1  0.31830600  0.94617300  0.75937600  1
  H  2754  1  0.25699900  0.89204200  0.73568100  1
  H  2757  1  0.21609400  0.88142600  0.77660600  1
  H  2758  1  0.26446500  0.86560000  0.78890600  1
  H  2759  1  0.16167600  0.95786800  0.78257600  1
  H  2760  1  0.22495600  0.94628600  0.78866900  1
  H  2761  1  0.05752100  0.93475500  0.71333700  1
  H  2762  1  0.07878800  0.91200100  0.70158000  1
  H  2763  1  0.45393200  0.89799500  0.81372200  1
  H  2764  1  0.46750600  0.92357900  0.80810400  1
  H  2779  1  0.06993500  0.74585900  0.56876300  1
  H  2788  1  0.00512700  0.72265000  0.62146600  1
  H  2791  1  0.96707400  0.76454100  0.63294600  1
  H  2792  1  0.01594800  0.77633700  0.64896700  1
  H  2793  1  0.91445800  0.77339000  0.55760700  1
  H  2794  1  0.97908500  0.77779400  0.56901500  1
  H  2795  1  0.80084200  0.70575400  0.57919500  1
  H  2796  1  0.82141200  0.69268900  0.60132200  1
  H  2797  1  0.20957700  0.79837700  0.61741800  1
  H  2798  1  0.22416400  0.79203500  0.59209600  1
  H  2813  1  0.56972100  0.75571300  0.95689800  1
  H  2822  1  0.50545600  0.77902600  0.90419300  1
  H  2825  1  0.46674900  0.73713600  0.89273600  1
  H  2826  1  0.51549100  0.72525500  0.87672300  1
  H  2827  1  0.41334300  0.72812800  0.96760100  1
  H  2828  1  0.47826000  0.72378600  0.95641400  1
  H  2829  1  0.30154600  0.79643400  0.94644500  1
  H  2830  1  0.32239400  0.80944500  0.92432800  1
  H  2831  1  0.70884200  0.70304900  0.90822500  1
  H  2832  1  0.72367500  0.70937100  0.93354300  1
  H  2847  1  0.18327200  0.44491100  0.75876700  1
  H  2856  1  0.24748800  0.39208000  0.73564000  1
  H  2859  1  0.28608200  0.38076700  0.77756500  1
  H  2860  1  0.23722700  0.36477600  0.78940700  1
  H  2861  1  0.33954200  0.45577900  0.78620100  1
  H  2862  1  0.27464800  0.44459900  0.79061400  1
  H  2863  1  0.45147300  0.43420400  0.71808800  1
  H  2864  1  0.43067800  0.41201200  0.70518900  1
  H  2865  1  0.04412100  0.39646200  0.81159300  1
  H  2866  1  0.02954100  0.42179000  0.80518100  1
  H  2881  1  0.68326200  0.05679000  0.76696400  1
  H  2890  1  0.74780400  0.10960800  0.79003600  1
  H  2893  1  0.78602600  0.12095200  0.74814300  1
  H  2894  1  0.73705300  0.13698400  0.73642600  1
  H  2895  1  0.83889600  0.04558800  0.73961200  1
  H  2896  1  0.77423700  0.05693500  0.73512500  1
  H  2897  1  0.95186400  0.06740100  0.80733900  1
  H  2898  1  0.93118900  0.08958800  0.82028800  1
  H  2899  1  0.54356200  0.10538300  0.71446400  1
  H  2900  1  0.52893800  0.08006200  0.72088900  1
  H  2915  1  0.93314100  0.25485600  0.95695400  1
  H  2924  1  0.99757500  0.27812600  0.90420500  1
  H  2927  1  0.03599000  0.23628100  0.89274100  1
  H  2928  1  0.98710400  0.22453500  0.87669100  1
  H  2929  1  0.08923800  0.22737100  0.96782400  1
  H  2930  1  0.02443600  0.22297800  0.95655500  1
  H  2931  1  0.20156200  0.29543200  0.94645800  1
  H  2932  1  0.18088200  0.30840900  0.92429700  1
  H  2933  1  0.79360800  0.20235400  0.90824100  1
  H  2934  1  0.77899100  0.20866700  0.93356900  1
  H  2949  1  0.43306700  0.24669000  0.56878200  1
  H  2958  1  0.49783600  0.22350400  0.62157100  1
  H  2961  1  0.53589300  0.26539500  0.63295400  1
  H  2962  1  0.48699300  0.27715200  0.64899000  1
  H  2963  1  0.58832400  0.27406400  0.55752600  1
  H  2964  1  0.52374400  0.27850100  0.56894600  1
  H  2965  1  0.70222500  0.20655800  0.57938800  1
  H  2966  1  0.68172800  0.19358700  0.60158100  1
  H  2967  1  0.29341800  0.29912800  0.61748900  1
  H  2968  1  0.27861900  0.29278000  0.59217200  1
  H  2984  1  0.91131500  0.01429000  0.25493600  1
  H  2989  1  0.20684900  0.97447500  0.30563800  1
  H  2990  1  0.17292300  0.00051400  0.30966300  1
  H  2991  1  0.28492500  0.99157200  0.28282900  1
  H  2992  1  0.28187300  0.00434300  0.30886100  1
  H  2993  1  0.25058200  0.01761300  0.28569100  1
  H  2995  1  0.87442000  0.97692800  0.25263200  1
  H  2997  1  0.13465700  0.02438100  0.27833800  1
  H  3005  1  0.41072800  0.48752000  0.26927900  1
  H  3010  1  0.70497200  0.52793200  0.22082300  1
  H  3011  1  0.66932300  0.50224600  0.21648800  1
  H  3012  1  0.78586800  0.50952400  0.24118800  1
  H  3013  1  0.77802700  0.49780100  0.21480000  1
  H  3014  1  0.74991000  0.48380600  0.23809100  1
  H  3016  1  0.37435300  0.52486700  0.27236400  1
  H  3018  1  0.63594400  0.47738600  0.24854700  1
  H  3026  1  0.16066900  0.25721600  0.02621200  1
  H  3031  1  0.45522400  0.20832800  0.98613000  1
  H  3032  1  0.41983800  0.20417000  0.01189400  1
  H  3033  1  0.53573000  0.22916100  0.00424100  1
  H  3034  1  0.52860000  0.20288200  0.01626100  1
  H  3035  1  0.50000300  0.22623200  0.03002300  1
  H  3037  1  0.12418800  0.25996500  0.98885000  1
  H  3039  1  0.38570700  0.23625300  0.03643200  1
  H  3047  1  0.66120800  0.24325100  0.49943900  1
  H  3052  1  0.95684500  0.29395700  0.53917500  1
  H  3053  1  0.92326800  0.29786600  0.51305800  1
  H  3054  1  0.03492500  0.27095700  0.52235500  1
  H  3055  1  0.03224300  0.29690800  0.50940600  1
  H  3056  1  0.00091300  0.27368900  0.49623800  1
  H  3058  1  0.62422400  0.24109800  0.53679400  1
  H  3060  1  0.88466000  0.26651700  0.48933800  1
  H  3068  1  0.09956600  0.49155100  0.25950100  1
  H  3073  1  0.78471000  0.49415800  0.28229900  1
  H  3074  1  0.77224300  0.52173600  0.29048500  1
  H  3075  1  0.80629600  0.48384700  0.32087100  1
  H  3076  1  0.73422900  0.49548400  0.31822700  1
  H  3077  1  0.79340100  0.51131700  0.32924400  1
  H  3079  1  0.12281800  0.52977800  0.25448400  1
  H  3081  1  0.87413500  0.47310200  0.27395000  1
  H  3089  1  0.59945200  0.01012800  0.26643600  1
  H  3094  1  0.28536100  0.00732100  0.24200700  1
  H  3095  1  0.27396300  0.97968700  0.23377700  1
  H  3096  1  0.30902300  0.01761300  0.20360300  1
  H  3097  1  0.23705300  0.00578400  0.20569300  1
  H  3098  1  0.29718000  0.99009500  0.19518200  1
  H  3100  1  0.62282400  0.97186500  0.27120800  1
  H  3102  1  0.37409600  0.02849900  0.25163300  1
  H  3110  1  0.84926000  0.24689200  0.02218600  1
  H  3115  1  0.53444600  0.27025200  0.01940200  1
  H  3116  1  0.52225600  0.27833400  0.99177100  1
  H  3117  1  0.55562900  0.30887400  0.02962100  1
  H  3118  1  0.48373500  0.30612800  0.01786100  1
  H  3119  1  0.54304800  0.31714500  0.00210100  1
  H  3121  1  0.87255500  0.24184000  0.98397100  1
  H  3123  1  0.62402400  0.26187300  0.04054800  1
  H  3131  1  0.34920400  0.25491700  0.50350000  1
  H  3136  1  0.03541900  0.23033400  0.50621300  1
  H  3137  1  0.02347800  0.22203200  0.53379000  1
  H  3138  1  0.05856900  0.19191400  0.49582400  1
  H  3139  1  0.98646700  0.19412800  0.50752000  1
  H  3140  1  0.04618400  0.18342000  0.52328700  1
  H  3142  1  0.37252700  0.25980500  0.54175300  1
  H  3144  1  0.12408000  0.23963600  0.48517800  1
  H  3152  1  0.84165800  0.74263100  0.49942300  1
  H  3157  1  0.54649100  0.79332900  0.53920000  1
  H  3158  1  0.58028600  0.79721800  0.51311500  1
  H  3159  1  0.46784000  0.77068800  0.52224700  1
  H  3160  1  0.47130700  0.79667300  0.50939500  1
  H  3161  1  0.50205100  0.77338500  0.49616100  1
  H  3163  1  0.87864400  0.74045000  0.53677200  1
  H  3165  1  0.61805800  0.76568000  0.48930800  1
  H  3173  1  0.34259900  0.75733100  0.02611900  1
  H  3178  1  0.04883000  0.70941100  0.98575000  1
  H  3179  1  0.08529600  0.70504500  0.01128000  1
  H  3180  1  0.96730800  0.72900900  0.00466300  1
  H  3181  1  0.97676200  0.70253200  0.01601900  1
  H  3182  1  0.00402100  0.72583300  0.03022100  1
  H  3184  1  0.37878600  0.76048000  0.98876500  1
  H  3186  1  0.11686600  0.73747300  0.03640900  1
  H  3194  1  0.15372600  0.75396600  0.50349200  1
  H  3199  1  0.46786200  0.73000200  0.50616900  1
  H  3200  1  0.47997600  0.72166100  0.53372300  1
  H  3201  1  0.44528200  0.69155900  0.49568600  1
  H  3202  1  0.51736300  0.69389400  0.50737700  1
  H  3203  1  0.45782700  0.68302600  0.52312800  1
  H  3205  1  0.13043300  0.75892600  0.54172800  1
  H  3207  1  0.37894500  0.73894200  0.48513700  1
  H  3215  1  0.65340100  0.74811200  0.02210900  1
  H  3220  1  0.96868100  0.77056000  0.01930500  1
  H  3221  1  0.98067800  0.77860700  0.99165400  1
  H  3222  1  0.94672800  0.80915500  0.02943500  1
  H  3223  1  0.01865800  0.80657300  0.01766800  1
  H  3224  1  0.95911100  0.81739000  0.00188900  1
  H  3226  1  0.63022400  0.74282600  0.98392000  1
  H  3228  1  0.87894200  0.76234200  0.04056300  1
  H  3236  1  0.41061100  0.51409400  0.75652500  1
  H  3241  1  0.70485600  0.47395500  0.80477500  1
  H  3242  1  0.66896200  0.49961600  0.80900400  1
  H  3243  1  0.78599900  0.49242600  0.78458700  1
  H  3244  1  0.77762000  0.50415000  0.81095100  1
  H  3245  1  0.74981800  0.51811100  0.78759100  1
  H  3247  1  0.37427800  0.47672600  0.75368300  1
  H  3249  1  0.63615600  0.52441300  0.77668400  1
  H  3257  1  0.91124200  0.98748900  0.77034100  1
  H  3262  1  0.20684200  0.02716700  0.72018500  1
  H  3263  1  0.17267800  0.00115500  0.71624100  1
  H  3264  1  0.28555400  0.00998800  0.74263200  1
  H  3265  1  0.28160100  0.99723700  0.71660600  1
  H  3266  1  0.25096400  0.98397500  0.73989700  1
  H  3268  1  0.87438000  0.02485500  0.77253700  1
  H  3270  1  0.13523600  0.97728800  0.74786200  1
  H  3278  1  0.59924900  0.99153500  0.75900500  1
  H  3283  1  0.28507700  0.99438800  0.78340100  1
  H  3284  1  0.27319400  0.02199800  0.79161000  1
  H  3285  1  0.30711500  0.98402900  0.82191700  1
  H  3286  1  0.23521100  0.99583900  0.81943500  1
  H  3287  1  0.29483900  0.01153000  0.83031800  1
  H  3289  1  0.62259800  0.02976000  0.75398100  1
  H  3291  1  0.37420600  0.97325600  0.77450200  1
  H  3299  1  0.09957900  0.51015300  0.76623400  1
  H  3304  1  0.78480000  0.50743800  0.74330800  1
  H  3305  1  0.77234800  0.47984200  0.73518000  1
  H  3306  1  0.80654100  0.51766600  0.70472300  1
  H  3307  1  0.73447600  0.50602200  0.70734900  1
  H  3308  1  0.79371300  0.49017300  0.69640600  1
  H  3310  1  0.12274500  0.47197700  0.77155700  1
  H  3312  1  0.87428600  0.52854300  0.75144300  1
  H  3320  1  0.40057900  0.19787100  0.18894500  1
  H  3325  1  0.33642600  0.07906600  0.14603300  1
  H  3326  1  0.29027100  0.09007400  0.16701900  1
  H  3327  1  0.39914900  0.06105800  0.17513400  1
  H  3328  1  0.32402000  0.05202100  0.17533700  1
  H  3329  1  0.34882200  0.07105300  0.19524600  1
  H  3331  1  0.40765000  0.21100300  0.15084400  1
  H  3333  1  0.31893100  0.11890700  0.19746400  1
  H  3341  1  0.89928400  0.30363600  0.33681200  1
  H  3346  1  0.83641700  0.42255400  0.37938500  1
  H  3347  1  0.79018300  0.41111600  0.35865600  1
  H  3348  1  0.89718700  0.44090000  0.34995400  1
  H  3349  1  0.82156800  0.44936900  0.35000100  1
  H  3350  1  0.84686100  0.43043000  0.33008700  1
  H  3352  1  0.90734900  0.29065100  0.37489500  1
  H  3354  1  0.81912200  0.38268300  0.32815200  1
  H  3362  1  0.64851600  0.32506900  0.20997600  1
  H  3367  1  0.58682400  0.36753500  0.09094400  1
  H  3368  1  0.54041500  0.34686800  0.10240000  1
  H  3369  1  0.64748100  0.33802100  0.07268800  1
  H  3370  1  0.57188900  0.33809500  0.06418800  1
  H  3371  1  0.59703300  0.31821100  0.08318400  1
  H  3373  1  0.65680000  0.36314300  0.22293000  1
  H  3375  1  0.56906700  0.31636700  0.13084400  1
  H  3383  1  0.15012000  0.17688400  0.31580600  1
  H  3388  1  0.08648800  0.13402200  0.43466900  1
  H  3389  1  0.04026800  0.15500200  0.42368700  1
  H  3390  1  0.14932500  0.16313300  0.45260800  1
  H  3391  1  0.07425200  0.16334400  0.46170700  1
  H  3392  1  0.09894200  0.18323900  0.44264200  1
  H  3394  1  0.15748200  0.13879600  0.30269600  1
  H  3396  1  0.06874900  0.18542900  0.39481300  1
  H  3404  1  0.60087000  0.80280200  0.33657700  1
  H  3409  1  0.66280600  0.92212800  0.37840500  1
  H  3410  1  0.70751100  0.91120500  0.35695800  1
  H  3411  1  0.59681200  0.93960200  0.35006400  1
  H  3412  1  0.67158800  0.94891700  0.34854400  1
  H  3413  1  0.64500700  0.92951700  0.32931000  1
  H  3415  1  0.59418400  0.78984100  0.37471500  1
  H  3417  1  0.68045900  0.88204500  0.32760500  1
  H  3425  1  0.09948000  0.69876400  0.18909200  1
  H  3430  1  0.16297100  0.57956300  0.14702600  1
  H  3431  1  0.20743200  0.59009200  0.16874000  1
  H  3432  1  0.09510000  0.56242600  0.17498500  1
  H  3433  1  0.16933500  0.55258800  0.17679500  1
  H  3434  1  0.14311100  0.57208300  0.19599700  1
  H  3436  1  0.09384900  0.71183600  0.15094700  1
  H  3438  1  0.18067800  0.61965500  0.19801800  1
  H  3446  1  0.35379700  0.67656500  0.31549500  1
  H  3451  1  0.41882000  0.63303600  0.43400100  1
  H  3452  1  0.46389000  0.65435900  0.42303600  1
  H  3453  1  0.35535200  0.66158400  0.45246400  1
  H  3454  1  0.43070700  0.66227800  0.46121900  1
  H  3455  1  0.40429600  0.68211600  0.44240100  1
  H  3457  1  0.34528700  0.63881500  0.30205800  1
  H  3459  1  0.43453600  0.68471100  0.39459600  1
  H  3467  1  0.85217600  0.82509200  0.21005700  1
  H  3472  1  0.92030400  0.86854900  0.09177000  1
  H  3473  1  0.96429000  0.84686400  0.10261400  1
  H  3474  1  0.85488600  0.84052400  0.07341900  1
  H  3475  1  0.93003400  0.83926100  0.06448500  1
  H  3476  1  0.90282900  0.81961000  0.08334200  1
  H  3478  1  0.84454600  0.86282300  0.22357500  1
  H  3480  1  0.93434300  0.81684800  0.13111000  1
  H  3488  1  0.90354800  0.69780300  0.68868400  1
  H  3493  1  0.83248800  0.57974700  0.64501600  1
  H  3494  1  0.78905500  0.59016600  0.66705900  1
  H  3495  1  0.90019600  0.56169200  0.67250200  1
  H  3496  1  0.82558700  0.55223200  0.67419600  1
  H  3497  1  0.85276300  0.57116100  0.69378100  1
  H  3499  1  0.90978400  0.71145700  0.65093000  1
  H  3501  1  0.81896800  0.61909600  0.69692200  1
  H  3509  1  0.40169100  0.80383000  0.83695400  1
  H  3514  1  0.33297100  0.92201200  0.88054800  1
  H  3515  1  0.28912300  0.91119000  0.85881400  1
  H  3516  1  0.39846100  0.94044700  0.85260700  1
  H  3517  1  0.32328900  0.94934300  0.85130500  1
  H  3518  1  0.35067700  0.93054000  0.83163600  1
  H  3520  1  0.40891100  0.79026900  0.87471700  1
  H  3522  1  0.31903800  0.88272900  0.82882400  1
  H  3530  1  0.15159900  0.82455900  0.71082700  1
  H  3535  1  0.09101800  0.86631700  0.59139100  1
  H  3536  1  0.04598600  0.84498300  0.60235500  1
  H  3537  1  0.15657800  0.83780900  0.57397100  1
  H  3538  1  0.08177700  0.83641700  0.56466200  1
  H  3539  1  0.10808500  0.81717000  0.58410100  1
  H  3541  1  0.15856000  0.86271100  0.72374300  1
  H  3543  1  0.07276000  0.81556600  0.63150400  1
  H  3551  1  0.65319400  0.67712500  0.81496500  1
  H  3556  1  0.59058800  0.63506700  0.93422900  1
  H  3557  1  0.54587800  0.65670900  0.92369600  1
  H  3558  1  0.65818600  0.66313800  0.95133300  1
  H  3559  1  0.58395300  0.66483700  0.96118900  1
  H  3560  1  0.60991400  0.68407100  0.94167800  1
  H  3562  1  0.65906700  0.63897500  0.80191100  1
  H  3564  1  0.57243600  0.68604600  0.89413300  1
  H  3572  1  0.09860300  0.30288100  0.83684600  1
  H  3577  1  0.16635800  0.42142000  0.87976900  1
  H  3578  1  0.20845700  0.41109600  0.85733700  1
  H  3579  1  0.09591500  0.43902000  0.85304600  1
  H  3580  1  0.17004800  0.44870100  0.85016000  1
  H  3581  1  0.14124400  0.42945100  0.83120400  1
  H  3583  1  0.09266200  0.28933100  0.87464900  1
  H  3585  1  0.18062000  0.38196900  0.82843000  1
  H  3593  1  0.59696100  0.19872700  0.68895400  1
  H  3598  1  0.66654500  0.08031900  0.64595400  1
  H  3599  1  0.70803600  0.09021800  0.66873300  1
  H  3600  1  0.59381700  0.06310400  0.67209100  1
  H  3601  1  0.66726000  0.05288100  0.67546100  1
  H  3602  1  0.63847200  0.07225300  0.69429700  1
  H  3604  1  0.59193600  0.21235300  0.65115300  1
  H  3606  1  0.68058800  0.11978100  0.69745900  1
  H  3614  1  0.85071600  0.17693100  0.81460500  1
  H  3619  1  0.91478900  0.13408900  0.93348800  1
  H  3620  1  0.95821600  0.15610900  0.92301400  1
  H  3621  1  0.84634900  0.16149800  0.95111700  1
  H  3622  1  0.92077400  0.16374800  0.96066100  1
  H  3623  1  0.89299400  0.18289500  0.94139700  1
  H  3625  1  0.84356700  0.13912600  0.80118200  1
  H  3627  1  0.93079500  0.18537200  0.89389500  1
  H  3635  1  0.34934100  0.32465100  0.71097300  1
  H  3640  1  0.41564100  0.36747300  0.59228600  1
  H  3641  1  0.45808300  0.34513600  0.60263000  1
  H  3642  1  0.34551300  0.34058900  0.57475900  1
  H  3643  1  0.41965600  0.33782600  0.56505400  1
  H  3644  1  0.39117000  0.31884800  0.58434600  1
  H  3646  1  0.34313800  0.36247500  0.72445700  1
  H  3648  1  0.43047200  0.31617700  0.63177100  1
  N  8  1  0.44546900  0.09147900  0.96003100  1
  N  15  1  0.08364000  0.07926300  0.05060900  1
  N  17  1  0.25636700  0.12231700  0.98286200  1
  N  18  1  0.19296200  0.05376500  0.98609900  1
  N  42  1  0.94562800  0.41013200  0.04167700  1
  N  49  1  0.58457000  0.42290400  0.95085600  1
  N  51  1  0.75675500  0.37921000  0.01870400  1
  N  52  1  0.69295400  0.44758900  0.01592600  1
  N  76  1  0.69562000  0.29169600  0.84142000  1
  N  83  1  0.33437200  0.20092100  0.82910100  1
  N  85  1  0.50676500  0.26889400  0.87246300  1
  N  86  1  0.44282400  0.26583900  0.80407400  1
  N  110  1  0.19550500  0.21006800  0.16022400  1
  N  117  1  0.83387700  0.30070800  0.17246600  1
  N  119  1  0.00629200  0.23279500  0.12939200  1
  N  120  1  0.94294900  0.23614500  0.19798100  1
  N  144  1  0.55261800  0.90844100  0.03910300  1
  N  151  1  0.92487100  0.92234800  0.95493300  1
  N  153  1  0.74544100  0.87853300  0.01921800  1
  N  154  1  0.80789600  0.94630700  0.01818400  1
  N  178  1  0.05260600  0.59319700  0.96249200  1
  N  185  1  0.42413400  0.57938800  0.04705000  1
  N  187  1  0.24539500  0.62313000  0.98238500  1
  N  188  1  0.30853400  0.55557300  0.98337300  1
  N  212  1  0.30761700  0.70919800  0.16023200  1
  N  219  1  0.66900000  0.79996400  0.17243300  1
  N  221  1  0.49654300  0.73205300  0.12930900  1
  N  222  1  0.55996400  0.73539100  0.19793800  1
  N  246  1  0.80725300  0.79240200  0.84139800  1
  N  253  1  0.16864900  0.70172600  0.82903200  1
  N  255  1  0.99607000  0.76958700  0.87249400  1
  N  256  1  0.06011400  0.76670700  0.80419200  1
  N  280  1  0.94601100  0.59136100  0.45939300  1
  N  287  1  0.58453800  0.57913100  0.55007300  1
  N  289  1  0.75707800  0.62243200  0.48211500  1
  N  290  1  0.69312300  0.55405800  0.48520300  1
  N  314  1  0.44576500  0.91040100  0.54228800  1
  N  321  1  0.08430600  0.92230400  0.45151500  1
  N  323  1  0.25676400  0.87940200  0.51956700  1
  N  324  1  0.19302900  0.94794800  0.51611300  1
  N  348  1  0.20076100  0.78892300  0.34308600  1
  N  355  1  0.82839100  0.70482400  0.32939500  1
  N  357  1  0.00797900  0.76917600  0.37309400  1
  N  358  1  0.94528100  0.76805300  0.30532300  1
  N  382  1  0.70031100  0.71253500  0.65857700  1
  N  389  1  0.32901000  0.79724600  0.67222200  1
  N  391  1  0.50762800  0.73247400  0.62858600  1
  N  392  1  0.44446500  0.73354200  0.69607000  1
  N  416  1  0.05250800  0.40872200  0.53999700  1
  N  423  1  0.42405000  0.42195900  0.45534500  1
  N  425  1  0.24516000  0.37862200  0.52018700  1
  N  426  1  0.30845900  0.44618900  0.51885900  1
  N  450  1  0.55205900  0.09310500  0.46203600  1
  N  457  1  0.92444600  0.07964400  0.54614900  1
  N  459  1  0.74508900  0.12308900  0.48155000  1
  N  460  1  0.80802300  0.05531300  0.48289400  1
  N  484  1  0.80237500  0.21180700  0.65859200  1
  N  491  1  0.17410400  0.29625800  0.67223400  1
  N  493  1  0.99507800  0.23166000  0.62859400  1
  N  494  1  0.05816200  0.23275500  0.69625700  1
  N  518  1  0.30205000  0.28966000  0.34314600  1
  N  525  1  0.67464800  0.20565700  0.32958200  1
  N  527  1  0.49495100  0.26997300  0.37312700  1
  N  528  1  0.55760500  0.26877600  0.30531600  1
  N  546  1  0.99763300  0.02060800  0.00224800  1
  N  549  1  0.01275900  0.97787400  0.00589100  1
  N  562  1  0.91266200  0.97047900  0.99468600  1
  N  564  1  0.09526100  0.02940700  0.01266800  1
  N  567  1  0.49783400  0.48126300  0.99899700  1
  N  570  1  0.51397100  0.52400700  0.99673000  1
  N  583  1  0.41287100  0.53135100  0.00676800  1
  N  585  1  0.59616900  0.47241900  0.98967000  1
  N  588  1  0.24770100  0.24885700  0.77051700  1
  N  591  1  0.26369900  0.24618700  0.72778600  1
  N  604  1  0.16266900  0.25627900  0.72038800  1
  N  606  1  0.34596700  0.23944600  0.77939700  1
  N  609  1  0.74757300  0.25249300  0.23112000  1
  N  612  1  0.76258000  0.25632300  0.27384300  1
  N  625  1  0.66243900  0.24517400  0.28125000  1
  N  627  1  0.84526100  0.26284400  0.22231700  1
  N  630  1  0.01380500  0.48140400  0.00346000  1
  N  633  1  0.98256200  0.52332300  0.00312500  1
  N  646  1  0.08243700  0.53485400  0.99531800  1
  N  648  1  0.91532300  0.46894400  0.00992100  1
  N  651  1  0.51374000  0.02025200  0.99833600  1
  N  654  1  0.48275500  0.97830800  0.99829300  1
  N  667  1  0.58248200  0.96678900  0.00630900  1
  N  669  1  0.41527100  0.03267200  0.99172900  1
  N  672  1  0.76357500  0.25305500  0.77030100  1
  N  675  1  0.73245300  0.25277300  0.72837100  1
  N  688  1  0.83221700  0.24472400  0.71687900  1
  N  690  1  0.66519000  0.25977800  0.78272300  1
  N  693  1  0.26358800  0.24860300  0.23140100  1
  N  696  1  0.23262500  0.24857700  0.27334800  1
  N  709  1  0.33222400  0.25683600  0.28484300  1
  N  711  1  0.16521800  0.24178100  0.21900400  1
  N  714  1  0.75523300  0.75180000  0.23111600  1
  N  717  1  0.74015300  0.75552000  0.27383900  1
  N  730  1  0.84040200  0.74448200  0.28123600  1
  N  732  1  0.65750800  0.76206700  0.22230000  1
  N  735  1  0.25526300  0.74941100  0.77042100  1
  N  738  1  0.23879100  0.74735900  0.72769100  1
  N  751  1  0.34019100  0.75697400  0.72029600  1
  N  753  1  0.15673000  0.74047700  0.77934500  1
  N  756  1  0.23938700  0.74775000  0.23138500  1
  N  759  1  0.27043800  0.74786300  0.27332300  1
  N  772  1  0.17075600  0.75600100  0.28482300  1
  N  774  1  0.33778300  0.74103200  0.21897000  1
  N  777  1  0.73921600  0.75396400  0.77026200  1
  N  780  1  0.77060300  0.75326200  0.72836100  1
  N  793  1  0.67063800  0.74557600  0.71684000  1
  N  795  1  0.83773000  0.76035700  0.78272500  1
  N  798  1  0.49787100  0.52041300  0.50254800  1
  N  801  1  0.51412900  0.47769200  0.50500300  1
  N  814  1  0.41283700  0.47026400  0.49527800  1
  N  816  1  0.59634700  0.52934700  0.51158400  1
  N  819  1  0.99783500  0.98115100  0.49941400  1
  N  822  1  0.01316500  0.02386600  0.49582800  1
  N  835  1  0.91269500  0.03129800  0.50658500  1
  N  837  1  0.09572000  0.97229400  0.48940100  1
  N  840  1  0.51365900  0.98145700  0.50341100  1
  N  843  1  0.48271800  0.02340700  0.50333100  1
  N  856  1  0.58232000  0.03485800  0.49497400  1
  N  858  1  0.41535100  0.96908100  0.51036600  1
  N  861  1  0.01388100  0.52027100  0.49812100  1
  N  864  1  0.98255700  0.47836300  0.49877700  1
  N  877  1  0.08237000  0.46687500  0.50676800  1
  N  879  1  0.91546800  0.53270400  0.49147800  1
  N  882  1  0.37744600  0.16586700  0.93326600  1
  N  885  1  0.38766100  0.15864200  0.89038000  1
  N  898  1  0.41165200  0.19610600  0.88322100  1
  N  900  1  0.34752600  0.12971200  0.94067900  1
  N  903  1  0.87693700  0.33570100  0.06842800  1
  N  906  1  0.88840500  0.34308400  0.11124800  1
  N  919  1  0.91146800  0.30555500  0.11850000  1
  N  921  1  0.84778500  0.37189900  0.06096000  1
  N  924  1  0.62643400  0.31866500  0.91589800  1
  N  927  1  0.63829400  0.36146800  0.90848200  1
  N  940  1  0.66106000  0.36873300  0.94603200  1
  N  942  1  0.59764200  0.31117500  0.87966700  1
  N  945  1  0.12702900  0.18320900  0.08582000  1
  N  948  1  0.13736200  0.14033000  0.09306300  1
  N  961  1  0.16135600  0.13315900  0.05560100  1
  N  963  1  0.09727800  0.19063500  0.12198900  1
  N  966  1  0.62320100  0.83484000  0.06804700  1
  N  969  1  0.61360200  0.84225000  0.11092900  1
  N  982  1  0.59051000  0.80475500  0.11833600  1
  N  984  1  0.65236000  0.87106400  0.06041700  1
  N  987  1  0.12260000  0.66679200  0.93359700  1
  N  990  1  0.11437300  0.65950900  0.89065300  1
  N  1003  1  0.09035200  0.69692800  0.88330400  1
  N  1005  1  0.15251900  0.63062700  0.94120000  1
  N  1008  1  0.37651100  0.68269400  0.08557300  1
  N  1011  1  0.36715600  0.63971900  0.09245400  1
  N  1024  1  0.34347600  0.63281700  0.05487600  1
  N  1026  1  0.40588400  0.68991300  0.12181800  1
  N  1029  1  0.87550000  0.81895400  0.91605200  1
  N  1032  1  0.86784600  0.86198800  0.90926900  1
  N  1045  1  0.84340000  0.86888600  0.94678500  1
  N  1047  1  0.90556600  0.81169800  0.87988000  1
  N  1050  1  0.87911800  0.66590000  0.43281100  1
  N  1053  1  0.88490000  0.65926500  0.38971600  1
  N  1066  1  0.91059200  0.69667100  0.38284800  1
  N  1068  1  0.84784000  0.62983700  0.44006300  1
  N  1071  1  0.37819000  0.83583300  0.56885700  1
  N  1074  1  0.38583700  0.84257400  0.61189700  1
  N  1087  1  0.41040600  0.80507000  0.61876200  1
  N  1089  1  0.34782500  0.87198600  0.56164600  1
  N  1092  1  0.12957900  0.81801000  0.41676500  1
  N  1095  1  0.13969900  0.86087100  0.40932000  1
  N  1108  1  0.16245900  0.86829800  0.44683200  1
  N  1110  1  0.10082900  0.81037700  0.38050400  1
  N  1113  1  0.63022900  0.68362400  0.58495900  1
  N  1116  1  0.63879000  0.64069300  0.59226200  1
  N  1129  1  0.66262800  0.63333900  0.55482800  1
  N  1131  1  0.60052700  0.69122800  0.62114700  1
  N  1134  1  0.12202400  0.33486600  0.56861000  1
  N  1137  1  0.11621100  0.34160900  0.61169700  1
  N  1150  1  0.09167400  0.30413200  0.61870500  1
  N  1152  1  0.15231000  0.37105400  0.56125800  1
  N  1155  1  0.62120700  0.16683000  0.43322300  1
  N  1158  1  0.61704700  0.16018100  0.39009700  1
  N  1171  1  0.59149800  0.19756300  0.38307400  1
  N  1173  1  0.65228000  0.13071200  0.44061300  1
  N  1176  1  0.87331400  0.18320200  0.58467000  1
  N  1179  1  0.86591800  0.14017100  0.59155300  1
  N  1192  1  0.84231900  0.13311300  0.55400200  1
  N  1194  1  0.90259800  0.19056300  0.62095200  1
  N  1197  1  0.37245300  0.31838200  0.41696800  1
  N  1200  1  0.36613900  0.36144700  0.41015600  1
  N  1213  1  0.34190000  0.36849300  0.44765100  1
  N  1215  1  0.40230200  0.31100100  0.38074100  1
  N  2440  1  0.44546900  0.09147900  0.22202500  1
  N  2447  1  0.08364000  0.07926300  0.31260300  1
  N  2449  1  0.25636700  0.12231700  0.24485600  1
  N  2450  1  0.19296200  0.05376500  0.24809300  1
  N  2474  1  0.94562800  0.41013200  0.30367100  1
  N  2481  1  0.58457000  0.42290400  0.21285000  1
  N  2483  1  0.75675500  0.37921000  0.28069800  1
  N  2484  1  0.69295400  0.44758900  0.27792000  1
  N  2508  1  0.69562000  0.29169600  0.10341400  1
  N  2515  1  0.33437200  0.20092100  0.09109500  1
  N  2517  1  0.50676500  0.26889400  0.13445700  1
  N  2518  1  0.44282400  0.26583900  0.06606800  1
  N  2542  1  0.19550500  0.21006800  0.42221800  1
  N  2549  1  0.83387700  0.30070800  0.43446000  1
  N  2551  1  0.00629200  0.23279500  0.39138600  1
  N  2552  1  0.94294900  0.23614500  0.45997500  1
  N  2576  1  0.55261800  0.90844100  0.30109700  1
  N  2583  1  0.92487100  0.92234800  0.21692700  1
  N  2585  1  0.74544100  0.87853300  0.28121200  1
  N  2586  1  0.80789600  0.94630700  0.28017800  1
  N  2610  1  0.05260600  0.59319700  0.22448600  1
  N  2617  1  0.42413400  0.57938800  0.30904400  1
  N  2619  1  0.24539500  0.62313000  0.24437900  1
  N  2620  1  0.30853400  0.55557300  0.24536700  1
  N  2644  1  0.30761700  0.70919800  0.42222600  1
  N  2651  1  0.66900000  0.79996400  0.43442700  1
  N  2653  1  0.49654300  0.73205300  0.39130300  1
  N  2654  1  0.55996400  0.73539100  0.45993200  1
  N  2678  1  0.80725300  0.79240200  0.10339200  1
  N  2685  1  0.16864900  0.70172600  0.09102600  1
  N  2687  1  0.99607000  0.76958700  0.13448800  1
  N  2688  1  0.06011400  0.76670700  0.06618600  1
  N  2712  1  0.94601100  0.59136100  0.72138700  1
  N  2719  1  0.58453800  0.57913100  0.81206700  1
  N  2721  1  0.75707800  0.62243200  0.74410900  1
  N  2722  1  0.69312300  0.55405800  0.74719700  1
  N  2746  1  0.44576500  0.91040100  0.80428200  1
  N  2753  1  0.08430600  0.92230400  0.71350900  1
  N  2755  1  0.25676400  0.87940200  0.78156100  1
  N  2756  1  0.19302900  0.94794800  0.77810700  1
  N  2780  1  0.20076100  0.78892300  0.60508000  1
  N  2787  1  0.82839100  0.70482400  0.59138900  1
  N  2789  1  0.00797900  0.76917600  0.63508800  1
  N  2790  1  0.94528100  0.76805300  0.56731700  1
  N  2814  1  0.70031100  0.71253500  0.92057100  1
  N  2821  1  0.32901000  0.79724600  0.93421600  1
  N  2823  1  0.50762800  0.73247400  0.89058000  1
  N  2824  1  0.44446500  0.73354200  0.95806400  1
  N  2848  1  0.05250800  0.40872200  0.80199100  1
  N  2855  1  0.42405000  0.42195900  0.71733900  1
  N  2857  1  0.24516000  0.37862200  0.78218100  1
  N  2858  1  0.30845900  0.44618900  0.78085300  1
  N  2882  1  0.55205900  0.09310500  0.72403000  1
  N  2889  1  0.92444600  0.07964400  0.80814300  1
  N  2891  1  0.74508900  0.12308900  0.74354400  1
  N  2892  1  0.80802300  0.05531300  0.74488800  1
  N  2916  1  0.80237500  0.21180700  0.92058600  1
  N  2923  1  0.17410400  0.29625800  0.93422800  1
  N  2925  1  0.99507800  0.23166000  0.89058800  1
  N  2926  1  0.05816200  0.23275500  0.95825100  1
  N  2950  1  0.30205000  0.28966000  0.60514000  1
  N  2957  1  0.67464800  0.20565700  0.59157600  1
  N  2959  1  0.49495100  0.26997300  0.63512100  1
  N  2960  1  0.55760500  0.26877600  0.56731000  1
  N  2978  1  0.99763300  0.02060800  0.26424200  1
  N  2981  1  0.01275900  0.97787400  0.26788500  1
  N  2994  1  0.91266200  0.97047900  0.25668000  1
  N  2996  1  0.09526100  0.02940700  0.27466200  1
  N  2999  1  0.49783400  0.48126300  0.26099100  1
  N  3002  1  0.51397100  0.52400700  0.25872400  1
  N  3015  1  0.41287100  0.53135100  0.26876200  1
  N  3017  1  0.59616900  0.47241900  0.25166400  1
  N  3020  1  0.24770100  0.24885700  0.03251100  1
  N  3023  1  0.26369900  0.24618700  0.98978000  1
  N  3036  1  0.16266900  0.25627900  0.98238200  1
  N  3038  1  0.34596700  0.23944600  0.04139100  1
  N  3041  1  0.74757300  0.25249300  0.49311400  1
  N  3044  1  0.76258000  0.25632300  0.53583700  1
  N  3057  1  0.66243900  0.24517400  0.54324400  1
  N  3059  1  0.84526100  0.26284400  0.48431100  1
  N  3062  1  0.01380500  0.48140400  0.26545400  1
  N  3065  1  0.98256200  0.52332300  0.26511900  1
  N  3078  1  0.08243700  0.53485400  0.25731200  1
  N  3080  1  0.91532300  0.46894400  0.27191500  1
  N  3083  1  0.51374000  0.02025200  0.26033000  1
  N  3086  1  0.48275500  0.97830800  0.26028700  1
  N  3099  1  0.58248200  0.96678900  0.26830300  1
  N  3101  1  0.41527100  0.03267200  0.25372300  1
  N  3104  1  0.76357500  0.25305500  0.03229500  1
  N  3107  1  0.73245300  0.25277300  0.99036500  1
  N  3120  1  0.83221700  0.24472400  0.97887300  1
  N  3122  1  0.66519000  0.25977800  0.04471700  1
  N  3125  1  0.26358800  0.24860300  0.49339500  1
  N  3128  1  0.23262500  0.24857700  0.53534200  1
  N  3141  1  0.33222400  0.25683600  0.54683700  1
  N  3143  1  0.16521800  0.24178100  0.48099800  1
  N  3146  1  0.75523300  0.75180000  0.49311000  1
  N  3149  1  0.74015300  0.75552000  0.53583300  1
  N  3162  1  0.84040200  0.74448200  0.54323000  1
  N  3164  1  0.65750800  0.76206700  0.48429400  1
  N  3167  1  0.25526300  0.74941100  0.03241500  1
  N  3170  1  0.23879100  0.74735900  0.98968500  1
  N  3183  1  0.34019100  0.75697400  0.98229000  1
  N  3185  1  0.15673000  0.74047700  0.04133900  1
  N  3188  1  0.23938700  0.74775000  0.49337900  1
  N  3191  1  0.27043800  0.74786300  0.53531700  1
  N  3204  1  0.17075600  0.75600100  0.54681700  1
  N  3206  1  0.33778300  0.74103200  0.48096400  1
  N  3209  1  0.73921600  0.75396400  0.03225600  1
  N  3212  1  0.77060300  0.75326200  0.99035500  1
  N  3225  1  0.67063800  0.74557600  0.97883400  1
  N  3227  1  0.83773000  0.76035700  0.04471900  1
  N  3230  1  0.49787100  0.52041300  0.76454200  1
  N  3233  1  0.51412900  0.47769200  0.76699700  1
  N  3246  1  0.41283700  0.47026400  0.75727200  1
  N  3248  1  0.59634700  0.52934700  0.77357800  1
  N  3251  1  0.99783500  0.98115100  0.76140800  1
  N  3254  1  0.01316500  0.02386600  0.75782200  1
  N  3267  1  0.91269500  0.03129800  0.76857900  1
  N  3269  1  0.09572000  0.97229400  0.75139500  1
  N  3272  1  0.51365900  0.98145700  0.76540500  1
  N  3275  1  0.48271800  0.02340700  0.76532500  1
  N  3288  1  0.58232000  0.03485800  0.75696800  1
  N  3290  1  0.41535100  0.96908100  0.77236000  1
  N  3293  1  0.01388100  0.52027100  0.76011500  1
  N  3296  1  0.98255700  0.47836300  0.76077100  1
  N  3309  1  0.08237000  0.46687500  0.76876200  1
  N  3311  1  0.91546800  0.53270400  0.75347200  1
  N  3314  1  0.37744600  0.16586700  0.19526000  1
  N  3317  1  0.38766100  0.15864200  0.15237400  1
  N  3330  1  0.41165200  0.19610600  0.14521500  1
  N  3332  1  0.34752600  0.12971200  0.20267300  1
  N  3335  1  0.87693700  0.33570100  0.33042200  1
  N  3338  1  0.88840500  0.34308400  0.37324200  1
  N  3351  1  0.91146800  0.30555500  0.38049400  1
  N  3353  1  0.84778500  0.37189900  0.32295400  1
  N  3356  1  0.62643400  0.31866500  0.17789200  1
  N  3359  1  0.63829400  0.36146800  0.17047600  1
  N  3372  1  0.66106000  0.36873300  0.20802600  1
  N  3374  1  0.59764200  0.31117500  0.14166100  1
  N  3377  1  0.12702900  0.18320900  0.34781400  1
  N  3380  1  0.13736200  0.14033000  0.35505700  1
  N  3393  1  0.16135600  0.13315900  0.31759500  1
  N  3395  1  0.09727800  0.19063500  0.38398300  1
  N  3398  1  0.62320100  0.83484000  0.33004100  1
  N  3401  1  0.61360200  0.84225000  0.37292300  1
  N  3414  1  0.59051000  0.80475500  0.38033000  1
  N  3416  1  0.65236000  0.87106400  0.32241100  1
  N  3419  1  0.12260000  0.66679200  0.19559100  1
  N  3422  1  0.11437300  0.65950900  0.15264700  1
  N  3435  1  0.09035200  0.69692800  0.14529800  1
  N  3437  1  0.15251900  0.63062700  0.20319400  1
  N  3440  1  0.37651100  0.68269400  0.34756700  1
  N  3443  1  0.36715600  0.63971900  0.35444800  1
  N  3456  1  0.34347600  0.63281700  0.31687000  1
  N  3458  1  0.40588400  0.68991300  0.38381200  1
  N  3461  1  0.87550000  0.81895400  0.17804600  1
  N  3464  1  0.86784600  0.86198800  0.17126300  1
  N  3477  1  0.84340000  0.86888600  0.20877900  1
  N  3479  1  0.90556600  0.81169800  0.14187400  1
  N  3482  1  0.87911800  0.66590000  0.69480500  1
  N  3485  1  0.88490000  0.65926500  0.65171000  1
  N  3498  1  0.91059200  0.69667100  0.64484200  1
  N  3500  1  0.84784000  0.62983700  0.70205700  1
  N  3503  1  0.37819000  0.83583300  0.83085100  1
  N  3506  1  0.38583700  0.84257400  0.87389100  1
  N  3519  1  0.41040600  0.80507000  0.88075600  1
  N  3521  1  0.34782500  0.87198600  0.82364000  1
  N  3524  1  0.12957900  0.81801000  0.67875900  1
  N  3527  1  0.13969900  0.86087100  0.67131400  1
  N  3540  1  0.16245900  0.86829800  0.70882600  1
  N  3542  1  0.10082900  0.81037700  0.64249800  1
  N  3545  1  0.63022900  0.68362400  0.84695300  1
  N  3548  1  0.63879000  0.64069300  0.85425600  1
  N  3561  1  0.66262800  0.63333900  0.81682200  1
  N  3563  1  0.60052700  0.69122800  0.88314100  1
  N  3566  1  0.12202400  0.33486600  0.83060400  1
  N  3569  1  0.11621100  0.34160900  0.87369100  1
  N  3582  1  0.09167400  0.30413200  0.88069900  1
  N  3584  1  0.15231000  0.37105400  0.82325200  1
  N  3587  1  0.62120700  0.16683000  0.69521700  1
  N  3590  1  0.61704700  0.16018100  0.65209100  1
  N  3603  1  0.59149800  0.19756300  0.64506800  1
  N  3605  1  0.65228000  0.13071200  0.70260700  1
  N  3608  1  0.87331400  0.18320200  0.84666400  1
  N  3611  1  0.86591800  0.14017100  0.85354700  1
  N  3624  1  0.84231900  0.13311300  0.81599600  1
  N  3626  1  0.90259800  0.19056300  0.88294600  1
  N  3629  1  0.37245300  0.31838200  0.67896200  1
  N  3632  1  0.36613900  0.36144700  0.67215000  1
  N  3645  1  0.34190000  0.36849300  0.70964500  1
  N  3647  1  0.40230200  0.31100100  0.64273500  1
  O  31  1  0.18186900  0.10197600  0.07765700  1
  O  32  1  0.03379900  0.06086600  0.01153500  1
  O  33  1  0.48461000  0.06136800  0.99103300  1
  O  34  1  0.41204900  0.14027000  0.96944400  1
  O  65  1  0.68277000  0.39981400  0.92397700  1
  O  66  1  0.53401400  0.44111900  0.98967000  1
  O  67  1  0.98475200  0.44028400  0.01072600  1
  O  68  1  0.91245900  0.36135500  0.03225100  1
  O  99  1  0.43253700  0.17406900  0.85206300  1
  O  100  1  0.28389800  0.23973600  0.81072400  1
  O  101  1  0.73460400  0.26055500  0.81139200  1
  O  102  1  0.66216100  0.28250000  0.89034000  1
  O  133  1  0.93236900  0.32763000  0.14964100  1
  O  134  1  0.78385400  0.26167000  0.19085400  1
  O  135  1  0.23454500  0.24116200  0.19029800  1
  O  136  1  0.16177300  0.21937100  0.11135600  1
  O  167  1  0.83044800  0.90101800  0.92531500  1
  O  168  1  0.97013600  0.93812600  0.99580400  1
  O  169  1  0.51540600  0.93743000  0.00669100  1
  O  170  1  0.58918300  0.85992100  0.03146100  1
  O  201  1  0.32878100  0.60081100  0.07640000  1
  O  202  1  0.47047500  0.56367800  0.00642100  1
  O  203  1  0.01545300  0.56422300  0.99490400  1
  O  204  1  0.08915800  0.64172500  0.97013500  1
  O  235  1  0.57100500  0.82687400  0.14955900  1
  O  236  1  0.71903900  0.76099200  0.19085800  1
  O  237  1  0.26842500  0.74028700  0.19028300  1
  O  238  1  0.34097100  0.71856200  0.11137000  1
  O  269  1  0.07110000  0.67482700  0.85205600  1
  O  270  1  0.21902300  0.74048100  0.81061100  1
  O  271  1  0.76827700  0.76130000  0.81136400  1
  O  272  1  0.84031800  0.78310100  0.89029600  1
  O  303  1  0.68219800  0.60212300  0.57693700  1
  O  304  1  0.53417200  0.56065100  0.51133000  1
  O  305  1  0.98495400  0.56133500  0.49048900  1
  O  306  1  0.91316000  0.64014600  0.46869700  1
  O  337  1  0.18269800  0.89944600  0.42468900  1
  O  338  1  0.03408600  0.94087200  0.49038700  1
  O  339  1  0.48474100  0.94040100  0.51114800  1
  O  340  1  0.41279100  0.86164100  0.53293600  1
  O  371  1  0.92267200  0.67521400  0.35067200  1
  O  372  1  0.78304800  0.74567100  0.31361000  1
  O  373  1  0.23777900  0.75635500  0.31419300  1
  O  374  1  0.16398900  0.78147400  0.39171700  1
  O  405  1  0.42420600  0.82656100  0.65083200  1
  O  406  1  0.28256200  0.75666300  0.68798100  1
  O  407  1  0.73760400  0.74500600  0.68747700  1
  O  408  1  0.66375600  0.72018200  0.60999900  1
  O  439  1  0.32903200  0.40056100  0.42608200  1
  O  440  1  0.47037500  0.43792800  0.49587700  1
  O  441  1  0.01531600  0.43753800  0.50745900  1
  O  442  1  0.08856600  0.36020100  0.53234500  1
  O  473  1  0.82964600  0.10101800  0.57555500  1
  O  474  1  0.97012000  0.06365900  0.50545300  1
  O  475  1  0.51534200  0.06424200  0.49464000  1
  O  476  1  0.58850000  0.14160600  0.46952100  1
  O  507  1  0.07946300  0.32564000  0.65084200  1
  O  508  1  0.22019700  0.25562900  0.68804700  1
  O  509  1  0.76527500  0.24433700  0.68749700  1
  O  510  1  0.83890700  0.21942000  0.60999500  1
  O  541  1  0.58068800  0.17606200  0.35087200  1
  O  542  1  0.71978500  0.24649400  0.31361600  1
  O  543  1  0.26518500  0.25711600  0.31421100  1
  O  544  1  0.33873000  0.28209700  0.39175300  1
  O  553  1  0.10966000  0.95961300  0.01989900  1
  O  554  1  0.16594400  0.98770900  0.01571300  1
  O  574  1  0.61465000  0.54256000  0.98736500  1
  O  575  1  0.66793900  0.51371600  0.98701100  1
  O  595  1  0.36395600  0.23615300  0.70929100  1
  O  596  1  0.41759600  0.23655100  0.73805500  1
  O  616  1  0.85940200  0.27045000  0.29206800  1
  O  617  1  0.91582400  0.26599900  0.26404900  1
  O  637  1  0.86834600  0.53412700  0.00409200  1
  O  638  1  0.86077700  0.51131400  0.03102700  1
  O  658  1  0.36880800  0.96752200  0.99715700  1
  O  659  1  0.36240300  0.99038100  0.96994700  1
  O  679  1  0.61840700  0.25369000  0.71770100  1
  O  680  1  0.61064200  0.28098200  0.74034900  1
  O  700  1  0.11866400  0.24679800  0.28431100  1
  O  701  1  0.11204600  0.22002700  0.26127800  1
  O  721  1  0.64296300  0.76919900  0.29213300  1
  O  722  1  0.58682400  0.76527900  0.26397500  1
  O  742  1  0.13710500  0.73932700  0.70921100  1
  O  743  1  0.08465700  0.73768600  0.73819100  1
  O  763  1  0.38444000  0.74626200  0.28426500  1
  O  764  1  0.39142300  0.71950100  0.26123400  1
  O  784  1  0.88480600  0.75352200  0.71777200  1
  O  785  1  0.89225500  0.78104500  0.74022300  1
  O  805  1  0.61532700  0.45921500  0.51376800  1
  O  806  1  0.66824600  0.48812700  0.51450200  1
  O  826  1  0.11087100  0.04217400  0.48268600  1
  O  827  1  0.16665200  0.01388700  0.48624600  1
  O  847  1  0.36884100  0.03419100  0.50478700  1
  O  848  1  0.36159600  0.01136400  0.53194300  1
  O  868  1  0.86834000  0.46756400  0.49773600  1
  O  869  1  0.86090000  0.49024000  0.47067900  1
  O  889  1  0.36761400  0.12032200  0.87283900  1
  O  890  1  0.37728900  0.10287800  0.90357900  1
  O  910  1  0.87252800  0.38183000  0.12857000  1
  O  911  1  0.87791400  0.39895800  0.09775900  1
  O  931  1  0.62287100  0.37875600  0.86969400  1
  O  932  1  0.62810800  0.34792000  0.85261000  1
  O  952  1  0.11739100  0.12280100  0.13139500  1
  O  953  1  0.12721000  0.15354600  0.14881900  1
  O  973  1  0.63306900  0.88083800  0.12818300  1
  O  974  1  0.62119300  0.89793000  0.09756700  1
  O  994  1  0.13782600  0.62131400  0.87330600  1
  O  995  1  0.12188700  0.60395500  0.90377100  1
  O  1015  1  0.38631200  0.62205400  0.13075800  1
  O  1016  1  0.37666200  0.65254800  0.14848100  1
  O  1036  1  0.88866100  0.87970700  0.87099000  1
  O  1037  1  0.87738600  0.84935300  0.85337800  1
  O  1057  1  0.85923700  0.62146900  0.37192800  1
  O  1058  1  0.87516600  0.60352600  0.40206100  1
  O  1078  1  0.36472400  0.88080700  0.62966300  1
  O  1079  1  0.37605300  0.89846500  0.59933900  1
  O  1099  1  0.12104200  0.87810400  0.37067100  1
  O  1100  1  0.13234300  0.84743400  0.35363000  1
  O  1120  1  0.61583400  0.62334700  0.63049500  1
  O  1121  1  0.63143300  0.65384800  0.64782400  1
  O  1141  1  0.14056000  0.37969600  0.62931600  1
  O  1142  1  0.12312100  0.39730700  0.59933100  1
  O  1162  1  0.64560100  0.12250800  0.37252900  1
  O  1163  1  0.62369000  0.10465300  0.40222100  1
  O  1183  1  0.88830700  0.12263300  0.62972400  1
  O  1184  1  0.87246600  0.15283900  0.64740000  1
  O  1204  1  0.38974900  0.37904000  0.37199900  1
  O  1205  1  0.37273800  0.34898600  0.35445500  1
  O  2463  1  0.18186900  0.10197600  0.33965100  1
  O  2464  1  0.03379900  0.06086600  0.27352900  1
  O  2465  1  0.48461000  0.06136800  0.25302700  1
  O  2466  1  0.41204900  0.14027000  0.23143800  1
  O  2497  1  0.68277000  0.39981400  0.18597100  1
  O  2498  1  0.53401400  0.44111900  0.25166400  1
  O  2499  1  0.98475200  0.44028400  0.27272000  1
  O  2500  1  0.91245900  0.36135500  0.29424500  1
  O  2531  1  0.43253700  0.17406900  0.11405700  1
  O  2532  1  0.28389800  0.23973600  0.07271800  1
  O  2533  1  0.73460400  0.26055500  0.07338600  1
  O  2534  1  0.66216100  0.28250000  0.15233400  1
  O  2565  1  0.93236900  0.32763000  0.41163500  1
  O  2566  1  0.78385400  0.26167000  0.45284800  1
  O  2567  1  0.23454500  0.24116200  0.45229200  1
  O  2568  1  0.16177300  0.21937100  0.37335000  1
  O  2599  1  0.83044800  0.90101800  0.18730900  1
  O  2600  1  0.97013600  0.93812600  0.25779800  1
  O  2601  1  0.51540600  0.93743000  0.26868500  1
  O  2602  1  0.58918300  0.85992100  0.29345500  1
  O  2633  1  0.32878100  0.60081100  0.33839400  1
  O  2634  1  0.47047500  0.56367800  0.26841500  1
  O  2635  1  0.01545300  0.56422300  0.25689800  1
  O  2636  1  0.08915800  0.64172500  0.23212900  1
  O  2667  1  0.57100500  0.82687400  0.41155300  1
  O  2668  1  0.71903900  0.76099200  0.45285200  1
  O  2669  1  0.26842500  0.74028700  0.45227700  1
  O  2670  1  0.34097100  0.71856200  0.37336400  1
  O  2701  1  0.07110000  0.67482700  0.11405000  1
  O  2702  1  0.21902300  0.74048100  0.07260500  1
  O  2703  1  0.76827700  0.76130000  0.07335800  1
  O  2704  1  0.84031800  0.78310100  0.15229000  1
  O  2735  1  0.68219800  0.60212300  0.83893100  1
  O  2736  1  0.53417200  0.56065100  0.77332400  1
  O  2737  1  0.98495400  0.56133500  0.75248300  1
  O  2738  1  0.91316000  0.64014600  0.73069100  1
  O  2769  1  0.18269800  0.89944600  0.68668300  1
  O  2770  1  0.03408600  0.94087200  0.75238100  1
  O  2771  1  0.48474100  0.94040100  0.77314200  1
  O  2772  1  0.41279100  0.86164100  0.79493000  1
  O  2803  1  0.92267200  0.67521400  0.61266600  1
  O  2804  1  0.78304800  0.74567100  0.57560400  1
  O  2805  1  0.23777900  0.75635500  0.57618700  1
  O  2806  1  0.16398900  0.78147400  0.65371100  1
  O  2837  1  0.42420600  0.82656100  0.91282600  1
  O  2838  1  0.28256200  0.75666300  0.94997500  1
  O  2839  1  0.73760400  0.74500600  0.94947100  1
  O  2840  1  0.66375600  0.72018200  0.87199300  1
  O  2871  1  0.32903200  0.40056100  0.68807600  1
  O  2872  1  0.47037500  0.43792800  0.75787100  1
  O  2873  1  0.01531600  0.43753800  0.76945300  1
  O  2874  1  0.08856600  0.36020100  0.79433900  1
  O  2905  1  0.82964600  0.10101800  0.83754900  1
  O  2906  1  0.97012000  0.06365900  0.76744700  1
  O  2907  1  0.51534200  0.06424200  0.75663400  1
  O  2908  1  0.58850000  0.14160600  0.73151500  1
  O  2939  1  0.07946300  0.32564000  0.91283600  1
  O  2940  1  0.22019700  0.25562900  0.95004100  1
  O  2941  1  0.76527500  0.24433700  0.94949100  1
  O  2942  1  0.83890700  0.21942000  0.87198900  1
  O  2973  1  0.58068800  0.17606200  0.61286600  1
  O  2974  1  0.71978500  0.24649400  0.57561000  1
  O  2975  1  0.26518500  0.25711600  0.57620500  1
  O  2976  1  0.33873000  0.28209700  0.65374700  1
  O  2985  1  0.10966000  0.95961300  0.28189300  1
  O  2986  1  0.16594400  0.98770900  0.27770700  1
  O  3006  1  0.61465000  0.54256000  0.24935900  1
  O  3007  1  0.66793900  0.51371600  0.24900500  1
  O  3027  1  0.36395600  0.23615300  0.97128500  1
  O  3028  1  0.41759600  0.23655100  0.00004900  1
  O  3048  1  0.85940200  0.27045000  0.55406200  1
  O  3049  1  0.91582400  0.26599900  0.52604300  1
  O  3069  1  0.86834600  0.53412700  0.26608600  1
  O  3070  1  0.86077700  0.51131400  0.29302100  1
  O  3090  1  0.36880800  0.96752200  0.25915100  1
  O  3091  1  0.36240300  0.99038100  0.23194100  1
  O  3111  1  0.61840700  0.25369000  0.97969500  1
  O  3112  1  0.61064200  0.28098200  0.00234300  1
  O  3132  1  0.11866400  0.24679800  0.54630500  1
  O  3133  1  0.11204600  0.22002700  0.52327200  1
  O  3153  1  0.64296300  0.76919900  0.55412700  1
  O  3154  1  0.58682400  0.76527900  0.52596900  1
  O  3174  1  0.13710500  0.73932700  0.97120500  1
  O  3175  1  0.08465700  0.73768600  0.00018500  1
  O  3195  1  0.38444000  0.74626200  0.54625900  1
  O  3196  1  0.39142300  0.71950100  0.52322800  1
  O  3216  1  0.88480600  0.75352200  0.97976600  1
  O  3217  1  0.89225500  0.78104500  0.00221700  1
  O  3237  1  0.61532700  0.45921500  0.77576200  1
  O  3238  1  0.66824600  0.48812700  0.77649600  1
  O  3258  1  0.11087100  0.04217400  0.74468000  1
  O  3259  1  0.16665200  0.01388700  0.74824000  1
  O  3279  1  0.36884100  0.03419100  0.76678100  1
  O  3280  1  0.36159600  0.01136400  0.79393700  1
  O  3300  1  0.86834000  0.46756400  0.75973000  1
  O  3301  1  0.86090000  0.49024000  0.73267300  1
  O  3321  1  0.36761400  0.12032200  0.13483300  1
  O  3322  1  0.37728900  0.10287800  0.16557300  1
  O  3342  1  0.87252800  0.38183000  0.39056400  1
  O  3343  1  0.87791400  0.39895800  0.35975300  1
  O  3363  1  0.62287100  0.37875600  0.13168800  1
  O  3364  1  0.62810800  0.34792000  0.11460400  1
  O  3384  1  0.11739100  0.12280100  0.39338900  1
  O  3385  1  0.12721000  0.15354600  0.41081300  1
  O  3405  1  0.63306900  0.88083800  0.39017700  1
  O  3406  1  0.62119300  0.89793000  0.35956100  1
  O  3426  1  0.13782600  0.62131400  0.13530000  1
  O  3427  1  0.12188700  0.60395500  0.16576500  1
  O  3447  1  0.38631200  0.62205400  0.39275200  1
  O  3448  1  0.37666200  0.65254800  0.41047500  1
  O  3468  1  0.88866100  0.87970700  0.13298400  1
  O  3469  1  0.87738600  0.84935300  0.11537200  1
  O  3489  1  0.85923700  0.62146900  0.63392200  1
  O  3490  1  0.87516600  0.60352600  0.66405500  1
  O  3510  1  0.36472400  0.88080700  0.89165700  1
  O  3511  1  0.37605300  0.89846500  0.86133300  1
  O  3531  1  0.12104200  0.87810400  0.63266500  1
  O  3532  1  0.13234300  0.84743400  0.61562400  1
  O  3552  1  0.61583400  0.62334700  0.89248900  1
  O  3553  1  0.63143300  0.65384800  0.90981800  1
  O  3573  1  0.14056000  0.37969600  0.89131000  1
  O  3574  1  0.12312100  0.39730700  0.86132500  1
  O  3594  1  0.64560100  0.12250800  0.63452300  1
  O  3595  1  0.62369000  0.10465300  0.66421500  1
  O  3615  1  0.88830700  0.12263300  0.89171800  1
  O  3616  1  0.87246600  0.15283900  0.90939400  1
  O  3636  1  0.38974900  0.37904000  0.63399300  1
  O  3637  1  0.37273800  0.34898600  0.61644900  1
