# generated using pymatgen
data_H2C3
_symmetry_space_group_name_H-M   'P 1'
_cell_length_a   38.83720628
_cell_length_b   38.86076188
_cell_length_c   56.29080000
_cell_angle_alpha   90.00000000
_cell_angle_beta   90.00000000
_cell_angle_gamma   113.21049240
_symmetry_Int_Tables_number   1
_chemical_formula_structural   H2C3
_chemical_formula_sum   'H432 C648'
_cell_volume   78080.40945172
_cell_formula_units_Z   216
loop_
 _symmetry_equiv_pos_site_id
 _symmetry_equiv_pos_as_xyz
  1  'x, y, z'
loop_
 _atom_site_type_symbol
 _atom_site_label
 _atom_site_symmetry_multiplicity
 _atom_site_fract_x
 _atom_site_fract_y
 _atom_site_fract_z
 _atom_site_occupancy
  C  1  1  0.96544300  0.49469200  0.85771050  1
  C  2  1  0.96634150  0.49443150  0.88285650  1
  C  3  1  0.00012350  0.51024850  0.89600950  1
  C  4  1  0.03390550  0.52606950  0.88285750  1
  C  5  1  0.03480500  0.52581100  0.85771150  1
  C  6  1  0.00012350  0.51025250  0.84557350  1
  C  7  1  0.00012200  0.51024800  0.92163500  1
  C  8  1  0.97051400  0.51354900  0.93486650  1
  C  9  1  0.97031700  0.51313400  0.95987850  1
  C  10  1  0.00012550  0.51024950  0.97310900  1
  C  11  1  0.02992900  0.50735900  0.95987800  1
  C  12  1  0.02973150  0.50694650  0.93486600  1
  C  13  1  0.93056300  0.48000900  0.84499800  1
  C  14  1  0.89923800  0.48711100  0.85268250  1
  C  15  1  0.86527500  0.47356700  0.83993450  1
  C  16  1  0.86104500  0.45228200  0.81890100  1
  C  17  1  0.89235550  0.44512650  0.81125850  1
  C  18  1  0.92628700  0.45862400  0.82401100  1
  C  19  1  0.06968550  0.54049650  0.84499850  1
  C  20  1  0.07396150  0.56188850  0.82401450  1
  C  21  1  0.10789150  0.57538750  0.81126150  1
  C  22  1  0.13920100  0.56822800  0.81890050  1
  C  23  1  0.13497400  0.54694200  0.83993450  1
  C  24  1  0.10101300  0.53339900  0.85268400  1
  C  79  1  0.48874700  0.97552500  0.61323100  1
  C  80  1  0.48917700  0.97634700  0.58806250  1
  C  81  1  0.50012600  0.01025000  0.57523900  1
  C  82  1  0.51107350  0.04415350  0.58806300  1
  C  83  1  0.51150200  0.04497300  0.61323200  1
  C  84  1  0.50012450  0.01024750  0.62534700  1
  C  85  1  0.50012550  0.01025050  0.54992700  1
  C  86  1  0.52154700  0.99450800  0.53702850  1
  C  87  1  0.52185700  0.99495000  0.51200900  1
  C  88  1  0.50012450  0.01024950  0.49877900  1
  C  89  1  0.47839900  0.02555500  0.51200900  1
  C  90  1  0.47870750  0.02599650  0.53702950  1
  C  91  1  0.47723850  0.94071050  0.62595250  1
  C  92  1  0.48778400  0.91157300  0.61819150  1
  C  93  1  0.47652750  0.87740150  0.63055850  1
  C  94  1  0.45435100  0.87073200  0.65138650  1
  C  95  1  0.44376000  0.89984400  0.65915000  1
  C  96  1  0.45491700  0.93400300  0.64672300  1
  C  97  1  0.52300900  0.07978400  0.62595400  1
  C  98  1  0.54532800  0.08649300  0.64672450  1
  C  99  1  0.55649850  0.12065850  0.65914700  1
  C  100  1  0.54589650  0.14976350  0.65138750  1
  C  101  1  0.52371300  0.14309200  0.63056400  1
  C  102  1  0.51245200  0.10891900  0.61819800  1
  C  157  1  0.03496200  0.52369700  0.11302300  1
  C  158  1  0.03419050  0.52305850  0.08787200  1
  C  159  1  0.00012650  0.51025250  0.07508400  1
  C  160  1  0.96606000  0.49744700  0.08787000  1
  C  161  1  0.96528400  0.49680500  0.11302150  1
  C  162  1  0.00012400  0.51025100  0.12512000  1
  C  163  1  0.00013000  0.51025600  0.04980400  1
  C  164  1  0.01703000  0.48985800  0.03693700  1
  C  165  1  0.01658200  0.48952700  0.01192500  1
  C  166  1  0.00012750  0.51025350  0.99871800  1
  C  167  1  0.98368200  0.53098800  0.01192500  1
  C  168  1  0.98324100  0.53066200  0.03693600  1
  C  169  1  0.06977350  0.53776150  0.12582600  1
  C  170  1  0.10075400  0.52975700  0.11853850  1
  C  171  1  0.13479700  0.54353900  0.13121450  1
  C  172  1  0.13944600  0.56596700  0.15176650  1
  C  173  1  0.10844450  0.57393150  0.15904100  1
  C  174  1  0.07448900  0.56026900  0.14634200  1
  C  175  1  0.93047200  0.48274000  0.12582150  1
  C  176  1  0.92575350  0.46023050  0.14633700  1
  C  177  1  0.89179900  0.44657400  0.15903800  1
  C  178  1  0.86079700  0.45453300  0.15176050  1
  C  179  1  0.86545100  0.47696700  0.13120900  1
  C  180  1  0.89949300  0.49074400  0.11853400  1
  C  235  1  0.51371300  0.04496000  0.35761200  1
  C  236  1  0.51419800  0.04406700  0.38277050  1
  C  237  1  0.50012400  0.01024800  0.39595650  1
  C  238  1  0.48605000  0.97643000  0.38277050  1
  C  239  1  0.48653500  0.97553800  0.35761100  1
  C  240  1  0.50012450  0.01024950  0.34545300  1
  C  241  1  0.50012300  0.01024900  0.42161000  1
  C  242  1  0.49526050  0.03903450  0.43486900  1
  C  243  1  0.49567600  0.03925100  0.45988800  1
  C  244  1  0.50012500  0.01024900  0.47314400  1
  C  245  1  0.50457150  0.98124750  0.45988900  1
  C  246  1  0.50498400  0.98146200  0.43486900  1
  C  247  1  0.52586800  0.07989700  0.34499150  1
  C  248  1  0.51618600  0.10940800  0.35313750  1
  C  249  1  0.52721000  0.14349100  0.34070600  1
  C  250  1  0.54825250  0.14968050  0.31942050  1
  C  251  1  0.55808400  0.12024500  0.31130050  1
  C  252  1  0.54709400  0.08612300  0.32377550  1
  C  253  1  0.47438050  0.94060050  0.34499100  1
  C  254  1  0.45315950  0.93437850  0.32377200  1
  C  255  1  0.44217000  0.90025800  0.31129750  1
  C  256  1  0.45199750  0.87082050  0.31941750  1
  C  257  1  0.47304250  0.87701050  0.34070250  1
  C  258  1  0.48406650  0.91109150  0.35313450  1
  C  313  1  0.82664600  0.43881500  0.80567700  1
  C  314  1  0.80590950  0.46133450  0.80207450  1
  C  315  1  0.77285500  0.44856700  0.78837850  1
  C  316  1  0.75921550  0.41262850  0.77784350  1
  C  317  1  0.77959400  0.38992400  0.78145350  1
  C  318  1  0.81253350  0.40271750  0.79521100  1
  C  319  1  0.72786750  0.40006650  0.76312200  1
  C  320  1  0.69411750  0.39942550  0.76927750  1
  C  321  1  0.66217450  0.38566050  0.75495350  1
  C  322  1  0.65137600  0.35101000  0.74284900  1
  C  323  1  0.61750750  0.33569650  0.72983250  1
  C  324  1  0.59373900  0.35552200  0.72956850  1
  C  325  1  0.60359750  0.39020850  0.74142000  1
  C  326  1  0.63777650  0.40475150  0.75414550  1
  C  327  1  0.57817800  0.40740000  0.74227750  1
  C  328  1  0.58658850  0.44352150  0.73670350  1
  C  329  1  0.56149650  0.46120050  0.73782400  1
  C  330  1  0.57393750  0.49845050  0.74624750  1
  C  331  1  0.52407200  0.44395400  0.72966400  1
  C  332  1  0.49989600  0.46308400  0.73026050  1
  C  333  1  0.51228850  0.50037450  0.73868500  1
  C  334  1  0.54981650  0.51763950  0.74666850  1
  C  335  1  0.60691700  0.30034500  0.71945250  1
  C  336  1  0.59175900  0.29125200  0.69765700  1
  C  337  1  0.58049300  0.25573900  0.68764000  1
  C  338  1  0.60525550  0.23730950  0.68519850  1
  C  339  1  0.54399750  0.23820750  0.67817500  1
  C  340  1  0.53257350  0.20327150  0.66668883  1
  C  341  1  0.55725900  0.18469300  0.66394000  1
  C  342  1  0.59377400  0.20241400  0.67360300  1
  C  364  1  0.17359750  0.58168850  0.80567100  1
  C  365  1  0.19433250  0.55916850  0.80207150  1
  C  366  1  0.22738400  0.57193200  0.78837200  1
  C  367  1  0.24103200  0.60787500  0.77784150  1
  C  368  1  0.22065400  0.63058100  0.78145200  1
  C  369  1  0.18771200  0.61778500  0.79520700  1
  C  370  1  0.27238050  0.62043450  0.76312200  1
  C  371  1  0.30613100  0.62108200  0.76928300  1
  C  372  1  0.33807900  0.63485300  0.75496350  1
  C  373  1  0.34887700  0.66950300  0.74286050  1
  C  374  1  0.38273500  0.68480700  0.72983350  1
  C  375  1  0.40649450  0.66496850  0.72955900  1
  C  376  1  0.39663700  0.63028400  0.74141150  1
  C  377  1  0.36246600  0.61575100  0.75414550  1
  C  378  1  0.42206250  0.61310050  0.74226950  1
  C  379  1  0.41365400  0.57697700  0.73669850  1
  C  380  1  0.43874750  0.55929850  0.73781750  1
  C  381  1  0.42630900  0.52205100  0.74624550  1
  C  382  1  0.47617700  0.57655200  0.72966550  1
  C  383  1  0.50035300  0.55742200  0.73026100  1
  C  384  1  0.48796100  0.52013300  0.73868650  1
  C  385  1  0.45043550  0.50286850  0.74667200  1
  C  386  1  0.39332800  0.72015400  0.71944850  1
  C  387  1  0.40847700  0.72923900  0.69764950  1
  C  388  1  0.41974050  0.76474850  0.68762750  1
  C  389  1  0.39498350  0.78318150  0.68518850  1
  C  390  1  0.45624000  0.78228000  0.67816600  1
  C  391  1  0.46766600  0.81721800  0.66668533  1
  C  392  1  0.44298650  0.83580250  0.66393750  1
  C  393  1  0.40647250  0.81808550  0.67360150  1
  C  415  1  0.17393650  0.57987150  0.16489200  1
  C  416  1  0.19448100  0.55733700  0.16911700  1
  C  417  1  0.22751900  0.57051600  0.18282900  1
  C  418  1  0.24131950  0.60688750  0.19274050  1
  C  419  1  0.22118400  0.62963800  0.18848050  1
  C  420  1  0.18827800  0.61643400  0.17469650  1
  C  421  1  0.27257350  0.61984450  0.20751050  1
  C  422  1  0.30642200  0.62065900  0.20145750  1
  C  423  1  0.33828400  0.63470400  0.21582750  1
  C  424  1  0.34885550  0.66942050  0.22782200  1
  C  425  1  0.38261550  0.68493350  0.24092950  1
  C  426  1  0.40650100  0.66523500  0.24141400  1
  C  427  1  0.39685400  0.63048200  0.22967450  1
  C  428  1  0.36278100  0.61574700  0.21684750  1
  C  429  1  0.42235100  0.61336800  0.22900500  1
  C  430  1  0.41387500  0.57720500  0.23449950  1
  C  431  1  0.43892100  0.55947300  0.23340450  1
  C  432  1  0.42642800  0.52223900  0.22494250  1
  C  433  1  0.47634050  0.57665150  0.24157800  1
  C  434  1  0.50045000  0.55744800  0.24099100  1
  C  435  1  0.48799700  0.52017000  0.23253800  1
  C  436  1  0.45048450  0.50298350  0.22452100  1
  C  437  1  0.39297450  0.72032850  0.25120400  1
  C  438  1  0.40767000  0.72951900  0.27310750  1
  C  439  1  0.41863250  0.76505050  0.28307000  1
  C  440  1  0.39386100  0.78356400  0.28496800  1
  C  441  1  0.45478650  0.78251550  0.29304000  1
  C  442  1  0.46583800  0.81741600  0.30451050  1
  C  443  1  0.44110150  0.83603450  0.30676100  1
  C  444  1  0.40497150  0.81844350  0.29655150  1
  C  466  1  0.82630150  0.44062450  0.16488150  1
  C  467  1  0.80575800  0.46315900  0.16910800  1
  C  468  1  0.77271850  0.44997750  0.18281800  1
  C  469  1  0.75892550  0.41360950  0.19273600  1
  C  470  1  0.77906450  0.39086150  0.18847600  1
  C  471  1  0.81196550  0.40406450  0.17469050  1
  C  472  1  0.72767500  0.40065400  0.20750850  1
  C  473  1  0.69382650  0.39984350  0.20146100  1
  C  474  1  0.66197300  0.38580900  0.21584000  1
  C  475  1  0.65139750  0.35109150  0.22783400  1
  C  476  1  0.61764000  0.33558000  0.24094600  1
  C  477  1  0.59374700  0.35527100  0.24141750  1
  C  478  1  0.60339350  0.39002450  0.22967900  1
  C  479  1  0.63746850  0.40475750  0.21685450  1
  C  480  1  0.57789700  0.40713800  0.22900100  1
  C  481  1  0.58637100  0.44330200  0.23449400  1
  C  482  1  0.56132200  0.46103100  0.23339650  1
  C  483  1  0.57381950  0.49827050  0.22494400  1
  C  484  1  0.52390500  0.44385700  0.24157600  1
  C  485  1  0.49979550  0.46305850  0.24098650  1
  C  486  1  0.51225050  0.50033950  0.23253750  1
  C  487  1  0.54976550  0.51752850  0.22452750  1
  C  488  1  0.60727650  0.30018250  0.25121300  1
  C  489  1  0.59256850  0.29098050  0.27311150  1
  C  490  1  0.58160900  0.25545100  0.28307400  1
  C  491  1  0.60638500  0.23694400  0.28497750  1
  C  492  1  0.54545350  0.23797950  0.29304100  1
  C  493  1  0.53440650  0.20307950  0.30451350  1
  C  494  1  0.55914500  0.18446600  0.30676350  1
  C  495  1  0.59527050  0.20205450  0.29654650  1
  C  721  1  0.84211900  0.61801600  0.75112150  1
  C  722  1  0.84301750  0.61775550  0.77626750  1
  C  723  1  0.87679950  0.63357250  0.78942050  1
  C  724  1  0.91058150  0.64939350  0.77626850  1
  C  725  1  0.91148100  0.64913500  0.75112250  1
  C  726  1  0.87679950  0.63357650  0.73898450  1
  C  727  1  0.87679800  0.63357200  0.81504600  1
  C  728  1  0.84719000  0.63687300  0.82827750  1
  C  729  1  0.84699300  0.63645800  0.85328950  1
  C  730  1  0.87680150  0.63357350  0.86652000  1
  C  731  1  0.90660500  0.63068300  0.85328900  1
  C  732  1  0.90640750  0.63027050  0.82827700  1
  C  733  1  0.80723900  0.60333300  0.73840900  1
  C  734  1  0.77591400  0.61043500  0.74609350  1
  C  735  1  0.74195100  0.59689100  0.73334550  1
  C  736  1  0.73772100  0.57560600  0.71231200  1
  C  737  1  0.76903150  0.56845050  0.70466950  1
  C  738  1  0.80296300  0.58194800  0.71742200  1
  C  739  1  0.94636150  0.66382050  0.73840950  1
  C  740  1  0.95063750  0.68521250  0.71742550  1
  C  741  1  0.98456750  0.69871150  0.70467250  1
  C  742  1  0.01587700  0.69155200  0.71231150  1
  C  743  1  0.01165000  0.67026600  0.73334550  1
  C  744  1  0.97768900  0.65672300  0.74609500  1
  C  799  1  0.36542300  0.09884900  0.50664200  1
  C  800  1  0.36585300  0.09967100  0.48147350  1
  C  801  1  0.37680200  0.13357400  0.46865000  1
  C  802  1  0.38774950  0.16747750  0.48147400  1
  C  803  1  0.38817800  0.16829700  0.50664300  1
  C  804  1  0.37680050  0.13357150  0.51875800  1
  C  805  1  0.37680150  0.13357450  0.44333800  1
  C  806  1  0.39822300  0.11783200  0.43043950  1
  C  807  1  0.39853300  0.11827400  0.40542000  1
  C  808  1  0.37680050  0.13357350  0.39219000  1
  C  809  1  0.35507500  0.14887900  0.40542000  1
  C  810  1  0.35538350  0.14932050  0.43044050  1
  C  811  1  0.35391450  0.06403450  0.51936350  1
  C  812  1  0.36446000  0.03489700  0.51160250  1
  C  813  1  0.35320350  0.00072550  0.52396950  1
  C  814  1  0.33102700  0.99405600  0.54479750  1
  C  815  1  0.32043600  0.02316800  0.55256100  1
  C  816  1  0.33159300  0.05732700  0.54013400  1
  C  817  1  0.39968500  0.20310800  0.51936500  1
  C  818  1  0.42200400  0.20981700  0.54013550  1
  C  819  1  0.43317450  0.24398250  0.55255800  1
  C  820  1  0.42257250  0.27308750  0.54479850  1
  C  821  1  0.40038900  0.26641600  0.52397500  1
  C  822  1  0.38912800  0.23224300  0.51160900  1
  C  877  1  0.91163800  0.64702100  0.00643400  1
  C  878  1  0.91086650  0.64638250  0.98128260  1
  C  879  1  0.87680250  0.63357650  0.96849460  1
  C  880  1  0.84273600  0.62077100  0.98128060  1
  C  881  1  0.84196000  0.62012900  0.00643250  1
  C  882  1  0.87680000  0.63357500  0.01853100  1
  C  883  1  0.87680600  0.63358000  0.94321460  1
  C  884  1  0.89370600  0.61318200  0.93034760  1
  C  885  1  0.89325800  0.61285100  0.90533560  1
  C  886  1  0.87680350  0.63357750  0.89212900  1
  C  887  1  0.86035800  0.65431200  0.90533560  1
  C  888  1  0.85991700  0.65398600  0.93034660  1
  C  889  1  0.94644950  0.66108550  0.01923700  1
  C  890  1  0.97743000  0.65308100  0.01194950  1
  C  891  1  0.01147300  0.66686300  0.02462550  1
  C  892  1  0.01612200  0.68929100  0.04517750  1
  C  893  1  0.98512050  0.69725550  0.05245200  1
  C  894  1  0.95116500  0.68359300  0.03975300  1
  C  895  1  0.80714800  0.60606400  0.01923250  1
  C  896  1  0.80242950  0.58355450  0.03974800  1
  C  897  1  0.76847500  0.56989800  0.05244900  1
  C  898  1  0.73747300  0.57785700  0.04517150  1
  C  899  1  0.74212700  0.60029100  0.02462000  1
  C  900  1  0.77616900  0.61406800  0.01194500  1
  C  955  1  0.39038900  0.16828400  0.25102300  1
  C  956  1  0.39087400  0.16739100  0.27618150  1
  C  957  1  0.37680000  0.13357200  0.28936750  1
  C  958  1  0.36272600  0.09975400  0.27618150  1
  C  959  1  0.36321100  0.09886200  0.25102200  1
  C  960  1  0.37680050  0.13357350  0.23886400  1
  C  961  1  0.37679900  0.13357300  0.31502100  1
  C  962  1  0.37193650  0.16235850  0.32828000  1
  C  963  1  0.37235200  0.16257500  0.35329900  1
  C  964  1  0.37680100  0.13357300  0.36655500  1
  C  965  1  0.38124750  0.10457150  0.35330000  1
  C  966  1  0.38166000  0.10478600  0.32828000  1
  C  967  1  0.40254400  0.20322100  0.23840250  1
  C  968  1  0.39286200  0.23273200  0.24654850  1
  C  969  1  0.40388600  0.26681500  0.23411700  1
  C  970  1  0.42492850  0.27300450  0.21283150  1
  C  971  1  0.43476000  0.24356900  0.20471150  1
  C  972  1  0.42377000  0.20944700  0.21718650  1
  C  973  1  0.35105650  0.06392450  0.23840200  1
  C  974  1  0.32983550  0.05770250  0.21718300  1
  C  975  1  0.31884600  0.02358200  0.20470850  1
  C  976  1  0.32867350  0.99414450  0.21282850  1
  C  977  1  0.34971850  0.00033450  0.23411350  1
  C  978  1  0.36074250  0.03441550  0.24654550  1
  C  1033  1  0.70332200  0.56213900  0.69908800  1
  C  1034  1  0.68258550  0.58465850  0.69548550  1
  C  1035  1  0.64953100  0.57189100  0.68178950  1
  C  1036  1  0.63589150  0.53595250  0.67125450  1
  C  1037  1  0.65627000  0.51324800  0.67486450  1
  C  1038  1  0.68920950  0.52604150  0.68862200  1
  C  1039  1  0.60454350  0.52339050  0.65653300  1
  C  1040  1  0.57079350  0.52274950  0.66268850  1
  C  1041  1  0.53885050  0.50898450  0.64836450  1
  C  1042  1  0.52805200  0.47433400  0.63626000  1
  C  1043  1  0.49418350  0.45902050  0.62324350  1
  C  1044  1  0.47041512  0.47884588  0.62297950  1
  C  1045  1  0.48027360  0.51353240  0.63483100  1
  C  1046  1  0.51445262  0.52807538  0.64755650  1
  C  1047  1  0.45485410  0.53072390  0.63568850  1
  C  1048  1  0.46326460  0.56684540  0.63011450  1
  C  1049  1  0.43817260  0.58452440  0.63123500  1
  C  1050  1  0.45061360  0.62177440  0.63965850  1
  C  1051  1  0.40074810  0.56727790  0.62307500  1
  C  1052  1  0.37657200  0.58640800  0.62367150  1
  C  1053  1  0.38896450  0.62369850  0.63209600  1
  C  1054  1  0.42649250  0.64096350  0.64007950  1
  C  1055  1  0.48359300  0.42366900  0.61286350  1
  C  1056  1  0.46843500  0.41457600  0.59106800  1
  C  1057  1  0.45716900  0.37906300  0.58105100  1
  C  1058  1  0.48193150  0.36063350  0.57860950  1
  C  1059  1  0.42067350  0.36153150  0.57158600  1
  C  1060  1  0.40924950  0.32659550  0.56011600  1
  C  1061  1  0.43393500  0.30801700  0.55735100  1
  C  1062  1  0.47045000  0.32573800  0.56701400  1
  C  1084  1  0.05027350  0.70501250  0.69908200  1
  C  1085  1  0.07100850  0.68249250  0.69548250  1
  C  1086  1  0.10406000  0.69525600  0.68178300  1
  C  1087  1  0.11770800  0.73119900  0.67125250  1
  C  1088  1  0.09733000  0.75390500  0.67486300  1
  C  1089  1  0.06438800  0.74110900  0.68861800  1
  C  1090  1  0.14905650  0.74375850  0.65653300  1
  C  1091  1  0.18280700  0.74440600  0.66269400  1
  C  1092  1  0.21475500  0.75817700  0.64837450  1
  C  1093  1  0.22555300  0.79282700  0.63627150  1
  C  1094  1  0.25941100  0.80813100  0.62324450  1
  C  1095  1  0.28317050  0.78829250  0.62297000  1
  C  1096  1  0.27331300  0.75360800  0.63482250  1
  C  1097  1  0.23914200  0.73907500  0.64755650  1
  C  1098  1  0.29873850  0.73642450  0.63568050  1
  C  1099  1  0.29033000  0.70030100  0.63010950  1
  C  1100  1  0.31542350  0.68262250  0.63122850  1
  C  1101  1  0.30298500  0.64537500  0.63965650  1
  C  1102  1  0.35285300  0.69987600  0.62307650  1
  C  1103  1  0.37702900  0.68074600  0.62367200  1
  C  1104  1  0.36463700  0.64345700  0.63209750  1
  C  1105  1  0.32711150  0.62619250  0.64008300  1
  C  1106  1  0.27000400  0.84347800  0.61285950  1
  C  1107  1  0.28515300  0.85256300  0.59106050  1
  C  1108  1  0.29641650  0.88807250  0.58103850  1
  C  1109  1  0.27165950  0.90650550  0.57859950  1
  C  1110  1  0.33291600  0.90560400  0.57157700  1
  C  1111  1  0.34434200  0.94054200  0.56010950  1
  C  1112  1  0.31966250  0.95912650  0.55734850  1
  C  1113  1  0.28314850  0.94140950  0.56701250  1
  C  1135  1  0.05061250  0.70319550  0.05830300  1
  C  1136  1  0.07115700  0.68066100  0.06252800  1
  C  1137  1  0.10419500  0.69384000  0.07624000  1
  C  1138  1  0.11799550  0.73021150  0.08615150  1
  C  1139  1  0.09786000  0.75296200  0.08189150  1
  C  1140  1  0.06495400  0.73975800  0.06810750  1
  C  1141  1  0.14924950  0.74316850  0.10092150  1
  C  1142  1  0.18309800  0.74398300  0.09486850  1
  C  1143  1  0.21496000  0.75802800  0.10923850  1
  C  1144  1  0.22553150  0.79274450  0.12123300  1
  C  1145  1  0.25929150  0.80825750  0.13434050  1
  C  1146  1  0.28317700  0.78855900  0.13482500  1
  C  1147  1  0.27353000  0.75380600  0.12308550  1
  C  1148  1  0.23945700  0.73907100  0.11025850  1
  C  1149  1  0.29902700  0.73669200  0.12241600  1
  C  1150  1  0.29055100  0.70052900  0.12791050  1
  C  1151  1  0.31559700  0.68279700  0.12681550  1
  C  1152  1  0.30310400  0.64556300  0.11835350  1
  C  1153  1  0.35301650  0.69997550  0.13498900  1
  C  1154  1  0.37712600  0.68077200  0.13440200  1
  C  1155  1  0.36467300  0.64349400  0.12594900  1
  C  1156  1  0.32716050  0.62630750  0.11793200  1
  C  1157  1  0.26965050  0.84365250  0.14461500  1
  C  1158  1  0.28434600  0.85284300  0.16651850  1
  C  1159  1  0.29530850  0.88837450  0.17648100  1
  C  1160  1  0.27053700  0.90688800  0.17837900  1
  C  1161  1  0.33146250  0.90583950  0.18645100  1
  C  1162  1  0.34251400  0.94074000  0.19792150  1
  C  1163  1  0.31777750  0.95935850  0.20017200  1
  C  1164  1  0.28164750  0.94176750  0.18996250  1
  C  1186  1  0.70297750  0.56394850  0.05829250  1
  C  1187  1  0.68243400  0.58648300  0.06251900  1
  C  1188  1  0.64939450  0.57330150  0.07622900  1
  C  1189  1  0.63560150  0.53693350  0.08614700  1
  C  1190  1  0.65574050  0.51418550  0.08188700  1
  C  1191  1  0.68864150  0.52738850  0.06810150  1
  C  1192  1  0.60435100  0.52397800  0.10091950  1
  C  1193  1  0.57050250  0.52316750  0.09487200  1
  C  1194  1  0.53864900  0.50913300  0.10925100  1
  C  1195  1  0.52807350  0.47441550  0.12124500  1
  C  1196  1  0.49431600  0.45890400  0.13435700  1
  C  1197  1  0.47042312  0.47859488  0.13482850  1
  C  1198  1  0.48006960  0.51334840  0.12309000  1
  C  1199  1  0.51414462  0.52808138  0.11026550  1
  C  1200  1  0.45457310  0.53046190  0.12241200  1
  C  1201  1  0.46304710  0.56662590  0.12790500  1
  C  1202  1  0.43799810  0.58435490  0.12680750  1
  C  1203  1  0.45049560  0.62159440  0.11835500  1
  C  1204  1  0.40058110  0.56718090  0.13498700  1
  C  1205  1  0.37647150  0.58638250  0.13439750  1
  C  1206  1  0.38892650  0.62366350  0.12594850  1
  C  1207  1  0.42644150  0.64085250  0.11793850  1
  C  1208  1  0.48395250  0.42350650  0.14462400  1
  C  1209  1  0.46924450  0.41430450  0.16652250  1
  C  1210  1  0.45828500  0.37877500  0.17648500  1
  C  1211  1  0.48306100  0.36026800  0.17838850  1
  C  1212  1  0.42212950  0.36130350  0.18645200  1
  C  1213  1  0.41108250  0.32640350  0.19792450  1
  C  1214  1  0.43582100  0.30779000  0.20017450  1
  C  1215  1  0.47194650  0.32537850  0.18995750  1
  C  1441  1  0.71879525  0.74133975  0.64453150  1
  C  1442  1  0.71969375  0.74107925  0.66967750  1
  C  1443  1  0.75347574  0.75689626  0.68283050  1
  C  1444  1  0.78725750  0.77271750  0.66967850  1
  C  1445  1  0.78815700  0.77245900  0.64453250  1
  C  1446  1  0.75347574  0.75690026  0.63239450  1
  C  1447  1  0.75347424  0.75689576  0.70845600  1
  C  1448  1  0.72386625  0.76019675  0.72168750  1
  C  1449  1  0.72366925  0.75978175  0.74669950  1
  C  1450  1  0.75347774  0.75689726  0.75993000  1
  C  1451  1  0.78328100  0.75400700  0.74669900  1
  C  1452  1  0.78308350  0.75359450  0.72168700  1
  C  1453  1  0.68391525  0.72665675  0.63181900  1
  C  1454  1  0.65259025  0.73375875  0.63950350  1
  C  1455  1  0.61862725  0.72021475  0.62675550  1
  C  1456  1  0.61439725  0.69892975  0.60572200  1
  C  1457  1  0.64570775  0.69177425  0.59807950  1
  C  1458  1  0.67963925  0.70527175  0.61083200  1
  C  1459  1  0.82303750  0.78714450  0.63181950  1
  C  1460  1  0.82731350  0.80853650  0.61083550  1
  C  1461  1  0.86124350  0.82203550  0.59808250  1
  C  1462  1  0.89255300  0.81487600  0.60572150  1
  C  1463  1  0.88832600  0.79359000  0.62675550  1
  C  1464  1  0.85436500  0.78004700  0.63950500  1
  C  1519  1  0.24209900  0.22217300  0.40005200  1
  C  1520  1  0.24252900  0.22299500  0.37488350  1
  C  1521  1  0.25347824  0.25689776  0.36206000  1
  C  1522  1  0.26442575  0.29080125  0.37488400  1
  C  1523  1  0.26485425  0.29162075  0.40005300  1
  C  1524  1  0.25347674  0.25689526  0.41216800  1
  C  1525  1  0.25347774  0.25689826  0.33674800  1
  C  1526  1  0.27489900  0.24115600  0.32384950  1
  C  1527  1  0.27520900  0.24159800  0.29883000  1
  C  1528  1  0.25347674  0.25689726  0.28560000  1
  C  1529  1  0.23175125  0.27220275  0.29883000  1
  C  1530  1  0.23205975  0.27264425  0.32385050  1
  C  1531  1  0.23059050  0.18735850  0.41277350  1
  C  1532  1  0.24113600  0.15822100  0.40501250  1
  C  1533  1  0.22987950  0.12404950  0.41737950  1
  C  1534  1  0.20770300  0.11738000  0.43820750  1
  C  1535  1  0.19711200  0.14649200  0.44597100  1
  C  1536  1  0.20826900  0.18065100  0.43354400  1
  C  1537  1  0.27636125  0.32643175  0.41277500  1
  C  1538  1  0.29868025  0.33314075  0.43354550  1
  C  1539  1  0.30985075  0.36730625  0.44596800  1
  C  1540  1  0.29924875  0.39641125  0.43820850  1
  C  1541  1  0.27706525  0.38973975  0.41738500  1
  C  1542  1  0.26580425  0.35556675  0.40501900  1
  C  1597  1  0.78831400  0.77034500  0.89984400  1
  C  1598  1  0.78754250  0.76970650  0.87469300  1
  C  1599  1  0.75347874  0.75690026  0.86190500  1
  C  1600  1  0.71941225  0.74409475  0.87469100  1
  C  1601  1  0.71863625  0.74345275  0.89984250  1
  C  1602  1  0.75347624  0.75689876  0.91194130  1
  C  1603  1  0.75348224  0.75690376  0.83662500  1
  C  1604  1  0.77038200  0.73650600  0.82375800  1
  C  1605  1  0.76993400  0.73617500  0.79874600  1
  C  1606  1  0.75347974  0.75690126  0.78553900  1
  C  1607  1  0.73703425  0.77763575  0.79874600  1
  C  1608  1  0.73659325  0.77730975  0.82375700  1
  C  1609  1  0.82312550  0.78440950  0.91264730  1
  C  1610  1  0.85410600  0.77640500  0.90535980  1
  C  1611  1  0.88814900  0.79018700  0.91803580  1
  C  1612  1  0.89279800  0.81261500  0.93858780  1
  C  1613  1  0.86179650  0.82057950  0.94586230  1
  C  1614  1  0.82784100  0.80691700  0.93316330  1
  C  1615  1  0.68382425  0.72938775  0.91264280  1
  C  1616  1  0.67910575  0.70687825  0.93315830  1
  C  1617  1  0.64515125  0.69322175  0.94585930  1
  C  1618  1  0.61414925  0.70118075  0.93858180  1
  C  1619  1  0.61880325  0.72361475  0.91803030  1
  C  1620  1  0.65284525  0.73739175  0.90535530  1
  C  1675  1  0.26706525  0.29160775  0.14443300  1
  C  1676  1  0.26755025  0.29071475  0.16959150  1
  C  1677  1  0.25347624  0.25689576  0.18277750  1
  C  1678  1  0.23940200  0.22307800  0.16959150  1
  C  1679  1  0.23988700  0.22218600  0.14443200  1
  C  1680  1  0.25347674  0.25689726  0.13227400  1
  C  1681  1  0.25347524  0.25689676  0.20843100  1
  C  1682  1  0.24861275  0.28568225  0.22169000  1
  C  1683  1  0.24902825  0.28589875  0.24670900  1
  C  1684  1  0.25347724  0.25689676  0.25996500  1
  C  1685  1  0.25792350  0.22789550  0.24671000  1
  C  1686  1  0.25833600  0.22811000  0.22169000  1
  C  1687  1  0.27922025  0.32654475  0.13181250  1
  C  1688  1  0.26953825  0.35605575  0.13995850  1
  C  1689  1  0.28056225  0.39013875  0.12752700  1
  C  1690  1  0.30160475  0.39632825  0.10624150  1
  C  1691  1  0.31143625  0.36689275  0.09812150  1
  C  1692  1  0.30044625  0.33277075  0.11059650  1
  C  1693  1  0.22773250  0.18724850  0.13181200  1
  C  1694  1  0.20651150  0.18102650  0.11059300  1
  C  1695  1  0.19552200  0.14690600  0.09811850  1
  C  1696  1  0.20534950  0.11746850  0.10623850  1
  C  1697  1  0.22639450  0.12365850  0.12752350  1
  C  1698  1  0.23741850  0.15773950  0.13995550  1
  C  1753  1  0.57999825  0.68546275  0.59249800  1
  C  1754  1  0.55926175  0.70798225  0.58889550  1
  C  1755  1  0.52620725  0.69521475  0.57519950  1
  C  1756  1  0.51256775  0.65927625  0.56466450  1
  C  1757  1  0.53294625  0.63657175  0.56827450  1
  C  1758  1  0.56588575  0.64936525  0.58203200  1
  C  1759  1  0.48121975  0.64671425  0.54994300  1
  C  1760  1  0.44746975  0.64607325  0.55609850  1
  C  1761  1  0.41552650  0.63230850  0.54177450  1
  C  1762  1  0.40472825  0.59765775  0.52967000  1
  C  1763  1  0.37085950  0.58234450  0.51665350  1
  C  1764  1  0.34709100  0.60217000  0.51638950  1
  C  1765  1  0.35694950  0.63685650  0.52824100  1
  C  1766  1  0.39112850  0.65139950  0.54096650  1
  C  1767  1  0.33153000  0.65404800  0.52909850  1
  C  1768  1  0.33994050  0.69016950  0.52352450  1
  C  1769  1  0.31484850  0.70784850  0.52464500  1
  C  1770  1  0.32728950  0.74509850  0.53306850  1
  C  1771  1  0.27742400  0.69060200  0.51648500  1
  C  1772  1  0.25324800  0.70973200  0.51708150  1
  C  1773  1  0.26564050  0.74702250  0.52550600  1
  C  1774  1  0.30316850  0.76428750  0.53348950  1
  C  1775  1  0.36026925  0.54699275  0.50627350  1
  C  1776  1  0.34511125  0.53789975  0.48447800  1
  C  1777  1  0.33384525  0.50238675  0.47446100  1
  C  1778  1  0.35860775  0.48395725  0.47201950  1
  C  1779  1  0.29734975  0.48485525  0.46499600  1
  C  1780  1  0.28592575  0.44991925  0.45352600  1
  C  1781  1  0.31061125  0.43134075  0.45076100  1
  C  1782  1  0.34712625  0.44906175  0.46042400  1
  C  1804  1  0.92694950  0.82833650  0.59249200  1
  C  1805  1  0.94768450  0.80581650  0.58889250  1
  C  1806  1  0.98073600  0.81858000  0.57519300  1
  C  1807  1  0.99438400  0.85452300  0.56466250  1
  C  1808  1  0.97400600  0.87722900  0.56827300  1
  C  1809  1  0.94106400  0.86443300  0.58202800  1
  C  1810  1  0.02573250  0.86708250  0.54994300  1
  C  1811  1  0.05948300  0.86773000  0.55610400  1
  C  1812  1  0.09143100  0.88150100  0.54178450  1
  C  1813  1  0.10222900  0.91615100  0.52968150  1
  C  1814  1  0.13608700  0.93145500  0.51665450  1
  C  1815  1  0.15984650  0.91161650  0.51638000  1
  C  1816  1  0.14998900  0.87693200  0.52823250  1
  C  1817  1  0.11581800  0.86239900  0.54096650  1
  C  1818  1  0.17541450  0.85974850  0.52909050  1
  C  1819  1  0.16700600  0.82362500  0.52351950  1
  C  1820  1  0.19209950  0.80594650  0.52463850  1
  C  1821  1  0.17966100  0.76869900  0.53306650  1
  C  1822  1  0.22952900  0.82320000  0.51648650  1
  C  1823  1  0.25370500  0.80407000  0.51708200  1
  C  1824  1  0.24131300  0.76678100  0.52550750  1
  C  1825  1  0.20378750  0.74951650  0.53349300  1
  C  1826  1  0.14668000  0.96680200  0.50626950  1
  C  1827  1  0.16182900  0.97588700  0.48447050  1
  C  1828  1  0.17309250  0.01139650  0.47444850  1
  C  1829  1  0.14833550  0.02982950  0.47200950  1
  C  1830  1  0.20959200  0.02892800  0.46498700  1
  C  1831  1  0.22101800  0.06386600  0.45351950  1
  C  1832  1  0.19633850  0.08245050  0.45075850  1
  C  1833  1  0.15982450  0.06473350  0.46042250  1
  C  1855  1  0.92728850  0.82651950  0.95171330  1
  C  1856  1  0.94783300  0.80398500  0.95593830  1
  C  1857  1  0.98087100  0.81716400  0.96965030  1
  C  1858  1  0.99467150  0.85353550  0.97956180  1
  C  1859  1  0.97453600  0.87628600  0.97530180  1
  C  1860  1  0.94163000  0.86308200  0.96151780  1
  C  1861  1  0.02592550  0.86649250  0.99433179  1
  C  1862  1  0.05977400  0.86730700  0.98827880  1
  C  1863  1  0.09163600  0.88135200  0.00264850  1
  C  1864  1  0.10220750  0.91606850  0.01464300  1
  C  1865  1  0.13596750  0.93158150  0.02775050  1
  C  1866  1  0.15985300  0.91188300  0.02823500  1
  C  1867  1  0.15020600  0.87713000  0.01649550  1
  C  1868  1  0.11613300  0.86239500  0.00366850  1
  C  1869  1  0.17570300  0.86001600  0.01582600  1
  C  1870  1  0.16722700  0.82385300  0.02132050  1
  C  1871  1  0.19227300  0.80612100  0.02022550  1
  C  1872  1  0.17978000  0.76888700  0.01176350  1
  C  1873  1  0.22969250  0.82329950  0.02839900  1
  C  1874  1  0.25380200  0.80409600  0.02781200  1
  C  1875  1  0.24134900  0.76681800  0.01935900  1
  C  1876  1  0.20383650  0.74963150  0.01134200  1
  C  1877  1  0.14632650  0.96697650  0.03802500  1
  C  1878  1  0.16102200  0.97616700  0.05992850  1
  C  1879  1  0.17198450  0.01169850  0.06989100  1
  C  1880  1  0.14721300  0.03021200  0.07178900  1
  C  1881  1  0.20813850  0.02916350  0.07986100  1
  C  1882  1  0.21919000  0.06406400  0.09133150  1
  C  1883  1  0.19445350  0.08268250  0.09358200  1
  C  1884  1  0.15832350  0.06509150  0.08337250  1
  C  1906  1  0.57965375  0.68727225  0.95170280  1
  C  1907  1  0.55911025  0.70980675  0.95592930  1
  C  1908  1  0.52607075  0.69662525  0.96963930  1
  C  1909  1  0.51227775  0.66025725  0.97955730  1
  C  1910  1  0.53241675  0.63750925  0.97529730  1
  C  1911  1  0.56531775  0.65071225  0.96151180  1
  C  1912  1  0.48102725  0.64730175  0.99432979  1
  C  1913  1  0.44717875  0.64649125  0.98828230  1
  C  1914  1  0.41532500  0.63245700  0.00266100  1
  C  1915  1  0.40474975  0.59773925  0.01465500  1
  C  1916  1  0.37099200  0.58222800  0.02776700  1
  C  1917  1  0.34709900  0.60191900  0.02823850  1
  C  1918  1  0.35674550  0.63667250  0.01650000  1
  C  1919  1  0.39082050  0.65140550  0.00367550  1
  C  1920  1  0.33124900  0.65378600  0.01582200  1
  C  1921  1  0.33972300  0.68995000  0.02131500  1
  C  1922  1  0.31467400  0.70767900  0.02021750  1
  C  1923  1  0.32717150  0.74491850  0.01176500  1
  C  1924  1  0.27725700  0.69050500  0.02839700  1
  C  1925  1  0.25314750  0.70970650  0.02780750  1
  C  1926  1  0.26560250  0.74698750  0.01935850  1
  C  1927  1  0.30311750  0.76417650  0.01134850  1
  C  1928  1  0.36062875  0.54683025  0.03803400  1
  C  1929  1  0.34592075  0.53762825  0.05993250  1
  C  1930  1  0.33496125  0.50209875  0.06989500  1
  C  1931  1  0.35973725  0.48359175  0.07179850  1
  C  1932  1  0.29880575  0.48462725  0.07986200  1
  C  1933  1  0.28775875  0.44972725  0.09133450  1
  C  1934  1  0.31249725  0.43111375  0.09358450  1
  C  1935  1  0.34862275  0.44870225  0.08336750  1
  H  25  1  0.84341800  0.47918900  0.84639100  1
  H  26  1  0.90103200  0.50300600  0.86748650  1
  H  27  1  0.89108150  0.43049450  0.79594750  1
  H  28  1  0.94786600  0.45229900  0.81782450  1
  H  29  1  0.05237850  0.56820450  0.81782450  1
  H  30  1  0.10916150  0.59000850  0.79594650  1
  H  31  1  0.09921550  0.51749750  0.86748400  1
  H  32  1  0.15682850  0.54131550  0.84638700  1
  H  33  1  0.05158900  0.50371600  0.92644050  1
  H  34  1  0.05265150  0.50593450  0.96829950  1
  H  35  1  0.94760000  0.51456700  0.96830100  1
  H  36  1  0.94865900  0.51678100  0.92644200  1
  H  37  1  0.94164400  0.48140500  0.89177350  1
  H  38  1  0.00012450  0.51025250  0.82740550  1
  H  39  1  0.05860400  0.53909600  0.89177450  1
  H  103  1  0.48441550  0.85712250  0.62388500  1
  H  104  1  0.50436400  0.91507500  0.60351600  1
  H  105  1  0.42812500  0.89670300  0.67423550  1
  H  106  1  0.44596300  0.95382300  0.65290000  1
  H  107  1  0.55429300  0.06667800  0.65289850  1
  H  108  1  0.57212450  0.12379450  0.67423650  1
  H  109  1  0.49588350  0.10542250  0.60351700  1
  H  110  1  0.51582800  0.16337200  0.62388900  1
  H  111  1  0.46235900  0.03709800  0.54578250  1
  H  112  1  0.46132050  0.03605650  0.50358650  1
  H  113  1  0.53892750  0.98444150  0.50358600  1
  H  114  1  0.53789100  0.98340100  0.54578200  1
  H  115  1  0.48015700  0.95170100  0.57878300  1
  H  116  1  0.50012500  0.01024700  0.64351600  1
  H  117  1  0.52009350  0.06879950  0.57878450  1
  H  181  1  0.15643400  0.53731200  0.12502450  1
  H  182  1  0.09869050  0.51319150  0.10403800  1
  H  183  1  0.10999600  0.58941700  0.17400100  1
  H  184  1  0.05326900  0.56745500  0.15217700  1
  H  185  1  0.94697550  0.45304650  0.15217500  1
  H  186  1  0.89024500  0.43108200  0.17399500  1
  H  187  1  0.90155500  0.50730900  0.10403250  1
  H  188  1  0.84381050  0.48318450  0.12501550  1
  H  189  1  0.97126000  0.54623500  0.04570050  1
  H  190  1  0.97228200  0.54730300  0.00348950  1
  H  191  1  0.02796400  0.47319700  0.00349100  1
  H  192  1  0.02898600  0.47426500  0.04570050  1
  H  193  1  0.05886850  0.53344050  0.07860550  1
  H  194  1  0.00012150  0.51025050  0.14329000  1
  H  195  1  0.94138400  0.48706600  0.07860200  1
  H  259  1  0.51989800  0.16400800  0.34762100  1
  H  260  1  0.50028650  0.10620350  0.36811350  1
  H  261  1  0.57286100  0.12306800  0.29587000  1
  H  262  1  0.55520100  0.06590300  0.31725450  1
  H  263  1  0.44504650  0.95459650  0.31725350  1
  H  264  1  0.42738800  0.89743400  0.29586750  1
  H  265  1  0.49996100  0.91429400  0.36811150  1
  H  266  1  0.48035100  0.85649000  0.34761850  1
  H  267  1  0.50939700  0.96023900  0.42645800  1
  H  268  1  0.50716550  0.95907950  0.46830100  1
  H  269  1  0.49308200  0.06141900  0.46829950  1
  H  270  1  0.49084850  0.06025650  0.42645800  1
  H  271  1  0.52600000  0.06890700  0.39169050  1
  H  272  1  0.50012400  0.01025000  0.32728550  1
  H  273  1  0.47424750  0.95159050  0.39168950  1
  H  343  1  0.81538900  0.48796300  0.80872600  1
  H  344  1  0.75933600  0.46614200  0.78567900  1
  H  345  1  0.82608900  0.38512000  0.79756300  1
  H  346  1  0.77066950  0.36378350  0.77403050  1
  H  347  1  0.64450150  0.42915850  0.76352650  1
  H  348  1  0.66803100  0.33615100  0.74402650  1
  H  349  1  0.56836800  0.34407100  0.72109500  1
  H  350  1  0.63219850  0.24959150  0.69132050  1
  H  351  1  0.60086150  0.51208050  0.75218050  1
  H  352  1  0.55993000  0.54441000  0.75313450  1
  H  353  1  0.47332450  0.44979150  0.72372500  1
  H  354  1  0.51418150  0.41744150  0.72278550  1
  H  355  1  0.61298600  0.19067400  0.67158050  1
  H  356  1  0.50571800  0.19145700  0.66042400  1
  H  357  1  0.52533350  0.25078450  0.67950100  1
  H  358  1  0.61279200  0.45918300  0.73189300  1
  H  359  1  0.55214850  0.39151650  0.74725250  1
  H  360  1  0.73070200  0.38993400  0.74734800  1
  H  361  1  0.69146800  0.40940000  0.78515650  1
  H  362  1  0.58723500  0.31063400  0.68813400  1
  H  363  1  0.61123900  0.28074700  0.72889000  1
  H  394  1  0.18485450  0.53254050  0.80872650  1
  H  395  1  0.24091150  0.55436250  0.78568000  1
  H  396  1  0.17415850  0.63538650  0.79756100  1
  H  397  1  0.22958350  0.65672250  0.77403150  1
  H  398  1  0.35574050  0.59134350  0.76352650  1
  H  399  1  0.33221650  0.68435750  0.74403300  1
  H  400  1  0.43186800  0.67642400  0.72108850  1
  H  401  1  0.36804650  0.77091150  0.69132250  1
  H  402  1  0.39938500  0.50841900  0.75217800  1
  H  403  1  0.44031950  0.47609450  0.75313450  1
  H  404  1  0.52692300  0.57071600  0.72372500  1
  H  405  1  0.48606250  0.60306150  0.72278100  1
  H  406  1  0.38726400  0.82983100  0.67158500  1
  H  407  1  0.49452250  0.82903150  0.66041600  1
  H  408  1  0.47490300  0.76970000  0.67949050  1
  H  409  1  0.38744800  0.56131200  0.73189250  1
  H  410  1  0.44809150  0.62898550  0.74724100  1
  H  411  1  0.26955000  0.63057800  0.74735000  1
  H  412  1  0.30877700  0.61110500  0.78516200  1
  H  413  1  0.41299150  0.70985250  0.68812700  1
  H  414  1  0.38901750  0.73976050  0.72888600  1
  H  445  1  0.18483700  0.53041400  0.16295900  1
  H  446  1  0.24090000  0.55294800  0.18601150  1
  H  447  1  0.17488750  0.63406750  0.17186700  1
  H  448  1  0.23024500  0.65608800  0.19544750  1
  H  449  1  0.35621350  0.59129650  0.20753850  1
  H  450  1  0.33210250  0.68416150  0.22650600  1
  H  451  1  0.43179400  0.67682900  0.24996400  1
  H  452  1  0.36713800  0.77133000  0.27847450  1
  H  453  1  0.39951050  0.50866350  0.21898450  1
  H  454  1  0.44033500  0.47622200  0.21803600  1
  H  455  1  0.52702550  0.57068650  0.24753300  1
  H  456  1  0.48626700  0.60315000  0.24847850  1
  H  457  1  0.38574450  0.83024350  0.29818850  1
  H  458  1  0.49243850  0.82915450  0.31121550  1
  H  459  1  0.47344900  0.76988900  0.29211850  1
  H  460  1  0.38760500  0.56151300  0.23916350  1
  H  461  1  0.44842650  0.62928750  0.22414250  1
  H  462  1  0.26957500  0.63009600  0.22321000  1
  H  463  1  0.30917850  0.61052550  0.18565200  1
  H  464  1  0.41203450  0.71018250  0.28277400  1
  H  465  1  0.38879750  0.73986050  0.24161150  1
  H  496  1  0.81540300  0.49008400  0.16295150  1
  H  497  1  0.75934550  0.46755250  0.18600750  1
  H  498  1  0.82535700  0.38643300  0.17186150  1
  H  499  1  0.77000500  0.36441200  0.19544600  1
  H  500  1  0.64403400  0.42920600  0.20754100  1
  H  501  1  0.66815150  0.33635150  0.22651850  1
  H  502  1  0.56845700  0.34368200  0.24997100  1
  H  503  1  0.63310500  0.24917500  0.27847700  1
  H  504  1  0.60073850  0.51184750  0.21898850  1
  H  505  1  0.55991550  0.54428950  0.21804300  1
  H  506  1  0.47321800  0.44981800  0.24752600  1
  H  507  1  0.51397350  0.41734950  0.24846700  1
  H  508  1  0.61450650  0.19026550  0.29819350  1
  H  509  1  0.50780600  0.19133900  0.31121750  1
  H  510  1  0.52678700  0.25060100  0.29211700  1
  H  511  1  0.61263650  0.45899150  0.23916800  1
  H  512  1  0.55182550  0.39121850  0.22413450  1
  H  513  1  0.73068350  0.39041950  0.22321150  1
  H  514  1  0.69106050  0.40996950  0.18565500  1
  H  515  1  0.58820800  0.31031800  0.28278150  1
  H  516  1  0.61146000  0.28065400  0.24161850  1
  H  745  1  0.72009400  0.60251300  0.73980200  1
  H  746  1  0.77770800  0.62633000  0.76089750  1
  H  747  1  0.76775750  0.55381850  0.68935850  1
  H  748  1  0.82454200  0.57562300  0.71123550  1
  H  749  1  0.92905450  0.69152850  0.71123550  1
  H  750  1  0.98583750  0.71333250  0.68935750  1
  H  751  1  0.97589150  0.64082150  0.76089500  1
  H  752  1  0.03350450  0.66463950  0.73979800  1
  H  753  1  0.92826500  0.62704000  0.81985150  1
  H  754  1  0.92932750  0.62925850  0.86171050  1
  H  755  1  0.82427600  0.63789100  0.86171200  1
  H  756  1  0.82533500  0.64010500  0.81985300  1
  H  757  1  0.81832000  0.60472900  0.78518450  1
  H  758  1  0.87680050  0.63357650  0.72081650  1
  H  759  1  0.93528000  0.66242000  0.78518550  1
  H  823  1  0.36109150  0.98044650  0.51729600  1
  H  824  1  0.38104000  0.03839900  0.49692700  1
  H  825  1  0.30480100  0.02002700  0.56764650  1
  H  826  1  0.32263900  0.07714700  0.54631100  1
  H  827  1  0.43096900  0.19000200  0.54630950  1
  H  828  1  0.44880050  0.24711850  0.56764750  1
  H  829  1  0.37255950  0.22874650  0.49692800  1
  H  830  1  0.39250400  0.28669600  0.51730000  1
  H  831  1  0.33903500  0.16042200  0.43919350  1
  H  832  1  0.33799650  0.15938050  0.39699750  1
  H  833  1  0.41560350  0.10776550  0.39699700  1
  H  834  1  0.41456700  0.10672500  0.43919300  1
  H  835  1  0.35683300  0.07502500  0.47219400  1
  H  836  1  0.37680100  0.13357100  0.53692700  1
  H  837  1  0.39676950  0.19212350  0.47219550  1
  H  901  1  0.03311000  0.66063600  0.01843550  1
  H  902  1  0.97536650  0.63651550  0.99744865  1
  H  903  1  0.98667200  0.71274100  0.06741200  1
  H  904  1  0.92994500  0.69077900  0.04558800  1
  H  905  1  0.82365150  0.57637050  0.04558600  1
  H  906  1  0.76692100  0.55440600  0.06740600  1
  H  907  1  0.77823100  0.63063300  0.99744315  1
  H  908  1  0.72048650  0.60650850  0.01842650  1
  H  909  1  0.84793600  0.66955900  0.93911110  1
  H  910  1  0.84895800  0.67062700  0.89690050  1
  H  911  1  0.90464000  0.59652100  0.89690200  1
  H  912  1  0.90566200  0.59758900  0.93911110  1
  H  913  1  0.93554450  0.65676450  0.97201610  1
  H  914  1  0.87679750  0.63357450  0.03670100  1
  H  915  1  0.81806000  0.61039000  0.97201260  1
  H  979  1  0.39657400  0.28733200  0.24103200  1
  H  980  1  0.37696250  0.22952750  0.26152450  1
  H  981  1  0.44953700  0.24639200  0.18928100  1
  H  982  1  0.43187700  0.18922700  0.21066550  1
  H  983  1  0.32172250  0.07792050  0.21066450  1
  H  984  1  0.30406400  0.02075800  0.18927850  1
  H  985  1  0.37663700  0.03761800  0.26152250  1
  H  986  1  0.35702700  0.97981400  0.24102950  1
  H  987  1  0.38607300  0.08356300  0.31986900  1
  H  988  1  0.38384150  0.08240350  0.36171200  1
  H  989  1  0.36975800  0.18474300  0.36171050  1
  H  990  1  0.36752450  0.18358050  0.31986900  1
  H  991  1  0.40267600  0.19223100  0.28510150  1
  H  992  1  0.37680000  0.13357400  0.22069650  1
  H  993  1  0.35092350  0.07491450  0.28510050  1
  H  1063  1  0.69206500  0.61128700  0.70213700  1
  H  1064  1  0.63601200  0.58946600  0.67909000  1
  H  1065  1  0.70276500  0.50844400  0.69097400  1
  H  1066  1  0.64734550  0.48710750  0.66744150  1
  H  1067  1  0.52117760  0.55248240  0.65693750  1
  H  1068  1  0.54470700  0.45947500  0.63743750  1
  H  1069  1  0.44504410  0.46739490  0.61450600  1
  H  1070  1  0.50887450  0.37291550  0.58473150  1
  H  1071  1  0.47753760  0.63540440  0.64559150  1
  H  1072  1  0.43660600  0.66773400  0.64654550  1
  H  1073  1  0.35000050  0.57311550  0.61713600  1
  H  1074  1  0.39085760  0.54076540  0.61619650  1
  H  1075  1  0.48966200  0.31399800  0.56499150  1
  H  1076  1  0.38239400  0.31478100  0.55383500  1
  H  1077  1  0.40200950  0.37410850  0.57291200  1
  H  1078  1  0.48946810  0.58250690  0.62530400  1
  H  1079  1  0.42882460  0.51484040  0.64066350  1
  H  1080  1  0.60737800  0.51325800  0.64075900  1
  H  1081  1  0.56814400  0.53272400  0.67856750  1
  H  1082  1  0.46391100  0.43395800  0.58154500  1
  H  1083  1  0.48791500  0.40407100  0.62230100  1
  H  1114  1  0.06153050  0.65586450  0.70213750  1
  H  1115  1  0.11758750  0.67768650  0.67909100  1
  H  1116  1  0.05083450  0.75871050  0.69097200  1
  H  1117  1  0.10625950  0.78004650  0.66744250  1
  H  1118  1  0.23241650  0.71466750  0.65693750  1
  H  1119  1  0.20889250  0.80768150  0.63744400  1
  H  1120  1  0.30854400  0.79974800  0.61449950  1
  H  1121  1  0.24472250  0.89423550  0.58473350  1
  H  1122  1  0.27606100  0.63174300  0.64558900  1
  H  1123  1  0.31699550  0.59941850  0.64654550  1
  H  1124  1  0.40359900  0.69404000  0.61713600  1
  H  1125  1  0.36273850  0.72638550  0.61619200  1
  H  1126  1  0.26394000  0.95315500  0.56499600  1
  H  1127  1  0.37119850  0.95235550  0.55382700  1
  H  1128  1  0.35157900  0.89302400  0.57290150  1
  H  1129  1  0.26412400  0.68463600  0.62530350  1
  H  1130  1  0.32476750  0.75230950  0.64065200  1
  H  1131  1  0.14622600  0.75390200  0.64076100  1
  H  1132  1  0.18545300  0.73442900  0.67857300  1
  H  1133  1  0.28966750  0.83317650  0.58153800  1
  H  1134  1  0.26569350  0.86308450  0.62229700  1
  H  1165  1  0.06151300  0.65373800  0.05637000  1
  H  1166  1  0.11757600  0.67627200  0.07942250  1
  H  1167  1  0.05156350  0.75739150  0.06527800  1
  H  1168  1  0.10692100  0.77941200  0.08885850  1
  H  1169  1  0.23288950  0.71462050  0.10094950  1
  H  1170  1  0.20877850  0.80748550  0.11991700  1
  H  1171  1  0.30847000  0.80015300  0.14337500  1
  H  1172  1  0.24381400  0.89465400  0.17188550  1
  H  1173  1  0.27618650  0.63198750  0.11239550  1
  H  1174  1  0.31701100  0.59954600  0.11144700  1
  H  1175  1  0.40370150  0.69401050  0.14094400  1
  H  1176  1  0.36294300  0.72647400  0.14188950  1
  H  1177  1  0.26242050  0.95356750  0.19159950  1
  H  1178  1  0.36911450  0.95247850  0.20462650  1
  H  1179  1  0.35012500  0.89321300  0.18552950  1
  H  1180  1  0.26428100  0.68483700  0.13257450  1
  H  1181  1  0.32510250  0.75261150  0.11755350  1
  H  1182  1  0.14625100  0.75342000  0.11662100  1
  H  1183  1  0.18585450  0.73384950  0.07906300  1
  H  1184  1  0.28871050  0.83350650  0.17618500  1
  H  1185  1  0.26547350  0.86318450  0.13502250  1
  H  1216  1  0.69207900  0.61340800  0.05636250  1
  H  1217  1  0.63602150  0.59087650  0.07941850  1
  H  1218  1  0.70203300  0.50975700  0.06527250  1
  H  1219  1  0.64668100  0.48773600  0.08885700  1
  H  1220  1  0.52071010  0.55252990  0.10095200  1
  H  1221  1  0.54482750  0.45967550  0.11992950  1
  H  1222  1  0.44513310  0.46700590  0.14338200  1
  H  1223  1  0.50978100  0.37249900  0.17188800  1
  H  1224  1  0.47741460  0.63517140  0.11239950  1
  H  1225  1  0.43659150  0.66761350  0.11145400  1
  H  1226  1  0.34989400  0.57314200  0.14093700  1
  H  1227  1  0.39064960  0.54067340  0.14187800  1
  H  1228  1  0.49118250  0.31358950  0.19160450  1
  H  1229  1  0.38448200  0.31466300  0.20462850  1
  H  1230  1  0.40346300  0.37392500  0.18552800  1
  H  1231  1  0.48931260  0.58231540  0.13257900  1
  H  1232  1  0.42850160  0.51454240  0.11754550  1
  H  1233  1  0.60735950  0.51374350  0.11662250  1
  H  1234  1  0.56773650  0.53329350  0.07906600  1
  H  1235  1  0.46488400  0.43364200  0.17619250  1
  H  1236  1  0.48813600  0.40397800  0.13502950  1
  H  1465  1  0.59677025  0.72583675  0.63321200  1
  H  1466  1  0.65438425  0.74965375  0.65430750  1
  H  1467  1  0.64443375  0.67714225  0.58276850  1
  H  1468  1  0.70121800  0.69894700  0.60464550  1
  H  1469  1  0.80573074  0.81485226  0.60464550  1
  H  1470  1  0.86251350  0.83665650  0.58276750  1
  H  1471  1  0.85256750  0.76414550  0.65430500  1
  H  1472  1  0.91018050  0.78796350  0.63320800  1
  H  1473  1  0.80494100  0.75036400  0.71326150  1
  H  1474  1  0.80600350  0.75258250  0.75512050  1
  H  1475  1  0.70095225  0.76121475  0.75512200  1
  H  1476  1  0.70201125  0.76342875  0.71326300  1
  H  1477  1  0.69499625  0.72805275  0.67859450  1
  H  1478  1  0.75347674  0.75690026  0.61422650  1
  H  1479  1  0.81195600  0.78574400  0.67859550  1
  H  1543  1  0.23776750  0.10377050  0.41070600  1
  H  1544  1  0.25771600  0.16172300  0.39033700  1
  H  1545  1  0.18147700  0.14335100  0.46105650  1
  H  1546  1  0.19931524  0.20047076  0.43972100  1
  H  1547  1  0.30764524  0.31332576  0.43971950  1
  H  1548  1  0.32547675  0.37044225  0.46105750  1
  H  1549  1  0.24923575  0.35207025  0.39033800  1
  H  1550  1  0.26918025  0.41001975  0.41071000  1
  H  1551  1  0.21571125  0.28374575  0.33260350  1
  H  1552  1  0.21467275  0.28270425  0.29040750  1
  H  1553  1  0.29227950  0.23108950  0.29040700  1
  H  1554  1  0.29124300  0.23004900  0.33260300  1
  H  1555  1  0.23350900  0.19834900  0.36560400  1
  H  1556  1  0.25347724  0.25689476  0.43033700  1
  H  1557  1  0.27344575  0.31544725  0.36560550  1
  H  1621  1  0.90978600  0.78396000  0.91184580  1
  H  1622  1  0.85204250  0.75983950  0.89085900  1
  H  1623  1  0.86334800  0.83606500  0.96082230  1
  H  1624  1  0.80662124  0.81410276  0.93899830  1
  H  1625  1  0.70032750  0.69969450  0.93899630  1
  H  1626  1  0.64359725  0.67772975  0.96081630  1
  H  1627  1  0.65490725  0.75395675  0.89085350  1
  H  1628  1  0.59716275  0.72983225  0.91183680  1
  H  1629  1  0.72461225  0.79288275  0.83252150  1
  H  1630  1  0.72563425  0.79395075  0.79031050  1
  H  1631  1  0.78131600  0.71984500  0.79031200  1
  H  1632  1  0.78233800  0.72091300  0.83252150  1
  H  1633  1  0.81222050  0.78008850  0.86542650  1
  H  1634  1  0.75347374  0.75689826  0.93011130  1
  H  1635  1  0.69473625  0.73371375  0.86542300  1
  H  1699  1  0.27325025  0.41065575  0.13444200  1
  H  1700  1  0.25363875  0.35285125  0.15493450  1
  H  1701  1  0.32621325  0.36971575  0.08269100  1
  H  1702  1  0.30855324  0.31255076  0.10407550  1
  H  1703  1  0.19839874  0.20124426  0.10407450  1
  H  1704  1  0.18074000  0.14408200  0.08268850  1
  H  1705  1  0.25331300  0.16094200  0.15493250  1
  H  1706  1  0.23370300  0.10313800  0.13443950  1
  H  1707  1  0.26274900  0.20688700  0.21327900  1
  H  1708  1  0.26051750  0.20572750  0.25512200  1
  H  1709  1  0.24643425  0.30806675  0.25512050  1
  H  1710  1  0.24420075  0.30690425  0.21327900  1
  H  1711  1  0.27935225  0.31555475  0.17851150  1
  H  1712  1  0.25347624  0.25689776  0.11410650  1
  H  1713  1  0.22759950  0.19823850  0.17851050  1
  H  1783  1  0.56874125  0.73461075  0.59554700  1
  H  1784  1  0.51268800  0.71279000  0.57250000  1
  H  1785  1  0.57944125  0.63176775  0.58438400  1
  H  1786  1  0.52402175  0.61043125  0.56085150  1
  H  1787  1  0.39785350  0.67580650  0.55034750  1
  H  1788  1  0.42138325  0.58279875  0.53084750  1
  H  1789  1  0.32172000  0.59071900  0.50791600  1
  H  1790  1  0.38555075  0.49623925  0.47814150  1
  H  1791  1  0.35421350  0.75872850  0.53900150  1
  H  1792  1  0.31328200  0.79105800  0.53995550  1
  H  1793  1  0.22667650  0.69643950  0.51054600  1
  H  1794  1  0.26753350  0.66408950  0.50960650  1
  H  1795  1  0.36633825  0.43732175  0.45840150  1
  H  1796  1  0.25907025  0.43810475  0.44724500  1
  H  1797  1  0.27868550  0.49743250  0.46632200  1
  H  1798  1  0.36614400  0.70583100  0.51871400  1
  H  1799  1  0.30550050  0.63816450  0.53407350  1
  H  1800  1  0.48405425  0.63658175  0.53416900  1
  H  1801  1  0.44482000  0.65604800  0.57197750  1
  H  1802  1  0.34058700  0.55728200  0.47495500  1
  H  1803  1  0.36459125  0.52739475  0.51571100  1
  H  1834  1  0.93820650  0.77918850  0.59554750  1
  H  1835  1  0.99426350  0.80101050  0.57250100  1
  H  1836  1  0.92751050  0.88203450  0.58438200  1
  H  1837  1  0.98293550  0.90337050  0.56085250  1
  H  1838  1  0.10909250  0.83799150  0.55034750  1
  H  1839  1  0.08556850  0.93100550  0.53085400  1
  H  1840  1  0.18522000  0.92307200  0.50790950  1
  H  1841  1  0.12139850  0.01755950  0.47814350  1
  H  1842  1  0.15273700  0.75506700  0.53899900  1
  H  1843  1  0.19367150  0.72274250  0.53995550  1
  H  1844  1  0.28027500  0.81736400  0.51054600  1
  H  1845  1  0.23941450  0.84970950  0.50960200  1
  H  1846  1  0.14061600  0.07647900  0.45840600  1
  H  1847  1  0.24787450  0.07567950  0.44723700  1
  H  1848  1  0.22825500  0.01634800  0.46631150  1
  H  1849  1  0.14080000  0.80796000  0.51871350  1
  H  1850  1  0.20144350  0.87563350  0.53406200  1
  H  1851  1  0.02290200  0.87722600  0.53417100  1
  H  1852  1  0.06212900  0.85775300  0.57198300  1
  H  1853  1  0.16634350  0.95650050  0.47494800  1
  H  1854  1  0.14236950  0.98640850  0.51570700  1
  H  1885  1  0.93818900  0.77706200  0.94978030  1
  H  1886  1  0.99425200  0.79959600  0.97283280  1
  H  1887  1  0.92823950  0.88071550  0.95868830  1
  H  1888  1  0.98359700  0.90273600  0.98226880  1
  H  1889  1  0.10956550  0.83794450  0.99435979  1
  H  1890  1  0.08545450  0.93080950  0.01332700  1
  H  1891  1  0.18514600  0.92347700  0.03678500  1
  H  1892  1  0.12049000  0.01797800  0.06529550  1
  H  1893  1  0.15286250  0.75531150  0.00580550  1
  H  1894  1  0.19368700  0.72287000  0.00485700  1
  H  1895  1  0.28037750  0.81733450  0.03435400  1
  H  1896  1  0.23961900  0.84979800  0.03529950  1
  H  1897  1  0.13909650  0.07689150  0.08500950  1
  H  1898  1  0.24579050  0.07580250  0.09803650  1
  H  1899  1  0.22680100  0.01653700  0.07893950  1
  H  1900  1  0.14095700  0.80816100  0.02598450  1
  H  1901  1  0.20177850  0.87593550  0.01096350  1
  H  1902  1  0.02292700  0.87674400  0.01003100  1
  H  1903  1  0.06253050  0.85717350  0.97247330  1
  H  1904  1  0.16538650  0.95683050  0.06959500  1
  H  1905  1  0.14214950  0.98650850  0.02843250  1
  H  1936  1  0.56875525  0.73673175  0.94977280  1
  H  1937  1  0.51269750  0.71420050  0.97282880  1
  H  1938  1  0.57870925  0.63308075  0.95868280  1
  H  1939  1  0.52335725  0.61105975  0.98226730  1
  H  1940  1  0.39738600  0.67585400  0.99436229  1
  H  1941  1  0.42150375  0.58299925  0.01333950  1
  H  1942  1  0.32180900  0.59033000  0.03679200  1
  H  1943  1  0.38645725  0.49582275  0.06529800  1
  H  1944  1  0.35409050  0.75849550  0.00580950  1
  H  1945  1  0.31326750  0.79093750  0.00486400  1
  H  1946  1  0.22657000  0.69646600  0.03434700  1
  H  1947  1  0.26732550  0.66399750  0.03528800  1
  H  1948  1  0.36785875  0.43691325  0.08501450  1
  H  1949  1  0.26115825  0.43798675  0.09803850  1
  H  1950  1  0.28013900  0.49724900  0.07893800  1
  H  1951  1  0.36598850  0.70563950  0.02598900  1
  H  1952  1  0.30517750  0.63786650  0.01095550  1
  H  1953  1  0.48403575  0.63706725  0.01003250  1
  H  1954  1  0.44441250  0.65661750  0.97247630  1
  H  1955  1  0.34156000  0.55696600  0.06960250  1
  H  1956  1  0.36481225  0.52730175  0.02843950  1
