# generated using pymatgen
data_H11C14N4O
_symmetry_space_group_name_H-M   'P 1'
_cell_length_a   27.41660000
_cell_length_b   57.77260000
_cell_length_c   98.65650000
_cell_angle_alpha   90.00000000
_cell_angle_beta   90.00000000
_cell_angle_gamma   90.00000000
_symmetry_Int_Tables_number   1
_chemical_formula_structural   H11C14N4O
_chemical_formula_sum   'H704 C896 N256 O64'
_cell_volume   156264.81889176
_cell_formula_units_Z   64
loop_
 _symmetry_equiv_pos_site_id
 _symmetry_equiv_pos_as_xyz
  1  'x, y, z'
loop_
 _atom_site_type_symbol
 _atom_site_label
 _atom_site_symmetry_multiplicity
 _atom_site_fract_x
 _atom_site_fract_y
 _atom_site_fract_z
 _atom_site_occupancy
  H  1  1  0.25163100  0.25883700  0.34234300  1
  H  7  1  0.09223300  0.21461400  0.29871700  1
  H  8  1  0.23561300  0.23192600  0.32604000  1
  H  10  1  0.52020700  0.25488400  0.43603200  1
  H  16  1  0.68622700  0.21366700  0.47870000  1
  H  17  1  0.54089200  0.22968800  0.45205300  1
  H  19  1  0.75161900  0.25883400  0.84233700  1
  H  25  1  0.59221900  0.21459600  0.79871600  1
  H  26  1  0.73561400  0.23192100  0.82603700  1
  H  28  1  0.02021000  0.25489900  0.93602400  1
  H  34  1  0.18620000  0.21367700  0.97869800  1
  H  35  1  0.04089400  0.22970700  0.95204900  1
  H  37  1  0.75143600  0.01844300  0.43496600  1
  H  44  1  0.64545300  0.06361400  0.49080100  1
  H  45  1  0.73497500  0.04539700  0.45112000  1
  H  47  1  0.02032600  0.02240600  0.34131300  1
  H  54  1  0.13356300  0.06472200  0.28619900  1
  H  55  1  0.04152700  0.04764800  0.32545300  1
  H  66  1  0.34774100  0.23847400  0.72315400  1
  H  67  1  0.13596700  0.21840800  0.68799700  1
  H  68  1  0.26982000  0.22323900  0.71866700  1
  H  79  1  0.34759500  0.03887900  0.55415300  1
  H  80  1  0.13587200  0.05895000  0.58931800  1
  H  81  1  0.26967100  0.05409900  0.55863200  1
  H  92  1  0.93005100  0.03741300  0.72307600  1
  H  93  1  0.14212800  0.05767700  0.68778300  1
  H  94  1  0.00460100  0.05410800  0.71775200  1
  H  105  1  0.93021100  0.23996300  0.55414500  1
  H  106  1  0.14212600  0.21969700  0.58951300  1
  H  107  1  0.00465500  0.22325100  0.55952700  1
  H  110  1  0.25141000  0.01845900  0.93495400  1
  H  117  1  0.14545500  0.06365300  0.99078500  1
  H  118  1  0.23495500  0.04541500  0.95110500  1
  H  121  1  0.52013800  0.02247900  0.84123900  1
  H  128  1  0.63480200  0.06496300  0.78633700  1
  H  129  1  0.54139900  0.04770700  0.82537400  1
  H  140  1  0.84776500  0.23847100  0.22316300  1
  H  141  1  0.63600200  0.21838500  0.18800500  1
  H  142  1  0.76984800  0.22323200  0.21867600  1
  H  153  1  0.84762600  0.03886600  0.05416700  1
  H  154  1  0.63590800  0.05893100  0.08933700  1
  H  155  1  0.76969200  0.05408300  0.05864600  1
  H  166  1  0.43039300  0.03739000  0.22318200  1
  H  167  1  0.64225800  0.05763400  0.18779500  1
  H  168  1  0.50483700  0.05408400  0.21780000  1
  H  179  1  0.43023600  0.23995100  0.05414300  1
  H  180  1  0.64213700  0.21968200  0.08952000  1
  H  181  1  0.50466600  0.22323400  0.05953300  1
  H  186  1  0.11937700  0.11175500  0.67773400  1
  H  187  1  0.06169400  0.10805100  0.68556300  1
  H  188  1  0.07748300  0.13503800  0.67877400  1
  H  193  1  0.16857100  0.17674300  0.73271300  1
  H  194  1  0.16920500  0.14935600  0.74072400  1
  H  195  1  0.22019400  0.15830000  0.73104100  1
  H  199  1  0.21460700  0.17364800  0.69301200  1
  H  201  1  0.05771800  0.09960400  0.72226000  1
  H  204  1  0.11936300  0.16561400  0.59956800  1
  H  205  1  0.06167500  0.16932300  0.59174300  1
  H  206  1  0.07745200  0.14233700  0.59853500  1
  H  211  1  0.16846200  0.10059400  0.54459400  1
  H  212  1  0.16911000  0.12797900  0.53658100  1
  H  213  1  0.22010000  0.11902900  0.54626100  1
  H  217  1  0.21453500  0.10369500  0.58429300  1
  H  219  1  0.05769300  0.17775700  0.55504000  1
  H  222  1  0.61952000  0.11171100  0.17775800  1
  H  223  1  0.56181700  0.10801000  0.18557800  1
  H  224  1  0.57760700  0.13498800  0.17877900  1
  H  229  1  0.66866100  0.17673100  0.23272600  1
  H  230  1  0.66931400  0.14934300  0.24073600  1
  H  231  1  0.72029100  0.15829200  0.23105000  1
  H  235  1  0.71468500  0.17363600  0.19302400  1
  H  237  1  0.55784900  0.09957200  0.22227700  1
  H  240  1  0.61937400  0.16559900  0.09957800  1
  H  241  1  0.56168600  0.16930900  0.09175100  1
  H  242  1  0.57746100  0.14232400  0.09854500  1
  H  247  1  0.66848300  0.10057300  0.04460900  1
  H  248  1  0.66913200  0.12795600  0.03659400  1
  H  249  1  0.72011900  0.11900800  0.04627500  1
  H  253  1  0.71454600  0.10367900  0.08430700  1
  H  255  1  0.55771400  0.17773800  0.05504800  1
  H  257  1  0.11966200  0.24481500  0.25025500  1
  H  258  1  0.14194000  0.25909500  0.26471500  1
  H  259  1  0.89223100  0.25189300  0.26554200  1
  H  261  1  0.05562800  0.25191300  0.29389200  1
  H  263  1  0.65782500  0.24504000  0.52731100  1
  H  264  1  0.63538200  0.25878200  0.51269500  1
  H  265  1  0.88519100  0.25209200  0.51189100  1
  H  267  1  0.72186700  0.25121600  0.48351000  1
  H  269  1  0.61983000  0.24507300  0.75018800  1
  H  270  1  0.64199500  0.25923300  0.76470100  1
  H  271  1  0.39230700  0.25170400  0.76548900  1
  H  273  1  0.55562400  0.25191900  0.79390100  1
  H  275  1  0.15799400  0.24477300  0.02726000  1
  H  276  1  0.13545100  0.25862200  0.01268500  1
  H  277  1  0.38526700  0.25226100  0.01185000  1
  H  279  1  0.22186400  0.25119700  0.98352300  1
  H  282  1  0.61993900  0.03198700  0.52734900  1
  H  283  1  0.64190800  0.01822700  0.51267700  1
  H  284  1  0.39255100  0.02655500  0.51191100  1
  H  288  1  0.55710500  0.02800000  0.48402400  1
  H  291  1  0.15771800  0.03206700  0.24978800  1
  H  292  1  0.13547200  0.01874600  0.26456400  1
  H  293  1  0.38496800  0.02615400  0.26533300  1
  H  297  1  0.22044700  0.02869700  0.29319800  1
  H  298  1  0.87581400  0.02609200  0.77673000  1
  H  303  1  0.64650300  0.03179300  0.76186600  1
  H  304  1  0.65750400  0.01579000  0.74689600  1
  H  306  1  0.72137800  0.02699100  0.79430200  1
  H  309  1  0.12013400  0.03169900  0.02741000  1
  H  310  1  0.14198500  0.01807700  0.01267800  1
  H  311  1  0.89265400  0.02673600  0.01196300  1
  H  315  1  0.05711600  0.02799100  0.98400400  1
  H  318  1  0.04060800  0.13007100  0.33763400  1
  H  319  1  0.04456400  0.10341000  0.32914400  1
  H  320  1  0.01965400  0.12768200  0.32068200  1
  H  325  1  0.22782400  0.16749800  0.30038800  1
  H  326  1  0.25631400  0.14232400  0.30676000  1
  H  327  1  0.25087100  0.16695500  0.31727000  1
  H  331  1  0.11285300  0.19508700  0.32031300  1
  H  333  1  0.16747800  0.08289800  0.31883700  1
  H  336  1  0.73805400  0.12906100  0.43986000  1
  H  337  1  0.73378300  0.10217800  0.44809600  1
  H  338  1  0.75845400  0.12621200  0.45684000  1
  H  343  1  0.54960200  0.16556100  0.47697000  1
  H  344  1  0.52136000  0.14055700  0.47029200  1
  H  345  1  0.52720000  0.16545500  0.46001700  1
  H  349  1  0.66491200  0.19371100  0.45724300  1
  H  351  1  0.61035000  0.08146600  0.45819400  1
  H  354  1  0.54064400  0.13004100  0.83762400  1
  H  355  1  0.54466300  0.10337300  0.82914400  1
  H  356  1  0.51974100  0.12762900  0.82066900  1
  H  361  1  0.72791400  0.16748400  0.80040400  1
  H  362  1  0.75641900  0.14232300  0.80678900  1
  H  363  1  0.75092600  0.16696000  0.81729200  1
  H  367  1  0.61287000  0.19506100  0.82030800  1
  H  369  1  0.66756700  0.08287200  0.81890000  1
  H  372  1  0.23804700  0.12908900  0.93985200  1
  H  373  1  0.23377200  0.10220300  0.94808300  1
  H  374  1  0.25844400  0.12623300  0.95683100  1
  H  379  1  0.04959800  0.16557900  0.97696500  1
  H  380  1  0.02135300  0.14057800  0.97028400  1
  H  381  1  0.02719300  0.16548000  0.96001200  1
  H  385  1  0.16490400  0.19373500  0.95723700  1
  H  387  1  0.11033500  0.08148900  0.95818300  1
  H  390  1  0.40837000  0.22191300  0.40190400  1
  H  391  1  0.46063000  0.23766100  0.40692300  1
  H  392  1  0.45589600  0.22746400  0.39013900  1
  H  394  1  0.31788400  0.24987400  0.36398500  1
  H  397  1  0.90835600  0.22192300  0.90189900  1
  H  398  1  0.96061600  0.23767100  0.90691600  1
  H  399  1  0.95588200  0.22747100  0.89013300  1
  H  401  1  0.81787800  0.24988100  0.86397600  1
  H  404  1  0.90827600  0.05531300  0.37537200  1
  H  405  1  0.96062000  0.03960200  0.37038400  1
  H  406  1  0.95577300  0.04983100  0.38715700  1
  H  408  1  0.81738200  0.02730300  0.41327500  1
  H  412  1  0.18201900  0.20702700  0.65796900  1
  H  413  1  0.18849000  0.19830800  0.64095100  1
  H  414  1  0.23389100  0.21584800  0.64844200  1
  H  419  1  0.06794000  0.22641500  0.61694700  1
  H  423  1  0.18212200  0.07031500  0.61934300  1
  H  424  1  0.18862000  0.07901700  0.63636300  1
  H  425  1  0.23396800  0.06145200  0.62886800  1
  H  430  1  0.06785400  0.05096500  0.66032500  1
  H  433  1  0.40810000  0.05535800  0.87534300  1
  H  434  1  0.46045900  0.03966500  0.87034500  1
  H  435  1  0.45563000  0.04989200  0.88712000  1
  H  437  1  0.31732900  0.02732000  0.91326000  1
  H  441  1  0.68202200  0.20701500  0.15797800  1
  H  442  1  0.68850000  0.19829600  0.14096100  1
  H  443  1  0.73389600  0.21583600  0.14845300  1
  H  448  1  0.56796000  0.22640000  0.11695400  1
  H  452  1  0.68209100  0.07028700  0.11936400  1
  H  453  1  0.68860600  0.07899000  0.13638300  1
  H  454  1  0.73396500  0.06144000  0.12888100  1
  H  459  1  0.56794100  0.05090100  0.16036500  1
  H  469  1  0.17977900  0.28890500  0.30418700  1
  H  470  1  0.39164600  0.30889000  0.33933100  1
  H  471  1  0.25757500  0.30412800  0.30870100  1
  H  481  1  0.25148000  0.51844900  0.43498900  1
  H  490  1  0.17956000  0.48843000  0.47316000  1
  H  491  1  0.39147500  0.46841700  0.43805200  1
  H  492  1  0.09196700  0.56270600  0.47856000  1
  H  493  1  0.25730100  0.47316700  0.46863900  1
  H  494  1  0.23545500  0.54536400  0.45127800  1
  H  505  1  0.52035700  0.52240600  0.34128900  1
  H  514  1  0.59710600  0.48989400  0.30413200  1
  H  515  1  0.38509200  0.46970700  0.33948500  1
  H  516  1  0.68648300  0.56364400  0.29867400  1
  H  517  1  0.52283000  0.47315500  0.30956700  1
  H  518  1  0.54103400  0.54760300  0.32527900  1
  H  532  1  0.59691300  0.28743900  0.47317300  1
  H  533  1  0.38492400  0.30757800  0.43781200  1
  H  534  1  0.52258600  0.30413700  0.46775400  1
  H  544  1  0.77573200  0.76847600  0.68500400  1
  H  553  1  0.84762300  0.73841900  0.72315700  1
  H  554  1  0.63572200  0.71844900  0.68804500  1
  H  555  1  0.93515400  0.81271300  0.72861400  1
  H  556  1  0.76984500  0.72318500  0.71864900  1
  H  557  1  0.79175900  0.79538900  0.70130100  1
  H  568  1  0.77566600  0.50883400  0.59226700  1
  H  577  1  0.84745800  0.53888600  0.55406400  1
  H  578  1  0.63571400  0.55889400  0.58925100  1
  H  579  1  0.93645900  0.46535200  0.54882400  1
  H  580  1  0.76978600  0.55415200  0.55863400  1
  H  581  1  0.79174800  0.48193000  0.57597400  1
  H  592  1  0.50693800  0.50491500  0.68602200  1
  H  601  1  0.43021800  0.53744600  0.72317400  1
  H  602  1  0.64223200  0.55760300  0.68781500  1
  H  603  1  0.34089800  0.46367300  0.72866300  1
  H  604  1  0.50453400  0.55416400  0.71774800  1
  H  605  1  0.48629400  0.47972000  0.70204400  1
  H  616  1  0.50707300  0.77246100  0.59126800  1
  H  625  1  0.43035700  0.73990900  0.55413100  1
  H  626  1  0.64234200  0.71975600  0.58949500  1
  H  627  1  0.34107100  0.81368100  0.54860600  1
  H  628  1  0.50467300  0.72320000  0.55954900  1
  H  629  1  0.48642900  0.79765600  0.57524500  1
  H  643  1  0.67975700  0.28888200  0.80417300  1
  H  644  1  0.89160300  0.30890600  0.83932000  1
  H  645  1  0.75753100  0.30412000  0.80869100  1
  H  655  1  0.75143300  0.51846500  0.93497900  1
  H  664  1  0.67953400  0.48843700  0.97315100  1
  H  665  1  0.89143600  0.46843600  0.93803400  1
  H  666  1  0.59194100  0.56271100  0.97856000  1
  H  667  1  0.75728300  0.47318200  0.96862800  1
  H  668  1  0.73541700  0.54537700  0.95127200  1
  H  679  1  0.02017200  0.52246900  0.84122000  1
  H  688  1  0.09680900  0.48990500  0.80404200  1
  H  689  1  0.88496100  0.46973800  0.83947400  1
  H  690  1  0.18752200  0.56293100  0.79873200  1
  H  691  1  0.02260200  0.47316900  0.80952300  1
  H  692  1  0.04091600  0.54764800  0.82520500  1
  H  706  1  0.09693100  0.28746600  0.97315700  1
  H  707  1  0.88492100  0.30759400  0.93780100  1
  H  708  1  0.02259100  0.30416000  0.96774300  1
  H  718  1  0.27572300  0.76848300  0.18500800  1
  H  727  1  0.34761800  0.73844800  0.22317000  1
  H  728  1  0.13574600  0.71843700  0.18805100  1
  H  729  1  0.43515700  0.81272900  0.22861200  1
  H  730  1  0.26986800  0.72319900  0.21865600  1
  H  731  1  0.29173200  0.79540100  0.20130100  1
  H  742  1  0.27570600  0.50881900  0.09227700  1
  H  751  1  0.34747200  0.53887800  0.05407300  1
  H  752  1  0.13574500  0.55887300  0.08926900  1
  H  753  1  0.43648100  0.46534300  0.04882600  1
  H  754  1  0.26979600  0.55413600  0.05864500  1
  H  755  1  0.29178300  0.48191500  0.07598100  1
  H  766  1  0.00712500  0.50485800  0.18608900  1
  H  775  1  0.93052100  0.53742000  0.22327100  1
  H  776  1  0.14235700  0.55757900  0.18782800  1
  H  777  1  0.83985000  0.46437700  0.22859400  1
  H  778  1  0.00475400  0.55414600  0.21779300  1
  H  779  1  0.98642200  0.47967500  0.20211100  1
  H  790  1  0.00706300  0.77244300  0.09127100  1
  H  799  1  0.93034300  0.73989000  0.05413400  1
  H  800  1  0.14233100  0.71974000  0.08949900  1
  H  801  1  0.84109000  0.81367700  0.04860500  1
  H  802  1  0.00466300  0.72318000  0.05955400  1
  H  803  1  0.98642200  0.79763700  0.07524600  1
  H  814  1  0.75150600  0.75881800  0.34233700  1
  H  823  1  0.67965100  0.78885300  0.30418800  1
  H  824  1  0.89139200  0.80893800  0.33937700  1
  H  825  1  0.64404100  0.71338600  0.28675400  1
  H  826  1  0.75758900  0.80407900  0.30868300  1
  H  827  1  0.73500500  0.73187400  0.32617700  1
  H  840  1  0.67936700  0.98842100  0.47305100  1
  H  841  1  0.89131200  0.96834400  0.43798100  1
  H  842  1  0.75740000  0.97320400  0.46863400  1
  H  854  1  0.09732200  0.98990300  0.30424600  1
  H  855  1  0.88520900  0.96963900  0.33951800  1
  H  856  1  0.02277900  0.97320400  0.30956400  1
  H  865  1  0.02023700  0.75485500  0.43603100  1
  H  874  1  0.09704900  0.78736600  0.47316000  1
  H  875  1  0.88513600  0.80762800  0.43779300  1
  H  876  1  0.13496800  0.71228700  0.49089300  1
  H  877  1  0.02261100  0.80407300  0.46777300  1
  H  878  1  0.04148400  0.72962000  0.45189600  1
  H  883  1  0.27583800  0.26850600  0.68501300  1
  H  890  1  0.38334100  0.31394600  0.74058600  1
  H  891  1  0.29234600  0.29545000  0.70117100  1
  H  894  1  0.27570400  0.00882000  0.59228000  1
  H  901  1  0.38312600  0.96346600  0.53665600  1
  H  902  1  0.29222500  0.98187800  0.57611800  1
  H  905  1  0.00698600  0.00492200  0.68599400  1
  H  912  1  0.89378500  0.96258200  0.74110800  1
  H  913  1  0.98582000  0.97967300  0.70185600  1
  H  916  1  0.00704500  0.27248000  0.59126200  1
  H  923  1  0.89232600  0.31504500  0.53639900  1
  H  924  1  0.98586000  0.29771200  0.57538700  1
  H  933  1  0.25151800  0.75881100  0.84232300  1
  H  942  1  0.17963700  0.78885400  0.80418000  1
  H  943  1  0.39136600  0.80895500  0.83936900  1
  H  944  1  0.14404500  0.71338400  0.78673800  1
  H  945  1  0.25757200  0.80408300  0.80867200  1
  H  946  1  0.23504000  0.73187200  0.82615500  1
  H  959  1  0.17938000  0.98844700  0.97305200  1
  H  960  1  0.39129300  0.96836500  0.93796500  1
  H  961  1  0.25740000  0.97322700  0.96862300  1
  H  972  1  0.59697500  0.98993900  0.80413300  1
  H  973  1  0.38508500  0.96967700  0.83950300  1
  H  974  1  0.52254900  0.97323200  0.80951300  1
  H  983  1  0.52023700  0.75486900  0.93602700  1
  H  992  1  0.59705100  0.78738500  0.97315400  1
  H  993  1  0.38513900  0.80764300  0.93778500  1
  H  994  1  0.63496700  0.71230400  0.99089000  1
  H  995  1  0.52260700  0.80409000  0.96776700  1
  H  996  1  0.54147600  0.72963600  0.95189400  1
  H  1001  1  0.77584500  0.26850400  0.18502400  1
  H  1008  1  0.88333800  0.31395000  0.24059800  1
  H  1009  1  0.79232800  0.29544600  0.20118800  1
  H  1012  1  0.77574300  0.00880300  0.09229300  1
  H  1019  1  0.88313000  0.96346100  0.03665800  1
  H  1020  1  0.79224400  0.98186300  0.07612800  1
  H  1023  1  0.50717500  0.00484600  0.18607000  1
  H  1030  1  0.39253600  0.96236500  0.24098000  1
  H  1031  1  0.48593600  0.97961800  0.20194200  1
  H  1034  1  0.50705500  0.27246300  0.09126800  1
  H  1041  1  0.39234700  0.31504200  0.03641000  1
  H  1042  1  0.48587100  0.29769500  0.07539500  1
  H  1047  1  0.40791000  0.41561900  0.34958500  1
  H  1048  1  0.46560900  0.41933300  0.34176400  1
  H  1049  1  0.44985200  0.39235200  0.34856500  1
  H  1054  1  0.35901700  0.35050300  0.29463400  1
  H  1055  1  0.35834200  0.37787600  0.28660600  1
  H  1056  1  0.30734400  0.36892200  0.29628100  1
  H  1060  1  0.31285900  0.35365900  0.33433400  1
  H  1062  1  0.46968000  0.42770200  0.30505900  1
  H  1065  1  0.40767300  0.36167800  0.42775400  1
  H  1066  1  0.46539000  0.35797000  0.43556200  1
  H  1067  1  0.44960800  0.38494900  0.42876100  1
  H  1072  1  0.35876900  0.42674700  0.48271700  1
  H  1073  1  0.35809700  0.39936500  0.49073500  1
  H  1074  1  0.30710300  0.40832600  0.48106000  1
  H  1078  1  0.31267200  0.42364500  0.44301600  1
  H  1080  1  0.46947900  0.34956300  0.47226000  1
  H  1083  1  0.61949800  0.61168700  0.67775500  1
  H  1084  1  0.56175900  0.60799500  0.68555600  1
  H  1085  1  0.57757800  0.63496500  0.67875200  1
  H  1090  1  0.66835500  0.67677500  0.73271500  1
  H  1091  1  0.66901500  0.64939600  0.74073400  1
  H  1092  1  0.72001700  0.65835100  0.73106300  1
  H  1096  1  0.71447700  0.67366800  0.69301600  1
  H  1098  1  0.55765600  0.59958800  0.72225700  1
  H  1101  1  0.61957400  0.66566300  0.59955600  1
  H  1102  1  0.56185400  0.66936300  0.59174900  1
  H  1103  1  0.57765400  0.64238700  0.59854700  1
  H  1108  1  0.66835900  0.60056800  0.54458900  1
  H  1109  1  0.66904400  0.62794600  0.53656800  1
  H  1110  1  0.72004600  0.61897600  0.54623600  1
  H  1114  1  0.71451300  0.60366100  0.58428500  1
  H  1116  1  0.55776100  0.67777900  0.55504600  1
  H  1119  1  0.90775800  0.41565000  0.84956700  1
  H  1120  1  0.96546000  0.41936100  0.84175200  1
  H  1121  1  0.94970300  0.39238300  0.84855700  1
  H  1126  1  0.85894800  0.35050000  0.79462300  1
  H  1127  1  0.85826200  0.37786700  0.78659200  1
  H  1128  1  0.80726000  0.36891000  0.79626600  1
  H  1132  1  0.81276000  0.35366200  0.83432000  1
  H  1134  1  0.96955300  0.42772000  0.80504400  1
  H  1137  1  0.90765200  0.36169200  0.92774100  1
  H  1138  1  0.96537600  0.35798600  0.93554800  1
  H  1139  1  0.94958700  0.38496400  0.92874600  1
  H  1144  1  0.85876600  0.42676800  0.98270200  1
  H  1145  1  0.85809800  0.39938800  0.99072200  1
  H  1146  1  0.80710000  0.40834700  0.98104800  1
  H  1150  1  0.81265500  0.42366200  0.94300200  1
  H  1152  1  0.96947600  0.34958600  0.97224600  1
  H  1155  1  0.11962800  0.61166100  0.17777400  1
  H  1156  1  0.06188600  0.60796800  0.18557200  1
  H  1157  1  0.07769900  0.63493500  0.17876300  1
  H  1162  1  0.16841600  0.67678400  0.23272500  1
  H  1163  1  0.16909200  0.64940800  0.24074800  1
  H  1164  1  0.22009200  0.65836900  0.23107500  1
  H  1168  1  0.21455300  0.67367000  0.19302700  1
  H  1170  1  0.05777600  0.59957300  0.22227400  1
  H  1173  1  0.11957400  0.66564700  0.09956400  1
  H  1174  1  0.06185100  0.66934800  0.09175700  1
  H  1175  1  0.07765100  0.64237100  0.09855700  1
  H  1180  1  0.16836400  0.60054700  0.04460100  1
  H  1181  1  0.16904700  0.62792200  0.03657800  1
  H  1182  1  0.22005000  0.61895600  0.04624800  1
  H  1186  1  0.21451700  0.60364600  0.08429700  1
  H  1188  1  0.05776400  0.67775700  0.05505200  1
  H  1191  1  0.90802000  0.91555600  0.34960100  1
  H  1192  1  0.96567900  0.91927800  0.34176000  1
  H  1193  1  0.94994000  0.89228600  0.34855100  1
  H  1198  1  0.85877300  0.85054800  0.29463300  1
  H  1199  1  0.85812700  0.87793100  0.28661800  1
  H  1200  1  0.80715100  0.86899100  0.29630500  1
  H  1204  1  0.81271700  0.85368600  0.33433600  1
  H  1206  1  0.96961800  0.92768800  0.30505700  1
  H  1209  1  0.90789300  0.86171400  0.42773700  1
  H  1210  1  0.96557300  0.85799900  0.43556700  1
  H  1211  1  0.94981600  0.88498600  0.42877200  1
  H  1216  1  0.85865200  0.92670700  0.48270700  1
  H  1217  1  0.85801800  0.89932000  0.49071900  1
  H  1218  1  0.80703800  0.90826000  0.48103000  1
  H  1222  1  0.81264400  0.92359500  0.44300300  1
  H  1224  1  0.96954900  0.84957500  0.47226400  1
  H  1227  1  0.40789600  0.91559600  0.84958100  1
  H  1228  1  0.46555800  0.91931700  0.84174200  1
  H  1229  1  0.44983000  0.89232700  0.84853800  1
  H  1234  1  0.35871900  0.85054800  0.79462200  1
  H  1235  1  0.35805500  0.87792800  0.78660400  1
  H  1236  1  0.30708100  0.86898200  0.79629200  1
  H  1240  1  0.31265500  0.85369500  0.83432500  1
  H  1242  1  0.46950100  0.92771600  0.80503800  1
  H  1245  1  0.40788500  0.86173100  0.92772900  1
  H  1246  1  0.46556500  0.85801500  0.93555700  1
  H  1247  1  0.44980800  0.88500200  0.92876300  1
  H  1252  1  0.35865700  0.92672900  0.98269600  1
  H  1253  1  0.35802300  0.89934400  0.99070800  1
  H  1254  1  0.30704200  0.90828300  0.98102100  1
  H  1258  1  0.31264300  0.92361400  0.94299300  1
  H  1260  1  0.46954500  0.84959600  0.97225500  1
  H  1262  1  0.12577500  0.27536700  0.25030400  1
  H  1267  1  0.89672400  0.28262300  0.26504500  1
  H  1268  1  0.90746200  0.26752800  0.28035000  1
  H  1272  1  0.97146700  0.27619500  0.23290400  1
  H  1275  1  0.11890000  0.53453700  0.52675100  1
  H  1276  1  0.14171100  0.51976700  0.51252400  1
  H  1277  1  0.12628300  0.50405700  0.52721000  1
  H  1282  1  0.89745700  0.49401900  0.51263700  1
  H  1283  1  0.90761200  0.50855600  0.49711900  1
  H  1284  1  0.89180000  0.52468300  0.51169500  1
  H  1288  1  0.97267100  0.50385800  0.54496700  1
  H  1290  1  0.05535700  0.52537700  0.48342000  1
  H  1293  1  0.65860200  0.53422500  0.25029800  1
  H  1294  1  0.63565600  0.52004200  0.26470700  1
  H  1295  1  0.65102600  0.50374700  0.25023700  1
  H  1300  1  0.87972400  0.49383600  0.26489300  1
  H  1301  1  0.86969300  0.50883200  0.28026600  1
  H  1302  1  0.88567600  0.52450800  0.26553600  1
  H  1306  1  0.80456500  0.50306500  0.23243500  1
  H  1308  1  0.72212600  0.52605300  0.29385100  1
  H  1310  1  0.65143500  0.27557200  0.52691100  1
  H  1315  1  0.88041300  0.28282400  0.51209400  1
  H  1316  1  0.86978400  0.26727700  0.49693900  1
  H  1320  1  0.80570600  0.27693700  0.54435200  1
  H  1323  1  0.90772100  0.78251400  0.77708400  1
  H  1324  1  0.88544600  0.76823400  0.76262300  1
  H  1325  1  0.90161200  0.75196100  0.77703400  1
  H  1330  1  0.13065900  0.74470400  0.76229400  1
  H  1331  1  0.11992200  0.75979900  0.74698800  1
  H  1332  1  0.13515500  0.77543400  0.76179500  1
  H  1336  1  0.05592100  0.75113600  0.79443400  1
  H  1338  1  0.97176300  0.77541500  0.73344600  1
  H  1341  1  0.36857300  0.49278000  0.77695100  1
  H  1342  1  0.39164600  0.50712800  0.76261100  1
  H  1343  1  0.37638600  0.52324400  0.77715900  1
  H  1348  1  0.14773100  0.53364200  0.76245500  1
  H  1349  1  0.15774000  0.51872300  0.74705400  1
  H  1350  1  0.14166300  0.50297900  0.76175100  1
  H  1354  1  0.22278400  0.52422200  0.79489600  1
  H  1356  1  0.30521500  0.50122200  0.73350900  1
  H  1359  1  0.36946600  0.78223900  0.49997600  1
  H  1360  1  0.39188000  0.76856300  0.51461500  1
  H  1361  1  0.37579800  0.75170700  0.50042700  1
  H  1366  1  0.14686500  0.74451500  0.51521900  1
  H  1367  1  0.15745900  0.76007800  0.53037000  1
  H  1368  1  0.14203700  0.77524600  0.51541200  1
  H  1372  1  0.22156000  0.75041200  0.48295300  1
  H  1374  1  0.30542800  0.77611800  0.54381300  1
  H  1376  1  0.62574600  0.27563400  0.75034700  1
  H  1381  1  0.39663600  0.28244300  0.76505900  1
  H  1382  1  0.40743300  0.26726100  0.78033200  1
  H  1386  1  0.47145200  0.27619600  0.73288800  1
  H  1389  1  0.61886700  0.53454700  0.02674300  1
  H  1390  1  0.64168500  0.51976800  0.01251600  1
  H  1391  1  0.62626700  0.50406900  0.02721100  1
  H  1396  1  0.39744200  0.49400500  0.01264300  1
  H  1397  1  0.40758600  0.50852300  0.99711800  1
  H  1398  1  0.39177400  0.52466500  0.01168900  1
  H  1402  1  0.47271100  0.50383400  0.04495800  1
  H  1404  1  0.55531800  0.52538400  0.98341700  1
  H  1406  1  0.15140800  0.27530000  0.02695900  1
  H  1411  1  0.38032500  0.28298700  0.01210800  1
  H  1412  1  0.36975800  0.26750700  0.99692600  1
  H  1416  1  0.30573500  0.27689600  0.04436100  1
  H  1419  1  0.40755300  0.78220200  0.27716500  1
  H  1420  1  0.38539800  0.76810200  0.26263100  1
  H  1421  1  0.40166200  0.75164100  0.27696200  1
  H  1426  1  0.63074600  0.74488200  0.26226900  1
  H  1427  1  0.61997600  0.76007800  0.24700000  1
  H  1428  1  0.63511600  0.77562100  0.26184800  1
  H  1432  1  0.55594900  0.75113700  0.29444800  1
  H  1434  1  0.47173700  0.77539300  0.23341800  1
  H  1437  1  0.86946000  0.78230300  0.99999100  1
  H  1438  1  0.89189500  0.76855900  0.01461200  1
  H  1439  1  0.87584300  0.75177100  0.00039100  1
  H  1444  1  0.64686100  0.74453100  0.01521000  1
  H  1445  1  0.65748900  0.76007600  0.03036600  1
  H  1446  1  0.64209000  0.77526300  0.01541300  1
  H  1450  1  0.72157800  0.75042300  0.98294600  1
  H  1452  1  0.80541800  0.77613500  0.04379500  1
  H  1453  1  0.62568400  0.00142500  0.52688300  1
  H  1458  1  0.39626800  0.99579000  0.51204900  1
  H  1459  1  0.40745100  0.01134400  0.49692700  1
  H  1461  1  0.47120800  0.00107900  0.54438000  1
  H  1462  1  0.15146600  0.00154300  0.25050200  1
  H  1467  1  0.38075500  0.99540200  0.26542900  1
  H  1468  1  0.36977300  0.01133300  0.28042600  1
  H  1470  1  0.30596600  0.00037700  0.23300300  1
  H  1473  1  0.86976300  0.99557100  0.77759100  1
  H  1474  1  0.89190200  0.00871400  0.76275000  1
  H  1475  1  0.64238900  0.00103800  0.76201900  1
  H  1479  1  0.80690600  0.99866800  0.73407900  1
  H  1480  1  0.12567900  0.00113600  0.02682600  1
  H  1485  1  0.89620300  0.99596400  0.01202700  1
  H  1486  1  0.90744400  0.01161200  0.99694200  1
  H  1488  1  0.97121900  0.00104800  0.04438900  1
  H  1491  1  0.04055400  0.64728200  0.43965800  1
  H  1492  1  0.04468000  0.67396400  0.44811800  1
  H  1493  1  0.01973300  0.64974000  0.45661800  1
  H  1498  1  0.22788400  0.60982000  0.47685100  1
  H  1499  1  0.25642500  0.63494900  0.47043900  1
  H  1500  1  0.25083500  0.61029100  0.45995700  1
  H  1504  1  0.11274600  0.58224800  0.45696900  1
  H  1506  1  0.16761800  0.69442700  0.45833900  1
  H  1509  1  0.73803900  0.64830900  0.33751100  1
  H  1510  1  0.73363300  0.67520200  0.32929400  1
  H  1511  1  0.75835200  0.65120300  0.32052600  1
  H  1516  1  0.54957700  0.61174100  0.30042300  1
  H  1517  1  0.52127200  0.63671300  0.30712300  1
  H  1518  1  0.52721400  0.61180000  0.31738100  1
  H  1522  1  0.66501800  0.58363400  0.32011500  1
  H  1524  1  0.61018600  0.69585900  0.31926900  1
  H  1527  1  0.98676100  0.89723900  0.68968700  1
  H  1528  1  0.98279600  0.92390400  0.69817200  1
  H  1529  1  0.00770800  0.89964000  0.70663800  1
  H  1534  1  0.79953500  0.85982700  0.72693500  1
  H  1535  1  0.77104100  0.88499700  0.72055600  1
  H  1536  1  0.77649400  0.86036000  0.71005100  1
  H  1540  1  0.91451600  0.83222900  0.70701300  1
  H  1542  1  0.85987800  0.94441900  0.70847300  1
  H  1545  1  0.98703500  0.38006900  0.58756800  1
  H  1546  1  0.98280400  0.35336800  0.57913100  1
  H  1547  1  0.00772700  0.37756300  0.57059700  1
  H  1552  1  0.79949500  0.41752500  0.55045700  1
  H  1553  1  0.77096800  0.39240500  0.55689200  1
  H  1554  1  0.77664400  0.41707500  0.56736100  1
  H  1558  1  0.91484800  0.44508600  0.57019500  1
  H  1560  1  0.85977600  0.33292200  0.56897100  1
  H  1563  1  0.28929800  0.37901500  0.68982900  1
  H  1564  1  0.29370700  0.35212300  0.69805000  1
  H  1565  1  0.26898700  0.37612600  0.70681500  1
  H  1570  1  0.47776600  0.41559100  0.72691300  1
  H  1571  1  0.50607000  0.39061900  0.72021500  1
  H  1572  1  0.50012500  0.41553200  0.70995500  1
  H  1576  1  0.36232300  0.44369600  0.70721600  1
  H  1578  1  0.41715700  0.33147200  0.70807000  1
  H  1581  1  0.28930600  0.89829900  0.58743800  1
  H  1582  1  0.29364400  0.92519000  0.57921600  1
  H  1583  1  0.26896000  0.90117700  0.57045500  1
  H  1588  1  0.47781700  0.86178800  0.55035400  1
  H  1589  1  0.50607400  0.88677800  0.55704700  1
  H  1590  1  0.50017600  0.86187000  0.56731200  1
  H  1594  1  0.36242800  0.83364900  0.57005600  1
  H  1596  1  0.41707600  0.94589200  0.56918300  1
  H  1599  1  0.54053100  0.64729800  0.93965800  1
  H  1600  1  0.54466000  0.67398000  0.94811900  1
  H  1601  1  0.51971100  0.64975600  0.95661900  1
  H  1606  1  0.72785900  0.60982800  0.97685000  1
  H  1607  1  0.75640400  0.63496000  0.97043600  1
  H  1608  1  0.75080500  0.61030100  0.95995600  1
  H  1612  1  0.61271400  0.58226200  0.95697000  1
  H  1614  1  0.66760400  0.69443900  0.95833800  1
  H  1617  1  0.23831400  0.64827700  0.83741300  1
  H  1618  1  0.23380500  0.67519300  0.82922500  1
  H  1619  1  0.25849800  0.65122900  0.82042000  1
  H  1624  1  0.04963100  0.61173800  0.80040700  1
  H  1625  1  0.02134700  0.63669200  0.80713300  1
  H  1626  1  0.02737600  0.61176700  0.81737500  1
  H  1630  1  0.16529500  0.58363100  0.81995100  1
  H  1632  1  0.11026900  0.69584000  0.81926100  1
  H  1635  1  0.48669500  0.89728300  0.18970200  1
  H  1636  1  0.48267500  0.92395300  0.19817900  1
  H  1637  1  0.50759800  0.89969900  0.20665600  1
  H  1642  1  0.29942700  0.85984500  0.22692400  1
  H  1643  1  0.27091900  0.88500400  0.22053800  1
  H  1644  1  0.27641800  0.86036400  0.21003700  1
  H  1648  1  0.41447600  0.83226800  0.20702300  1
  H  1650  1  0.35976900  0.94445400  0.20842400  1
  H  1653  1  0.48706300  0.38005700  0.08757000  1
  H  1654  1  0.48282500  0.35335400  0.07913600  1
  H  1655  1  0.50774800  0.37754700  0.07059900  1
  H  1660  1  0.29951300  0.41751200  0.05046200  1
  H  1661  1  0.27098600  0.39239700  0.05689900  1
  H  1662  1  0.27667200  0.41706600  0.06736700  1
  H  1666  1  0.41488100  0.44507400  0.07019600  1
  H  1668  1  0.35978800  0.33291000  0.06897600  1
  H  1671  1  0.78904500  0.37903600  0.18991500  1
  H  1672  1  0.79355300  0.35212300  0.19810700  1
  H  1673  1  0.76886000  0.37609100  0.20690900  1
  H  1678  1  0.97771900  0.41559100  0.22692000  1
  H  1679  1  0.00600500  0.39063500  0.22019700  1
  H  1680  1  0.99997600  0.41555700  0.20995200  1
  H  1684  1  0.86205900  0.44369100  0.20737100  1
  H  1686  1  0.91709200  0.33148400  0.20806900  1
  H  1689  1  0.78931800  0.89828100  0.08744200  1
  H  1690  1  0.79365500  0.92517300  0.07922000  1
  H  1691  1  0.76896900  0.90116000  0.07046000  1
  H  1696  1  0.97782100  0.86177100  0.05035600  1
  H  1697  1  0.00607800  0.88675900  0.05704900  1
  H  1698  1  0.00018000  0.86185100  0.06731300  1
  H  1702  1  0.86243500  0.83363200  0.07006000  1
  H  1704  1  0.91708800  0.94587300  0.06918600  1
  H  1708  1  0.34489900  0.32025500  0.36939200  1
  H  1709  1  0.33837000  0.32890100  0.38642000  1
  H  1710  1  0.29309100  0.31131700  0.37890800  1
  H  1715  1  0.45926300  0.30088300  0.41035600  1
  H  1718  1  0.40798300  0.55536100  0.37532800  1
  H  1719  1  0.46037100  0.53969500  0.37032300  1
  H  1720  1  0.45558600  0.54995200  0.38709200  1
  H  1725  1  0.34547600  0.45703500  0.40799700  1
  H  1726  1  0.33893400  0.44830600  0.39098300  1
  H  1727  1  0.29354500  0.46583600  0.39848800  1
  H  1731  1  0.31746200  0.52734500  0.41329900  1
  H  1733  1  0.45935700  0.47642600  0.36694800  1
  H  1736  1  0.61940300  0.80539200  0.62531100  1
  H  1737  1  0.56698600  0.78974200  0.62031500  1
  H  1738  1  0.57180000  0.80001900  0.63708000  1
  H  1743  1  0.68179600  0.70706600  0.65799900  1
  H  1744  1  0.68835400  0.69833900  0.64098500  1
  H  1745  1  0.73373900  0.71586300  0.64849400  1
  H  1749  1  0.70984100  0.77737100  0.66330100  1
  H  1751  1  0.56796000  0.72647200  0.61693800  1
  H  1754  1  0.61927200  0.47195900  0.65198300  1
  H  1755  1  0.56688700  0.48762700  0.65698600  1
  H  1756  1  0.57166900  0.47736300  0.64021900  1
  H  1761  1  0.68171900  0.57027000  0.61929000  1
  H  1762  1  0.68829900  0.57900800  0.63630100  1
  H  1763  1  0.73367300  0.56147700  0.62879200  1
  H  1767  1  0.70974200  0.49995600  0.61399500  1
  H  1769  1  0.56791600  0.55090600  0.66035500  1
  H  1773  1  0.84490200  0.32026200  0.86938000  1
  H  1774  1  0.83836900  0.32891200  0.88640900  1
  H  1775  1  0.79309000  0.31132700  0.87889800  1
  H  1780  1  0.95925600  0.30089500  0.91034600  1
  H  1783  1  0.90782300  0.55540100  0.87530300  1
  H  1784  1  0.96021500  0.53974800  0.87028900  1
  H  1785  1  0.95545500  0.55000400  0.88706000  1
  H  1790  1  0.84547800  0.45706100  0.90797800  1
  H  1791  1  0.83892000  0.44833000  0.89096500  1
  H  1792  1  0.79352400  0.46584700  0.89847500  1
  H  1796  1  0.81739300  0.52736200  0.91328300  1
  H  1798  1  0.95926000  0.47647600  0.86691200  1
  H  1801  1  0.11938800  0.80538500  0.12531400  1
  H  1802  1  0.06697600  0.78973000  0.12031800  1
  H  1803  1  0.07178900  0.80000300  0.13708400  1
  H  1808  1  0.18177800  0.70706100  0.15800800  1
  H  1809  1  0.18834300  0.69833000  0.14099400  1
  H  1810  1  0.23372900  0.71585400  0.14850400  1
  H  1814  1  0.20982800  0.77737000  0.16330700  1
  H  1816  1  0.06796400  0.72645800  0.11694400  1
  H  1819  1  0.11943100  0.47192400  0.15201000  1
  H  1820  1  0.06703900  0.48757800  0.15702200  1
  H  1821  1  0.07179900  0.47731600  0.14025200  1
  H  1826  1  0.18171400  0.57024700  0.11930800  1
  H  1827  1  0.18830900  0.57898900  0.13631800  1
  H  1828  1  0.23369300  0.56147000  0.12880300  1
  H  1832  1  0.20980500  0.49994100  0.11401200  1
  H  1834  1  0.06801100  0.55086100  0.16039200  1
  H  1837  1  0.90848700  0.72195800  0.40188200  1
  H  1838  1  0.96074800  0.73771900  0.40688400  1
  H  1839  1  0.95594000  0.72753600  0.39009900  1
  H  1844  1  0.84466800  0.82029800  0.36942200  1
  H  1845  1  0.83823000  0.82893400  0.38645700  1
  H  1846  1  0.79293700  0.81133500  0.37896300  1
  H  1850  1  0.81776800  0.74990900  0.36400700  1
  H  1852  1  0.95928500  0.80093400  0.41034500  1
  H  1856  1  0.84508800  0.95698100  0.40793600  1
  H  1857  1  0.83863200  0.94829300  0.39091300  1
  H  1858  1  0.79326900  0.96585300  0.39840300  1
  H  1863  1  0.95944900  0.97637400  0.36697700  1
  H  1866  1  0.11927500  0.30534700  0.62532800  1
  H  1867  1  0.06685900  0.28967900  0.62034900  1
  H  1868  1  0.07174100  0.29994100  0.63711400  1
  H  1870  1  0.20993800  0.27734400  0.66327700  1
  H  1873  1  0.11899400  0.97200800  0.65194200  1
  H  1874  1  0.06665100  0.98772300  0.65692900  1
  H  1875  1  0.07149400  0.97748300  0.64015600  1
  H  1877  1  0.20982400  0.99998700  0.61401700  1
  H  1880  1  0.40848300  0.72197000  0.90187700  1
  H  1881  1  0.46074300  0.73773100  0.90688000  1
  H  1882  1  0.45594000  0.72754500  0.89009500  1
  H  1887  1  0.34467800  0.82030700  0.86941100  1
  H  1888  1  0.33823300  0.82894200  0.88644500  1
  H  1889  1  0.29294200  0.81134400  0.87894900  1
  H  1893  1  0.31778100  0.74991400  0.86399700  1
  H  1895  1  0.45927300  0.80094800  0.91033800  1
  H  1899  1  0.34513400  0.95700500  0.90791900  1
  H  1900  1  0.33866000  0.94831400  0.89089600  1
  H  1901  1  0.29328200  0.96585800  0.89839400  1
  H  1906  1  0.45936100  0.97643100  0.86693500  1
  H  1909  1  0.61929000  0.30533300  0.12533400  1
  H  1910  1  0.56687600  0.28966600  0.12035400  1
  H  1911  1  0.57175300  0.29992900  0.13711900  1
  H  1913  1  0.70993900  0.27733500  0.16328700  1
  H  1916  1  0.61916200  0.97195800  0.15196900  1
  H  1917  1  0.56680700  0.98765600  0.15696400  1
  H  1918  1  0.57163300  0.97742100  0.14019000  1
  H  1920  1  0.70988500  0.99996800  0.11403300  1
  C  2  1  0.21137700  0.23923800  0.31943200  1
  C  3  1  0.17884600  0.22401600  0.31277900  1
  C  4  1  0.14815600  0.23298600  0.30253800  1
  C  5  1  0.14707400  0.25697600  0.29952500  1
  C  11  1  0.56539200  0.23735800  0.45842900  1
  C  12  1  0.59868600  0.22242200  0.46499400  1
  C  13  1  0.62969200  0.23170100  0.47505000  1
  C  14  1  0.63022800  0.25573900  0.47794100  1
  C  20  1  0.71137300  0.23922700  0.81942900  1
  C  21  1  0.67884900  0.22399900  0.81277700  1
  C  22  1  0.64815200  0.23296000  0.80253600  1
  C  23  1  0.64706500  0.25694700  0.79951800  1
  C  29  1  0.06539300  0.23737900  0.95842300  1
  C  30  1  0.09868200  0.22244400  0.96499100  1
  C  31  1  0.12969300  0.23172700  0.97504600  1
  C  32  1  0.13024000  0.25576600  0.97793200  1
  C  38  1  0.71314900  0.01382800  0.46053800  1
  C  39  1  0.71134000  0.03813500  0.45791000  1
  C  40  1  0.67930500  0.05341100  0.46470900  1
  C  41  1  0.64982200  0.04451400  0.47522600  1
  C  42  1  0.64756500  0.02044600  0.47797100  1
  C  48  1  0.06330300  0.01563700  0.31649600  1
  C  49  1  0.06541900  0.04002700  0.31888700  1
  C  50  1  0.09819900  0.05502400  0.31216800  1
  C  51  1  0.12801100  0.04582100  0.30182600  1
  C  52  1  0.12972300  0.02170000  0.29921100  1
  C  58  1  0.27892600  0.24898500  0.70339400  1
  C  59  1  0.26131800  0.25477300  0.69013900  1
  C  60  1  0.22383200  0.24220500  0.68352100  1
  C  61  1  0.20408100  0.22270600  0.69012600  1
  C  62  1  0.22317800  0.21453200  0.70258400  1
  C  63  1  0.25901600  0.22831000  0.70920900  1
  C  65  1  0.34702100  0.25570900  0.72083100  1
  C  71  1  0.27878500  0.02835000  0.57390200  1
  C  72  1  0.26119000  0.02255700  0.58715700  1
  C  73  1  0.22372200  0.03513100  0.59377900  1
  C  74  1  0.20397700  0.05463700  0.58718000  1
  C  75  1  0.22306100  0.06280900  0.57472000  1
  C  76  1  0.25887900  0.04902600  0.56809000  1
  C  78  1  0.34685800  0.02163900  0.55646400  1
  C  84  1  0.99956400  0.02634700  0.70353000  1
  C  85  1  0.01953500  0.01947700  0.69071300  1
  C  86  1  0.05614900  0.03207600  0.68376500  1
  C  87  1  0.07435800  0.05240100  0.68992300  1
  C  88  1  0.05406200  0.06109600  0.70205000  1
  C  89  1  0.01738400  0.04791800  0.70872900  1
  C  91  1  0.93072200  0.02013600  0.72087900  1
  C  97  1  0.99963700  0.25103700  0.57373200  1
  C  98  1  0.01958300  0.25791400  0.58655100  1
  C  99  1  0.05615700  0.24531000  0.59351600  1
  C  100  1  0.07436100  0.22497700  0.58736600  1
  C  101  1  0.05407800  0.21627200  0.57523900  1
  C  102  1  0.01743100  0.22945100  0.56854800  1
  C  104  1  0.93084600  0.25723200  0.55636100  1
  C  111  1  0.21314000  0.01384900  0.96052800  1
  C  112  1  0.21132500  0.03815500  0.95789600  1
  C  113  1  0.17929300  0.05343300  0.96469500  1
  C  114  1  0.14981900  0.04453900  0.97521600  1
  C  115  1  0.14756900  0.02047400  0.97796600  1
  C  122  1  0.56307200  0.01568100  0.81641400  1
  C  123  1  0.56528600  0.04007100  0.81881200  1
  C  124  1  0.59825100  0.05503900  0.81213400  1
  C  125  1  0.62818600  0.04581400  0.80182700  1
  C  126  1  0.62952500  0.02172400  0.79915100  1
  C  132  1  0.77894500  0.24897900  0.20340400  1
  C  133  1  0.76133200  0.25476800  0.19014900  1
  C  134  1  0.72385400  0.24219600  0.18353000  1
  C  135  1  0.70411400  0.22269400  0.19013400  1
  C  136  1  0.72321200  0.21452200  0.20259300  1
  C  137  1  0.75904500  0.22830400  0.20921800  1
  C  139  1  0.84703500  0.25570600  0.22084100  1
  C  145  1  0.77881400  0.02833400  0.07391600  1
  C  146  1  0.76122600  0.02254100  0.08717200  1
  C  147  1  0.72376000  0.03511400  0.09379600  1
  C  148  1  0.70401200  0.05462000  0.08719600  1
  C  149  1  0.72308800  0.06279200  0.07473600  1
  C  150  1  0.75890300  0.04901000  0.06810500  1
  C  152  1  0.84688600  0.02162500  0.05647600  1
  C  158  1  0.49978900  0.02629400  0.20359800  1
  C  159  1  0.51971900  0.01941200  0.19077800  1
  C  160  1  0.55628400  0.03201500  0.18380900  1
  C  161  1  0.57449600  0.05235100  0.18995400  1
  C  162  1  0.55423400  0.06105800  0.20208200  1
  C  163  1  0.51759600  0.04788000  0.20877800  1
  C  165  1  0.43102400  0.02011900  0.22097400  1
  C  171  1  0.49964700  0.25102000  0.07373800  1
  C  172  1  0.51959100  0.25789700  0.08655700  1
  C  173  1  0.55616700  0.24529400  0.09352300  1
  C  174  1  0.57436800  0.22495900  0.08737300  1
  C  175  1  0.55408800  0.21625600  0.07524600  1
  C  176  1  0.51744300  0.22943600  0.06855400  1
  C  178  1  0.43086400  0.25721900  0.05636300  1
  C  184  1  0.09191700  0.11998500  0.68412800  1
  C  185  1  0.11470500  0.12748900  0.69700800  1
  C  190  1  0.16930200  0.15688700  0.70612500  1
  C  191  1  0.15896900  0.14855600  0.71933100  1
  C  192  1  0.18046200  0.15880400  0.73166900  1
  C  197  1  0.10561200  0.11853900  0.71022400  1
  C  198  1  0.19979400  0.17515700  0.70220900  1
  C  200  1  0.07556300  0.09962700  0.71350400  1
  C  202  1  0.09189100  0.15738500  0.59317700  1
  C  203  1  0.11466200  0.14987100  0.58029700  1
  C  208  1  0.16923200  0.12046100  0.57118200  1
  C  209  1  0.15889300  0.12878800  0.55797400  1
  C  210  1  0.18036800  0.11853200  0.54563600  1
  C  215  1  0.10556600  0.15881600  0.56708000  1
  C  216  1  0.19971100  0.10218800  0.57509700  1
  C  218  1  0.07552200  0.17772800  0.56379900  1
  C  220  1  0.59203600  0.11994600  0.18414300  1
  C  221  1  0.61478500  0.12747400  0.19702300  1
  C  226  1  0.66938400  0.15687300  0.20613600  1
  C  227  1  0.65906100  0.14854300  0.21934500  1
  C  228  1  0.68055900  0.15879200  0.23168100  1
  C  233  1  0.60572100  0.11851900  0.21023900  1
  C  234  1  0.69986900  0.17514300  0.20222000  1
  C  236  1  0.57569600  0.09959900  0.21352200  1
  C  238  1  0.59190100  0.15737000  0.09318700  1
  C  239  1  0.61467600  0.14985400  0.08030800  1
  C  244  1  0.66924500  0.12044300  0.07119500  1
  C  245  1  0.65891200  0.12876800  0.05798600  1
  C  246  1  0.68038800  0.11851000  0.04565000  1
  C  251  1  0.60558300  0.15879700  0.06709100  1
  C  252  1  0.69972300  0.10217000  0.07511200  1
  C  254  1  0.57553900  0.17771000  0.06380800  1
  C  256  1  0.11594400  0.26037100  0.25645000  1
  C  260  1  0.07380600  0.26016600  0.28660400  1
  C  262  1  0.66138800  0.26039300  0.52093700  1
  C  266  1  0.70357800  0.25947900  0.49077200  1
  C  268  1  0.61600400  0.26055900  0.75643800  1
  C  272  1  0.57379900  0.26012800  0.78659600  1
  C  274  1  0.16145400  0.26019100  0.02093500  1
  C  278  1  0.20357700  0.25949500  0.99077300  1
  C  280  1  0.61598500  0.01668700  0.52094900  1
  C  281  1  0.56470200  0.01469800  0.51642800  1
  C  286  1  0.54743900  0.01425000  0.50282300  1
  C  287  1  0.57416000  0.01833500  0.49092000  1
  C  289  1  0.16139800  0.01690800  0.25631400  1
  C  290  1  0.21263500  0.01483500  0.26086500  1
  C  295  1  0.22988100  0.01460100  0.27447200  1
  C  296  1  0.20322300  0.01901800  0.28634000  1
  C  300  1  0.73156900  0.01429500  0.77522900  1
  C  301  1  0.71427600  0.01428900  0.76166300  1
  C  302  1  0.66220200  0.01581700  0.75788700  1
  C  305  1  0.70417600  0.01824500  0.78702000  1
  C  307  1  0.11606900  0.01647700  0.02095200  1
  C  308  1  0.06476400  0.01461200  0.01643200  1
  C  313  1  0.04744100  0.01432900  0.00282800  1
  C  314  1  0.07417900  0.01836800  0.99091900  1
  C  316  1  0.04766500  0.12204100  0.32781500  1
  C  317  1  0.09610800  0.12939500  0.32281900  1
  C  322  1  0.14622500  0.16348200  0.31867900  1
  C  323  1  0.18471600  0.14874700  0.31439400  1
  C  324  1  0.23266400  0.15683400  0.30942100  1
  C  329  1  0.13473600  0.11470500  0.31860200  1
  C  330  1  0.14502600  0.18767500  0.31846600  1
  C  332  1  0.13510200  0.09061000  0.31790900  1
  C  334  1  0.73066800  0.12077200  0.44958700  1
  C  335  1  0.68207700  0.12801100  0.45452600  1
  C  340  1  0.63190600  0.16200300  0.45888400  1
  C  341  1  0.59324700  0.14717100  0.46292600  1
  C  342  1  0.54510800  0.15513200  0.46782900  1
  C  347  1  0.64329400  0.11322000  0.45850600  1
  C  348  1  0.63295300  0.18619200  0.45921800  1
  C  350  1  0.64283400  0.08910700  0.45904000  1
  C  352  1  0.54773800  0.12200400  0.82781000  1
  C  353  1  0.59618700  0.12936900  0.82282200  1
  C  358  1  0.64627700  0.16346200  0.81868200  1
  C  359  1  0.68479800  0.14873300  0.81440800  1
  C  360  1  0.73274700  0.15682800  0.80944200  1
  C  365  1  0.63484600  0.11468600  0.81861800  1
  C  366  1  0.64505500  0.18765500  0.81846600  1
  C  368  1  0.63521800  0.09059400  0.81793300  1
  C  370  1  0.23065800  0.12079700  0.94957700  1
  C  371  1  0.18206900  0.12803400  0.95451800  1
  C  376  1  0.13190100  0.16202700  0.95887900  1
  C  377  1  0.09324000  0.14719400  0.96292000  1
  C  378  1  0.04510300  0.15515400  0.96782300  1
  C  383  1  0.14328200  0.11324300  0.95849500  1
  C  384  1  0.13294600  0.18621600  0.95921500  1
  C  386  1  0.14282100  0.08912900  0.95902600  1
  C  388  1  0.43527700  0.23464700  0.39861100  1
  C  389  1  0.40996700  0.25592400  0.39417700  1
  C  395  1  0.93526300  0.23465600  0.89860500  1
  C  396  1  0.90995700  0.25593300  0.89416900  1
  C  402  1  0.93521900  0.04261100  0.37868300  1
  C  403  1  0.90997200  0.02132200  0.38312600  1
  C  409  1  0.17362500  0.25583200  0.64996100  1
  C  410  1  0.16854600  0.23372700  0.64376700  1
  C  411  1  0.19474100  0.21254200  0.64802300  1
  C  416  1  0.11148200  0.24913200  0.62719800  1
  C  417  1  0.20381900  0.26078800  0.66110200  1
  C  418  1  0.08168400  0.24237600  0.61639900  1
  C  420  1  0.17357800  0.02151000  0.62734000  1
  C  421  1  0.16857000  0.04361500  0.63353800  1
  C  422  1  0.19482700  0.06478500  0.62928800  1
  C  427  1  0.11144600  0.02823700  0.65009800  1
  C  428  1  0.20374800  0.01654400  0.61619700  1
  C  429  1  0.08159200  0.03500700  0.66088100  1
  C  431  1  0.43506900  0.04266500  0.87864900  1
  C  432  1  0.40986900  0.02136700  0.88309600  1
  C  438  1  0.67362900  0.25582000  0.14997000  1
  C  439  1  0.66855200  0.23371300  0.14377700  1
  C  440  1  0.69474400  0.21253000  0.14803300  1
  C  445  1  0.61149500  0.24912000  0.12720500  1
  C  446  1  0.70382300  0.26077700  0.16111000  1
  C  447  1  0.58169900  0.24236000  0.11640600  1
  C  449  1  0.67362900  0.02148000  0.12736100  1
  C  450  1  0.66859900  0.04358300  0.13356100  1
  C  451  1  0.69482100  0.06476100  0.12930700  1
  C  456  1  0.61152800  0.02818400  0.15013000  1
  C  457  1  0.70379400  0.01652300  0.11621400  1
  C  458  1  0.58168500  0.03494400  0.16091800  1
  C  460  1  0.24851100  0.27837700  0.32397200  1
  C  461  1  0.26619100  0.27256000  0.33721400  1
  C  462  1  0.30377800  0.28508500  0.34381500  1
  C  463  1  0.32353800  0.30457800  0.33720600  1
  C  464  1  0.30439400  0.31276900  0.32475800  1
  C  465  1  0.26845700  0.29903100  0.31814700  1
  C  467  1  0.21310100  0.26354700  0.31683200  1
  C  468  1  0.18009000  0.27171200  0.30661900  1
  C  475  1  0.24830000  0.49891600  0.45336400  1
  C  476  1  0.26601500  0.50472700  0.44012400  1
  C  477  1  0.30360800  0.49219500  0.43353300  1
  C  478  1  0.32334800  0.47270300  0.44014900  1
  C  479  1  0.30415800  0.46451600  0.45259300  1
  C  480  1  0.26821100  0.47826100  0.45919500  1
  C  483  1  0.21288700  0.51375900  0.46049600  1
  C  484  1  0.21119100  0.53806300  0.45788200  1
  C  485  1  0.17865300  0.55329800  0.46452100  1
  C  486  1  0.14792600  0.54435100  0.47475800  1
  C  487  1  0.14683800  0.52036700  0.47779000  1
  C  488  1  0.17986500  0.50561500  0.47071100  1
  C  499  1  0.52779000  0.50095200  0.32376600  1
  C  500  1  0.50777000  0.50785500  0.33657100  1
  C  501  1  0.47108700  0.49529000  0.34351200  1
  C  502  1  0.45287200  0.47496500  0.33735700  1
  C  503  1  0.47321400  0.46624000  0.32524400  1
  C  504  1  0.50996500  0.47938100  0.31857200  1
  C  507  1  0.56355300  0.51555400  0.31653700  1
  C  508  1  0.56555600  0.53994400  0.31890800  1
  C  509  1  0.59885700  0.55489400  0.31235800  1
  C  510  1  0.62990400  0.54563500  0.30230500  1
  C  511  1  0.63044400  0.52160300  0.29939600  1
  C  512  1  0.59691300  0.50711200  0.30648200  1
  C  523  1  0.52759700  0.27634500  0.45355300  1
  C  524  1  0.50760600  0.26943700  0.44074600  1
  C  525  1  0.47093800  0.28200200  0.43379800  1
  C  526  1  0.45269700  0.30232300  0.43995100  1
  C  527  1  0.47300600  0.31104700  0.45206900  1
  C  528  1  0.50975000  0.29791100  0.45874700  1
  C  530  1  0.56336000  0.26175000  0.46079000  1
  C  531  1  0.59671200  0.27021400  0.47083900  1
  C  538  1  0.77888000  0.74893600  0.70337600  1
  C  539  1  0.76118600  0.75475200  0.69013500  1
  C  540  1  0.72360300  0.74222100  0.68354000  1
  C  541  1  0.70384500  0.72273000  0.69015100  1
  C  542  1  0.72301200  0.71453900  0.70259700  1
  C  543  1  0.75895400  0.72827900  0.70920300  1
  C  546  1  0.81428500  0.76377100  0.71051200  1
  C  547  1  0.81599900  0.78808100  0.70790800  1
  C  548  1  0.84853400  0.80330400  0.71455800  1
  C  549  1  0.87923100  0.79434100  0.72479800  1
  C  550  1  0.88031800  0.77035200  0.72781500  1
  C  551  1  0.84730500  0.75561200  0.72072400  1
  C  562  1  0.77880700  0.52838000  0.57389600  1
  C  563  1  0.76112700  0.52256200  0.58713900  1
  C  564  1  0.72357700  0.53510100  0.59374600  1
  C  565  1  0.70383400  0.55460200  0.58714000  1
  C  566  1  0.72299400  0.56279600  0.57469400  1
  C  567  1  0.75890300  0.54904900  0.56807900  1
  C  570  1  0.81420100  0.51354800  0.56674900  1
  C  571  1  0.81599200  0.48924200  0.56936800  1
  C  572  1  0.84867700  0.47403200  0.56276200  1
  C  573  1  0.87946800  0.48300200  0.55254800  1
  C  574  1  0.88024900  0.50695300  0.54946800  1
  C  575  1  0.84715900  0.52170400  0.55652000  1
  C  586  1  0.49954100  0.52637200  0.70354600  1
  C  587  1  0.51954000  0.51946700  0.69074000  1
  C  588  1  0.55621800  0.53202900  0.68379300  1
  C  589  1  0.57445600  0.55235100  0.68994800  1
  C  590  1  0.55413200  0.56107500  0.70206600  1
  C  591  1  0.51738100  0.54793700  0.70874100  1
  C  594  1  0.46377400  0.51177300  0.71078000  1
  C  595  1  0.46177200  0.48738300  0.70841500  1
  C  596  1  0.42848200  0.47243800  0.71497200  1
  C  597  1  0.39743900  0.48170400  0.72502400  1
  C  598  1  0.39688800  0.50573900  0.72792400  1
  C  599  1  0.43041500  0.52022400  0.72083100  1
  C  610  1  0.49968000  0.75099700  0.57374800  1
  C  611  1  0.51967100  0.75790500  0.58655500  1
  C  612  1  0.55633500  0.74534100  0.59350200  1
  C  613  1  0.57456900  0.72501400  0.58735200  1
  C  614  1  0.55425600  0.71628900  0.57523500  1
  C  615  1  0.51751600  0.72942800  0.56855600  1
  C  618  1  0.46392800  0.76559400  0.56651300  1
  C  619  1  0.46192100  0.78998800  0.56887200  1
  C  620  1  0.42863500  0.80492800  0.56230700  1
  C  621  1  0.39761000  0.79565200  0.55225400  1
  C  622  1  0.39705900  0.77161400  0.54936400  1
  C  623  1  0.43056800  0.75713300  0.55646500  1
  C  634  1  0.74848500  0.27837200  0.82396500  1
  C  635  1  0.76616800  0.27255800  0.83720700  1
  C  636  1  0.80375100  0.28508600  0.84380600  1
  C  637  1  0.82349900  0.30458400  0.83719600  1
  C  638  1  0.80434600  0.31276900  0.82474800  1
  C  639  1  0.76841500  0.29902600  0.81813800  1
  C  641  1  0.71308000  0.26353500  0.81682500  1
  C  642  1  0.68007400  0.27169100  0.80660900  1
  C  649  1  0.74826700  0.49893000  0.95335300  1
  C  650  1  0.76597500  0.50474200  0.94011300  1
  C  651  1  0.80356200  0.49221200  0.93351900  1
  C  652  1  0.82330900  0.47272000  0.94013400  1
  C  653  1  0.80413100  0.46453300  0.95258000  1
  C  654  1  0.76818500  0.47827500  0.95918300  1
  C  657  1  0.71285700  0.51376900  0.96048800  1
  C  658  1  0.71115800  0.53807600  0.95787800  1
  C  659  1  0.67862300  0.55330900  0.96451800  1
  C  660  1  0.64790000  0.54435800  0.97475600  1
  C  661  1  0.64681300  0.52037400  0.97778500  1
  C  662  1  0.67984100  0.50562500  0.97070400  1
  C  673  1  0.02757000  0.50099100  0.82370400  1
  C  674  1  0.00758800  0.50790500  0.83651200  1
  C  675  1  0.97095000  0.49533600  0.84347300  1
  C  676  1  0.95273100  0.47500200  0.83732900  1
  C  677  1  0.97304300  0.46626700  0.82521400  1
  C  678  1  0.00975800  0.47940700  0.81852700  1
  C  681  1  0.06332000  0.51558300  0.81645900  1
  C  682  1  0.06541600  0.53997400  0.81883400  1
  C  683  1  0.09885800  0.55489600  0.81231200  1
  C  684  1  0.12996600  0.54560900  0.80228400  1
  C  685  1  0.13021200  0.52160800  0.79933200  1
  C  686  1  0.09662000  0.50712100  0.80639500  1
  C  697  1  0.02760300  0.27636400  0.95354300  1
  C  698  1  0.00760600  0.26945500  0.94073700  1
  C  699  1  0.97093900  0.28201800  0.93378800  1
  C  700  1  0.95269800  0.30234000  0.93994000  1
  C  701  1  0.97300300  0.31106600  0.95205900  1
  C  702  1  0.00975100  0.29793200  0.95873500  1
  C  704  1  0.06336700  0.26177300  0.96078100  1
  C  705  1  0.09672500  0.27024000  0.97082700  1
  C  712  1  0.27888400  0.74894800  0.20338100  1
  C  713  1  0.26118700  0.75475900  0.19014000  1
  C  714  1  0.22361000  0.74222300  0.18354600  1
  C  715  1  0.20386700  0.72273000  0.19015900  1
  C  716  1  0.22304000  0.71454400  0.20260400  1
  C  717  1  0.25897200  0.72829100  0.20921000  1
  C  720  1  0.31428200  0.76379100  0.21051700  1
  C  721  1  0.31598100  0.78809800  0.20791000  1
  C  722  1  0.34850500  0.80332800  0.21455600  1
  C  723  1  0.37920900  0.79437200  0.22479700  1
  C  724  1  0.38030300  0.77038700  0.22781900  1
  C  725  1  0.34729700  0.75563800  0.22073100  1
  C  736  1  0.27882900  0.52836600  0.07390600  1
  C  737  1  0.26116200  0.52254700  0.08715100  1
  C  738  1  0.22361300  0.53508500  0.09376000  1
  C  739  1  0.20386300  0.55458400  0.08715400  1
  C  740  1  0.22301000  0.56277800  0.07470700  1
  C  741  1  0.25891800  0.54903300  0.06809000  1
  C  744  1  0.31422500  0.51353500  0.06675700  1
  C  745  1  0.31602000  0.48923000  0.06937400  1
  C  746  1  0.34870600  0.47402200  0.06276500  1
  C  747  1  0.37949300  0.48299500  0.05255100  1
  C  748  1  0.38026600  0.50694800  0.04947300  1
  C  749  1  0.34717800  0.52169500  0.05652700  1
  C  760  1  0.99975700  0.52633200  0.20360700  1
  C  761  1  0.01972200  0.51941900  0.19079700  1
  C  762  1  0.05635500  0.53198700  0.18383500  1
  C  763  1  0.07458900  0.55231800  0.18997800  1
  C  764  1  0.05429700  0.56104900  0.20209700  1
  C  765  1  0.01758500  0.54791200  0.20878700  1
  C  768  1  0.96401200  0.51174000  0.21085600  1
  C  769  1  0.96192200  0.48735000  0.20848400  1
  C  770  1  0.92849000  0.47242800  0.21501000  1
  C  771  1  0.89738500  0.48171400  0.22503700  1
  C  772  1  0.89712600  0.50571700  0.22798600  1
  C  773  1  0.93071100  0.52020300  0.22092000  1
  C  784  1  0.99966900  0.75097800  0.07375200  1
  C  785  1  0.01966100  0.75788800  0.08655800  1
  C  786  1  0.05632400  0.74532300  0.09350700  1
  C  787  1  0.07455800  0.72499700  0.08735700  1
  C  788  1  0.05424400  0.71627000  0.07524000  1
  C  789  1  0.01750700  0.72940900  0.06856100  1
  C  792  1  0.96391700  0.76557700  0.06651400  1
  C  793  1  0.96191500  0.78996900  0.06887300  1
  C  794  1  0.92863200  0.80491000  0.06230700  1
  C  795  1  0.89761100  0.79563400  0.05225300  1
  C  796  1  0.89705300  0.77159700  0.04936400  1
  C  797  1  0.93055800  0.75711600  0.05646700  1
  C  808  1  0.74844900  0.77833700  0.32395500  1
  C  809  1  0.76604400  0.77254700  0.33721200  1
  C  810  1  0.80353600  0.78510900  0.34383400  1
  C  811  1  0.82329400  0.80461100  0.33723200  1
  C  812  1  0.80421800  0.81278100  0.32477000  1
  C  813  1  0.76838200  0.79900600  0.31814200  1
  C  816  1  0.71327700  0.76345100  0.31675200  1
  C  817  1  0.71135800  0.73914900  0.31939500  1
  C  818  1  0.67911500  0.72390000  0.31264600  1
  C  819  1  0.64948300  0.73280900  0.30216500  1
  C  820  1  0.64763000  0.75684300  0.29934600  1
  C  821  1  0.68035900  0.77161800  0.30651300  1
  C  832  1  0.74830700  0.99892800  0.45334800  1
  C  833  1  0.76594600  0.00471400  0.44009800  1
  C  834  1  0.80346000  0.99214800  0.43349400  1
  C  835  1  0.82319900  0.97265100  0.44010400  1
  C  836  1  0.80408000  0.96448600  0.45256000  1
  C  837  1  0.76821800  0.97826600  0.45917500  1
  C  839  1  0.68015100  0.00566600  0.47075500  1
  C  846  1  0.02778500  0.00097200  0.32378200  1
  C  847  1  0.00779200  0.00784700  0.33659400  1
  C  848  1  0.97117600  0.99524600  0.34354000  1
  C  849  1  0.95298200  0.97491800  0.33738500  1
  C  850  1  0.97329800  0.96621700  0.32526200  1
  C  851  1  0.00998100  0.97939800  0.31858400  1
  C  853  1  0.09664200  0.00718100  0.30644000  1
  C  859  1  0.02764500  0.77629300  0.45356400  1
  C  860  1  0.00769400  0.76941900  0.44074400  1
  C  861  1  0.97111400  0.78202400  0.43378100  1
  C  862  1  0.95290200  0.80235200  0.43993400  1
  C  863  1  0.97318200  0.81105200  0.45206300  1
  C  864  1  0.00983800  0.79787400  0.45875100  1
  C  867  1  0.06317100  0.76163900  0.46086000  1
  C  868  1  0.06538800  0.73725200  0.45845500  1
  C  869  1  0.09836700  0.72228000  0.46512400  1
  C  870  1  0.12833100  0.73149500  0.47542800  1
  C  871  1  0.12965000  0.75558100  0.47811700  1
  C  872  1  0.09643400  0.77010000  0.47093800  1
  C  884  1  0.31409400  0.26387400  0.71059400  1
  C  885  1  0.31600100  0.28817800  0.70795100  1
  C  886  1  0.34824200  0.30342900  0.71469900  1
  C  887  1  0.37788500  0.29452000  0.72517700  1
  C  888  1  0.37974500  0.27048800  0.72799600  1
  C  895  1  0.31393800  0.01346200  0.56669700  1
  C  896  1  0.31585700  0.98915700  0.56933300  1
  C  897  1  0.34808300  0.97391200  0.56257400  1
  C  898  1  0.37768800  0.98283200  0.55209000  1
  C  899  1  0.37955500  0.00686900  0.54928500  1
  C  906  1  0.96404900  0.01168300  0.71081800  1
  C  907  1  0.96193300  0.98729200  0.70842300  1
  C  908  1  0.92915400  0.97229400  0.71514300  1
  C  909  1  0.89934700  0.98149600  0.72548700  1
  C  910  1  0.89764000  0.00561400  0.72810600  1
  C  917  1  0.96412500  0.26569300  0.56643400  1
  C  918  1  0.96194000  0.29008200  0.56883300  1
  C  919  1  0.92896800  0.30505400  0.56216300  1
  C  920  1  0.89897800  0.29583900  0.55186500  1
  C  921  1  0.89763600  0.27175300  0.54918100  1
  C  927  1  0.24844800  0.77833700  0.82394300  1
  C  928  1  0.26604600  0.77254600  0.83719900  1
  C  929  1  0.30353000  0.78511200  0.84382300  1
  C  930  1  0.32327300  0.80461800  0.83722200  1
  C  931  1  0.30419500  0.81278600  0.82476000  1
  C  932  1  0.26836800  0.79900800  0.81813100  1
  C  935  1  0.21328300  0.76345100  0.81673900  1
  C  936  1  0.21138400  0.73914600  0.81937600  1
  C  937  1  0.17914900  0.72389800  0.81262400  1
  C  938  1  0.14949800  0.73280900  0.80214800  1
  C  939  1  0.14763400  0.75684300  0.79933200  1
  C  940  1  0.18035700  0.77161900  0.80650100  1
  C  951  1  0.24829300  0.99894700  0.95333700  1
  C  952  1  0.26592500  0.00473200  0.94008500  1
  C  953  1  0.30343400  0.99216500  0.93348000  1
  C  954  1  0.32317900  0.97267000  0.94009000  1
  C  955  1  0.30406900  0.96450700  0.95254800  1
  C  956  1  0.26821200  0.97828600  0.95916400  1
  C  958  1  0.18015500  0.00569200  0.97075200  1
  C  964  1  0.52756100  0.00102700  0.82371300  1
  C  965  1  0.50760900  0.00790900  0.83653000  1
  C  966  1  0.47104000  0.99530500  0.84349600  1
  C  967  1  0.45284700  0.97496500  0.83735100  1
  C  968  1  0.47313400  0.96625700  0.82522700  1
  C  969  1  0.50977200  0.97943800  0.81853400  1
  C  971  1  0.59633700  0.00721000  0.80634200  1
  C  977  1  0.52764500  0.77630900  0.95355900  1
  C  978  1  0.50769300  0.76943500  0.94073800  1
  C  979  1  0.47111700  0.78204000  0.93377400  1
  C  980  1  0.45290900  0.80236800  0.93992800  1
  C  981  1  0.47318500  0.81106900  0.95205500  1
  C  982  1  0.50983800  0.79789100  0.95874500  1
  C  985  1  0.56316700  0.76165500  0.96085700  1
  C  986  1  0.56538100  0.73726800  0.95845300  1
  C  987  1  0.59835700  0.72229700  0.96512300  1
  C  988  1  0.62832500  0.73151200  0.97542500  1
  C  989  1  0.62964900  0.75559800  0.97811500  1
  C  990  1  0.59643100  0.77011700  0.97093300  1
  C  1002  1  0.81410300  0.26387100  0.21060500  1
  C  1003  1  0.81599200  0.28817400  0.20796600  1
  C  1004  1  0.84822400  0.30342600  0.21471500  1
  C  1005  1  0.87788200  0.29452000  0.22519100  1
  C  1006  1  0.87975300  0.27048600  0.22800800  1
  C  1013  1  0.81396400  0.01344700  0.06670900  1
  C  1014  1  0.81587500  0.98914100  0.06934300  1
  C  1015  1  0.84809700  0.97389500  0.06258100  1
  C  1016  1  0.87769900  0.98281600  0.05209800  1
  C  1017  1  0.87957800  0.00685500  0.04929600  1
  C  1024  1  0.46427800  0.01164500  0.21090000  1
  C  1025  1  0.46205300  0.98725400  0.20850300  1
  C  1026  1  0.42908700  0.97229100  0.21518400  1
  C  1027  1  0.39916000  0.98151800  0.22549100  1
  C  1028  1  0.39783200  0.00560900  0.22816600  1
  C  1035  1  0.46413500  0.26567600  0.06643900  1
  C  1036  1  0.46195100  0.29006500  0.06884000  1
  C  1037  1  0.42897800  0.30504100  0.06217100  1
  C  1038  1  0.39899200  0.29582700  0.05187200  1
  C  1039  1  0.39765700  0.27174100  0.04918400  1
  C  1045  1  0.43540500  0.40738800  0.34320000  1
  C  1046  1  0.41265900  0.39985400  0.33032100  1
  C  1051  1  0.35814300  0.37041600  0.32121200  1
  C  1052  1  0.36850700  0.37872100  0.30800100  1
  C  1053  1  0.34707900  0.36843700  0.29566400  1
  C  1058  1  0.42177400  0.40877800  0.31709900  1
  C  1059  1  0.32765200  0.35214900  0.32513600  1
  C  1061  1  0.45181800  0.42768500  0.31381300  1
  C  1063  1  0.43517900  0.36991000  0.43413100  1
  C  1064  1  0.41247000  0.37744900  0.44701400  1
  C  1069  1  0.35792300  0.40686400  0.45613200  1
  C  1070  1  0.36827700  0.39854500  0.46934100  1
  C  1071  1  0.34683700  0.40881300  0.48167900  1
  C  1076  1  0.42155200  0.36850000  0.46023200  1
  C  1077  1  0.32746600  0.42514200  0.45221500  1
  C  1079  1  0.45158500  0.34958400  0.46351000  1
  C  1081  1  0.59198500  0.61993000  0.68412700  1
  C  1082  1  0.61467600  0.62747200  0.69701200  1
  C  1087  1  0.66921600  0.65688900  0.70613200  1
  C  1088  1  0.65885000  0.64857200  0.71934000  1
  C  1089  1  0.68028200  0.65883900  0.73168000  1
  C  1094  1  0.60556800  0.61853000  0.71023000  1
  C  1095  1  0.69967900  0.67516600  0.70221500  1
  C  1097  1  0.57554600  0.59961100  0.71350800  1
  C  1099  1  0.59207300  0.65742700  0.59317800  1
  C  1100  1  0.61478200  0.64989400  0.58029300  1
  C  1105  1  0.66927400  0.62046100  0.57117100  1
  C  1106  1  0.65890500  0.62877700  0.55796300  1
  C  1107  1  0.68031100  0.61850000  0.54562300  1
  C  1112  1  0.60565600  0.65882900  0.56707500  1
  C  1113  1  0.69971200  0.60217400  0.57508600  1
  C  1115  1  0.57563400  0.67774800  0.56379800  1
  C  1117  1  0.93525900  0.40741800  0.84318700  1
  C  1118  1  0.91253200  0.39987300  0.83030700  1
  C  1123  1  0.85804300  0.37042300  0.82119800  1
  C  1124  1  0.86840900  0.37872200  0.80798700  1
  C  1125  1  0.84699500  0.36843200  0.79565000  1
  C  1130  1  0.92165100  0.40879000  0.81708400  1
  C  1131  1  0.82756200  0.35215500  0.82512300  1
  C  1133  1  0.95168000  0.42770200  0.81379700  1
  C  1135  1  0.93516100  0.36992600  0.93411700  1
  C  1136  1  0.91245600  0.37746600  0.94700200  1
  C  1141  1  0.85791200  0.40688100  0.95611900  1
  C  1142  1  0.86827100  0.39856400  0.96932800  1
  C  1143  1  0.84683500  0.40883400  0.98166600  1
  C  1148  1  0.92154500  0.36851900  0.96021800  1
  C  1149  1  0.82745200  0.42516000  0.95220100  1
  C  1151  1  0.95158200  0.34960500  0.96349700  1
  C  1153  1  0.09210800  0.61990400  0.18414200  1
  C  1154  1  0.11478400  0.62745800  0.19702700  1
  C  1159  1  0.16929900  0.65688500  0.20614400  1
  C  1160  1  0.15893500  0.64857300  0.21935300  1
  C  1161  1  0.18035700  0.65885000  0.23169200  1
  C  1166  1  0.10567700  0.61852100  0.21024600  1
  C  1167  1  0.19974900  0.67516700  0.20222700  1
  C  1169  1  0.07567200  0.59959700  0.21352600  1
  C  1171  1  0.09207100  0.65741100  0.09318700  1
  C  1172  1  0.11478200  0.64987700  0.08030200  1
  C  1177  1  0.16927400  0.62044200  0.07118300  1
  C  1178  1  0.15890500  0.62875600  0.05797400  1
  C  1179  1  0.18031400  0.61847800  0.04563400  1
  C  1184  1  0.10565600  0.65881000  0.06708400  1
  C  1185  1  0.19971500  0.60215500  0.07509800  1
  C  1187  1  0.07563100  0.67772700  0.06380600  1
  C  1189  1  0.93547500  0.90733400  0.34320100  1
  C  1190  1  0.91266000  0.89982700  0.33032500  1
  C  1195  1  0.85805800  0.87041900  0.32121800  1
  C  1196  1  0.86838400  0.87874100  0.30800900  1
  C  1197  1  0.84687900  0.86848700  0.29567500  1
  C  1202  1  0.92173800  0.90876900  0.31710600  1
  C  1203  1  0.82752900  0.85216500  0.32514100  1
  C  1205  1  0.95180400  0.92767100  0.31381900  1
  C  1207  1  0.93536500  0.86994100  0.43412900  1
  C  1208  1  0.91259100  0.87746000  0.44700800  1
  C  1213  1  0.85795900  0.90684800  0.45611900  1
  C  1214  1  0.86828200  0.89852000  0.46932700  1
  C  1215  1  0.84676900  0.90876700  0.48166200  1
  C  1220  1  0.92164400  0.86850100  0.46022400  1
  C  1221  1  0.82746000  0.92511100  0.45219900  1
  C  1223  1  0.95169800  0.84959200  0.46350700  1
  C  1225  1  0.43536100  0.90737200  0.84318400  1
  C  1226  1  0.41256100  0.89985300  0.83030900  1
  C  1231  1  0.35798300  0.87043300  0.82120700  1
  C  1232  1  0.36830700  0.87875000  0.80799500  1
  C  1233  1  0.34681300  0.86848500  0.79566200  1
  C  1238  1  0.42163200  0.90879000  0.81708900  1
  C  1239  1  0.32746900  0.85217300  0.82513000  1
  C  1241  1  0.45168300  0.92769700  0.81379900  1
  C  1243  1  0.43535700  0.86995700  0.93412000  1
  C  1244  1  0.41258600  0.87747800  0.94699900  1
  C  1249  1  0.35796000  0.90686900  0.95610800  1
  C  1250  1  0.36828500  0.89854100  0.96931600  1
  C  1251  1  0.34677300  0.90879000  0.98165100  1
  C  1256  1  0.42163900  0.86852000  0.96021400  1
  C  1257  1  0.32745900  0.92513200  0.95218800  1
  C  1259  1  0.45169400  0.84961100  0.96349800  1
  C  1261  1  0.06471500  0.26267600  0.26096700  1
  C  1264  1  0.98161100  0.26405700  0.25209900  1
  C  1265  1  0.96427800  0.26495600  0.26564900  1
  C  1266  1  0.91220800  0.26686200  0.26936800  1
  C  1270  1  0.04741100  0.26369600  0.27456400  1
  C  1271  1  0.95431400  0.26754700  0.24023300  1
  C  1273  1  0.11580600  0.51865200  0.52081900  1
  C  1274  1  0.06466500  0.51564500  0.51636500  1
  C  1279  1  0.98165500  0.51392800  0.52530000  1
  C  1280  1  0.96432900  0.51222900  0.51177000  1
  C  1281  1  0.91233900  0.50972600  0.50808700  1
  C  1286  1  0.04735500  0.51381600  0.50280000  1
  C  1287  1  0.95459800  0.51102200  0.53727300  1
  C  1289  1  0.07360700  0.51720800  0.49072700  1
  C  1291  1  0.66158200  0.51856700  0.25643700  1
  C  1292  1  0.71269700  0.51565600  0.26093800  1
  C  1297  1  0.79569800  0.51356700  0.25203100  1
  C  1298  1  0.81302700  0.51221300  0.26557300  1
  C  1299  1  0.86498800  0.50970100  0.26928700  1
  C  1304  1  0.73004800  0.51427600  0.27451700  1
  C  1305  1  0.82271800  0.51031400  0.24008700  1
  C  1307  1  0.70378300  0.51788000  0.28656400  1
  C  1309  1  0.71259100  0.26265400  0.51638600  1
  C  1312  1  0.79568000  0.26445600  0.52523100  1
  C  1313  1  0.81302300  0.26499900  0.51167400  1
  C  1314  1  0.86506800  0.26691000  0.50792700  1
  C  1318  1  0.72992700  0.26328900  0.50278600  1
  C  1319  1  0.82297000  0.26824500  0.53706100  1
  C  1321  1  0.91144200  0.76695800  0.77088800  1
  C  1322  1  0.96267400  0.76465300  0.76637100  1
  C  1327  1  0.04577700  0.76327300  0.77523900  1
  C  1328  1  0.06310800  0.76237500  0.76169000  1
  C  1329  1  0.11517600  0.76046500  0.75797000  1
  C  1334  1  0.97997700  0.76363300  0.75277400  1
  C  1335  1  0.07307400  0.75978300  0.78710500  1
  C  1337  1  0.95358400  0.76716400  0.74073400  1
  C  1339  1  0.36572400  0.50852800  0.77088700  1
  C  1340  1  0.31464200  0.51159000  0.76639300  1
  C  1345  1  0.23165100  0.51376000  0.77529300  1
  C  1346  1  0.21435800  0.51521300  0.76175100  1
  C  1347  1  0.16241600  0.51778800  0.75803300  1
  C  1352  1  0.29736800  0.51317200  0.75281400  1
  C  1353  1  0.20462700  0.51699600  0.78723600  1
  C  1355  1  0.32357200  0.50944900  0.74077300  1
  C  1357  1  0.36587000  0.76691800  0.50637600  1
  C  1358  1  0.31466100  0.76470300  0.51092800  1
  C  1363  1  0.23157500  0.76289600  0.50208000  1
  C  1364  1  0.21422700  0.76236400  0.51563600  1
  C  1365  1  0.16218300  0.76043800  0.51938300  1
  C  1370  1  0.29731100  0.76411400  0.52453000  1
  C  1371  1  0.20429100  0.75907700  0.49025500  1
  C  1373  1  0.32370200  0.76786900  0.53654100  1
  C  1375  1  0.56475000  0.26274500  0.76095700  1
  C  1378  1  0.48164700  0.26407800  0.75208000  1
  C  1379  1  0.46428100  0.26485400  0.76563100  1
  C  1380  1  0.41220000  0.26667300  0.76934900  1
  C  1384  1  0.54739200  0.26361100  0.77455100  1
  C  1385  1  0.45430900  0.26754500  0.74022000  1
  C  1387  1  0.61578100  0.51865700  0.02081600  1
  C  1388  1  0.56464400  0.51564000  0.01636300  1
  C  1393  1  0.48163200  0.51395100  0.02529800  1
  C  1394  1  0.46430700  0.51222000  0.01176600  1
  C  1395  1  0.41231600  0.50970800  0.00808500  1
  C  1400  1  0.54733000  0.51381600  0.00279300  1
  C  1401  1  0.45461600  0.51103100  0.03727900  1
  C  1403  1  0.57357300  0.51720100  0.99071600  1
  C  1405  1  0.21263600  0.26256500  0.01638700  1
  C  1408  1  0.29571600  0.26444700  0.02522700  1
  C  1409  1  0.31303000  0.26508200  0.01166400  1
  C  1410  1  0.36505700  0.26707600  0.00791500  1
  C  1414  1  0.22991800  0.26336000  0.00277900  1
  C  1415  1  0.32300300  0.26824500  0.03705300  1
  C  1417  1  0.41139400  0.76674200  0.27089100  1
  C  1418  1  0.46265100  0.76458500  0.26637100  1
  C  1423  1  0.54575000  0.76325700  0.27525000  1
  C  1424  1  0.56312300  0.76249400  0.26170100  1
  C  1425  1  0.61520500  0.76066100  0.25798300  1
  C  1430  1  0.48002000  0.76377100  0.25277600  1
  C  1431  1  0.57308800  0.75976400  0.28710700  1
  C  1433  1  0.45357600  0.76719700  0.24073300  1
  C  1435  1  0.86588900  0.76694900  0.00636500  1
  C  1436  1  0.81468600  0.76469200  0.01091500  1
  C  1441  1  0.73159400  0.76289700  0.00206900  1
  C  1442  1  0.71425400  0.76235200  0.01563100  1
  C  1443  1  0.66220900  0.76044300  0.01937800  1
  C  1448  1  0.79735000  0.76405700  0.02452000  1
  C  1449  1  0.70430800  0.75911000  0.99023800  1
  C  1451  1  0.82370300  0.76786700  0.03653400  1
  C  1455  1  0.48153700  0.01342400  0.52523700  1
  C  1456  1  0.46426300  0.01308800  0.51167100  1
  C  1457  1  0.41216700  0.01160700  0.50791700  1
  C  1460  1  0.45412700  0.00980100  0.53706800  1
  C  1464  1  0.29577800  0.01303800  0.25208400  1
  C  1465  1  0.31303900  0.01295300  0.26565300  1
  C  1466  1  0.36509700  0.01136800  0.26943500  1
  C  1469  1  0.32317300  0.00910400  0.24029100  1
  C  1471  1  0.86597300  0.01063400  0.77099200  1
  C  1472  1  0.81471600  0.01256700  0.76643900  1
  C  1477  1  0.79740500  0.01260900  0.75283600  1
  C  1478  1  0.82411900  0.00830400  0.74096200  1
  C  1482  1  0.98159600  0.01338400  0.02525200  1
  C  1483  1  0.96428900  0.01318200  0.01168200  1
  C  1484  1  0.91217800  0.01179200  0.00793000  1
  C  1487  1  0.95414900  0.00978200  0.03707900  1
  C  1489  1  0.04771400  0.65533400  0.44946400  1
  C  1490  1  0.09616500  0.64795200  0.45443900  1
  C  1495  1  0.14618000  0.61384200  0.45859800  1
  C  1496  1  0.18476000  0.62855900  0.46284400  1
  C  1497  1  0.23270900  0.62045100  0.46780500  1
  C  1502  1  0.13486300  0.66262200  0.45863200  1
  C  1503  1  0.14492100  0.58965300  0.45882500  1
  C  1505  1  0.13526700  0.68671100  0.45932300  1
  C  1507  1  0.73058000  0.65660700  0.32779300  1
  C  1508  1  0.68199300  0.64933800  0.32286500  1
  C  1513  1  0.63191700  0.61532200  0.31849500  1
  C  1514  1  0.59319600  0.63013600  0.31447000  1
  C  1515  1  0.54507200  0.62214900  0.30957100  1
  C  1520  1  0.64315100  0.66410700  0.31890000  1
  C  1521  1  0.63304100  0.59113800  0.31814100  1
  C  1523  1  0.64265200  0.68821500  0.31837000  1
  C  1525  1  0.97969600  0.90527400  0.69950400  1
  C  1526  1  0.93125500  0.89792100  0.70450000  1
  C  1531  1  0.88113900  0.86383600  0.70864400  1
  C  1532  1  0.84264400  0.87857100  0.71292700  1
  C  1533  1  0.79469500  0.87048600  0.71790000  1
  C  1538  1  0.89262100  0.91261200  0.70871200  1
  C  1539  1  0.88234300  0.83964100  0.70886100  1
  C  1541  1  0.89225300  0.93670800  0.70940300  1
  C  1543  1  0.97979100  0.37199600  0.57777100  1
  C  1544  1  0.93131300  0.37938400  0.57281800  1
  C  1549  1  0.88132100  0.41350000  0.56866300  1
  C  1550  1  0.84268400  0.39878900  0.56445000  1
  C  1551  1  0.79471300  0.40690200  0.55951000  1
  C  1556  1  0.89256600  0.36472100  0.56865600  1
  C  1557  1  0.88262000  0.43768500  0.56840900  1
  C  1559  1  0.89212900  0.34063200  0.56797200  1
  C  1561  1  0.29675900  0.37071900  0.69954800  1
  C  1562  1  0.34534700  0.37799000  0.70447400  1
  C  1567  1  0.39542200  0.41200600  0.70884300  1
  C  1568  1  0.43414300  0.39719500  0.71286800  1
  C  1569  1  0.48226700  0.40518300  0.71776600  1
  C  1574  1  0.38418700  0.36322200  0.70844000  1
  C  1575  1  0.39429800  0.43619300  0.70919400  1
  C  1577  1  0.38469400  0.33911400  0.70897000  1
  C  1579  1  0.29673400  0.90659700  0.57771700  1
  C  1580  1  0.34532700  0.89934800  0.57278400  1
  C  1585  1  0.39546900  0.86534900  0.56842400  1
  C  1586  1  0.43416100  0.88017600  0.56439500  1
  C  1587  1  0.48230000  0.87220700  0.55950000  1
  C  1592  1  0.38414400  0.91413200  0.56882100  1
  C  1593  1  0.39439700  0.84116100  0.56808300  1
  C  1595  1  0.38461400  0.93824300  0.56829800  1
  C  1597  1  0.54769100  0.65535000  0.94946500  1
  C  1598  1  0.59614300  0.64796800  0.95444000  1
  C  1603  1  0.64615300  0.61385500  0.95859800  1
  C  1604  1  0.68473600  0.62857100  0.96284300  1
  C  1605  1  0.73268500  0.62046000  0.96780300  1
  C  1610  1  0.63484200  0.66263400  0.95863100  1
  C  1611  1  0.64489100  0.58966500  0.95882500  1
  C  1613  1  0.63525100  0.68672500  0.95932200  1
  C  1615  1  0.23077000  0.65660100  0.82770700  1
  C  1616  1  0.18215800  0.64933100  0.82280100  1
  C  1621  1  0.13210300  0.61531200  0.81842900  1
  C  1622  1  0.09332600  0.63012000  0.81444200  1
  C  1623  1  0.04517600  0.62213200  0.80956200  1
  C  1628  1  0.14326700  0.66409600  0.81886800  1
  C  1629  1  0.13325900  0.59112900  0.81804700  1
  C  1631  1  0.14273700  0.68820300  0.81835000  1
  C  1633  1  0.47959700  0.90532300  0.19951500  1
  C  1634  1  0.43115200  0.89795800  0.20450300  1
  C  1639  1  0.38106200  0.86386400  0.20864600  1
  C  1640  1  0.34254300  0.87859400  0.21291800  1
  C  1641  1  0.29459300  0.87049800  0.21788600  1
  C  1646  1  0.39249300  0.91264100  0.20870600  1
  C  1647  1  0.38229100  0.83967200  0.20886400  1
  C  1649  1  0.39211700  0.93673400  0.20939000  1
  C  1651  1  0.47981200  0.37198200  0.07777400  1
  C  1652  1  0.43133800  0.37937000  0.07282100  1
  C  1657  1  0.38135000  0.41348800  0.06866500  1
  C  1658  1  0.34270800  0.39877700  0.06445500  1
  C  1659  1  0.29473600  0.40689200  0.05951500  1
  C  1664  1  0.39258400  0.36470700  0.06866200  1
  C  1665  1  0.38265200  0.43767400  0.06841100  1
  C  1667  1  0.39214300  0.34061800  0.06797900  1
  C  1669  1  0.79658800  0.37071500  0.19962300  1
  C  1670  1  0.84519700  0.37798900  0.20452900  1
  C  1675  1  0.89525100  0.41201000  0.20889600  1
  C  1676  1  0.93403000  0.39720400  0.21288700  1
  C  1677  1  0.98217600  0.40519500  0.21776600  1
  C  1682  1  0.88409000  0.36322700  0.20846200  1
  C  1683  1  0.89409500  0.43619300  0.20927700  1
  C  1685  1  0.88462600  0.33911900  0.20898300  1
  C  1687  1  0.79674500  0.90658100  0.07772100  1
  C  1688  1  0.84533600  0.89933000  0.07278800  1
  C  1693  1  0.89547300  0.86533200  0.06842600  1
  C  1694  1  0.93416500  0.88015700  0.06439700  1
  C  1695  1  0.98230400  0.87218800  0.05950100  1
  C  1700  1  0.88415500  0.91411400  0.06882400  1
  C  1701  1  0.89440100  0.84114400  0.06808500  1
  C  1703  1  0.88462600  0.93822600  0.06830200  1
  C  1705  1  0.35364600  0.27143500  0.37733800  1
  C  1706  1  0.35856100  0.29352600  0.38356300  1
  C  1707  1  0.33221900  0.31468400  0.37933200  1
  C  1712  1  0.41571600  0.27815200  0.40011700  1
  C  1713  1  0.32330600  0.26645300  0.36622100  1
  C  1714  1  0.44554100  0.28492200  0.41090700  1
  C  1716  1  0.43501100  0.54269300  0.37863400  1
  C  1717  1  0.40989500  0.52138700  0.38310500  1
  C  1722  1  0.35376300  0.50584000  0.39997400  1
  C  1723  1  0.35884400  0.48373100  0.39378500  1
  C  1724  1  0.33269800  0.46254100  0.39805500  1
  C  1729  1  0.41579600  0.49914500  0.37719100  1
  C  1730  1  0.32360500  0.51079000  0.41112200  1
  C  1732  1  0.44558800  0.49238000  0.36639400  1
  C  1734  1  0.59235700  0.79274000  0.62862300  1
  C  1735  1  0.61743300  0.77142700  0.63310100  1
  C  1740  1  0.67353800  0.75587300  0.64997500  1
  C  1741  1  0.66845400  0.73376600  0.64378600  1
  C  1742  1  0.69458700  0.71257200  0.64805700  1
  C  1747  1  0.61149900  0.74918200  0.62719500  1
  C  1748  1  0.70368400  0.76081900  0.66112600  1
  C  1750  1  0.58174300  0.74242400  0.61639000  1
  C  1752  1  0.59224800  0.48462600  0.64867600  1
  C  1753  1  0.61736400  0.50593000  0.64420300  1
  C  1758  1  0.67346100  0.52147000  0.62732000  1
  C  1759  1  0.66839200  0.54358100  0.63350800  1
  C  1760  1  0.69452200  0.56477100  0.62923000  1
  C  1765  1  0.61144800  0.52817600  0.65011000  1
  C  1766  1  0.70360000  0.51651300  0.61616700  1
  C  1768  1  0.58164500  0.53494500  0.66090600  1
  C  1770  1  0.85363700  0.27144300  0.87733000  1
  C  1771  1  0.85855800  0.29353500  0.88355300  1
  C  1772  1  0.83221600  0.31469400  0.87932100  1
  C  1777  1  0.91570900  0.27816300  0.90010900  1
  C  1778  1  0.82329800  0.26646000  0.86621200  1
  C  1779  1  0.94553800  0.28493400  0.91089800  1
  C  1781  1  0.93486900  0.54274100  0.87860500  1
  C  1782  1  0.90978600  0.52142800  0.88307800  1
  C  1787  1  0.85369900  0.50586600  0.89995600  1
  C  1788  1  0.85879500  0.48375800  0.89376500  1
  C  1789  1  0.83267900  0.46256100  0.89803700  1
  C  1794  1  0.91570600  0.49918800  0.87716200  1
  C  1795  1  0.82355000  0.51080900  0.91110700  1
  C  1797  1  0.94548700  0.49243200  0.86636000  1
  C  1799  1  0.09234900  0.79272800  0.12862600  1
  C  1800  1  0.11744100  0.77141900  0.13310200  1
  C  1805  1  0.17353300  0.75586800  0.14998000  1
  C  1806  1  0.16844800  0.73375700  0.14379300  1
  C  1807  1  0.19457500  0.71256400  0.14806600  1
  C  1812  1  0.11149700  0.74917100  0.12719900  1
  C  1813  1  0.20367400  0.76081500  0.16113200  1
  C  1815  1  0.08174100  0.74241200  0.11639400  1
  C  1817  1  0.09238500  0.48458200  0.14870700  1
  C  1818  1  0.11746900  0.50589300  0.14423000  1
  C  1823  1  0.17352100  0.52144900  0.12733900  1
  C  1824  1  0.16843700  0.54355700  0.13352800  1
  C  1825  1  0.19453800  0.56475200  0.12924700  1
  C  1830  1  0.11153800  0.52813900  0.15013900  1
  C  1831  1  0.20365100  0.51649700  0.11618300  1
  C  1833  1  0.08174400  0.53490200  0.16094000  1
  C  1835  1  0.93535400  0.73470400  0.39858300  1
  C  1836  1  0.90998600  0.75597500  0.39416400  1
  C  1841  1  0.85355000  0.77147900  0.37735300  1
  C  1842  1  0.85846300  0.79356600  0.38358200  1
  C  1843  1  0.83205900  0.81471800  0.37936900  1
  C  1848  1  0.91572700  0.77820000  0.40011100  1
  C  1849  1  0.82315900  0.76648900  0.36624400  1
  C  1851  1  0.94560000  0.78496700  0.41089500  1
  C  1853  1  0.85365500  0.00579400  0.39995100  1
  C  1854  1  0.85868200  0.98369200  0.39375000  1
  C  1855  1  0.83240900  0.96251900  0.39799000  1
  C  1860  1  0.91581900  0.99908500  0.37720200  1
  C  1861  1  0.82346200  0.01074800  0.41109000  1
  C  1862  1  0.94566600  0.99232400  0.36641900  1
  C  1864  1  0.09226800  0.29268000  0.62864800  1
  C  1865  1  0.11741000  0.27137600  0.63311000  1
  C  1871  1  0.09205100  0.98471000  0.64862800  1
  C  1872  1  0.11729800  0.00599500  0.64418000  1
  C  1878  1  0.43535400  0.73471400  0.89857700  1
  C  1879  1  0.40998600  0.75598600  0.89415800  1
  C  1884  1  0.35355700  0.77148800  0.87734300  1
  C  1885  1  0.35846800  0.79357400  0.88357100  1
  C  1886  1  0.33206500  0.81472600  0.87935600  1
  C  1891  1  0.41572700  0.77821100  0.90010500  1
  C  1892  1  0.32316800  0.76649400  0.86623500  1
  C  1894  1  0.44559600  0.78498000  0.91088800  1
  C  1896  1  0.35360800  0.00582000  0.89993100  1
  C  1897  1  0.35865800  0.98372000  0.89373000  1
  C  1898  1  0.33242800  0.96253900  0.89797400  1
  C  1903  1  0.41573800  0.99913400  0.87717000  1
  C  1904  1  0.32342600  0.01076600  0.91107400  1
  C  1905  1  0.44557400  0.99238100  0.86638000  1
  C  1907  1  0.59228400  0.29266600  0.12865300  1
  C  1908  1  0.61742200  0.27136200  0.13311600  1
  C  1914  1  0.59219300  0.98465100  0.14866000  1
  C  1915  1  0.61740400  0.00594500  0.14420900  1
  N  9  1  0.18049100  0.20105200  0.31485400  1
  N  18  1  0.59746000  0.19944600  0.46295900  1
  N  27  1  0.68051200  0.20103600  0.81485500  1
  N  36  1  0.09745600  0.19946800  0.96295700  1
  N  46  1  0.67969900  0.07630800  0.46228400  1
  N  56  1  0.15791500  0.01406900  0.28882400  1
  N  57  1  0.09817800  0.07792700  0.31456900  1
  N  69  1  0.20282100  0.19525500  0.70802300  1
  N  70  1  0.20543600  0.24643300  0.67118700  1
  N  82  1  0.20271300  0.08209000  0.56928400  1
  N  83  1  0.20534400  0.03090200  0.60611400  1
  N  95  1  0.07121200  0.08186600  0.70573800  1
  N  96  1  0.07725100  0.02416100  0.67229000  1
  N  108  1  0.07120700  0.19549400  0.57156200  1
  N  109  1  0.07725800  0.25322900  0.60499300  1
  N  119  1  0.11937300  0.01316300  0.98843700  1
  N  120  1  0.17968800  0.07633000  0.96226900  1
  N  130  1  0.65804700  0.01424000  0.78881500  1
  N  131  1  0.59832100  0.07793400  0.81454400  1
  N  143  1  0.70287100  0.19524300  0.20803200  1
  N  144  1  0.70545300  0.24642100  0.17119600  1
  N  156  1  0.70273600  0.08207100  0.06929900  1
  N  157  1  0.70538700  0.03088400  0.10613100  1
  N  169  1  0.57138100  0.08183500  0.20575700  1
  N  170  1  0.57736300  0.02409800  0.17232900  1
  N  182  1  0.57121700  0.19547700  0.07156900  1
  N  183  1  0.57726800  0.25321300  0.10500000  1
  N  189  1  0.14597100  0.14571000  0.69584900  1
  N  196  1  0.12832800  0.12994700  0.72059100  1
  N  207  1  0.14591800  0.13164600  0.58145700  1
  N  214  1  0.12826300  0.14740000  0.55671300  1
  N  225  1  0.64605500  0.14569400  0.19586200  1
  N  232  1  0.62843400  0.12992900  0.22060600  1
  N  243  1  0.64593100  0.13162900  0.08146900  1
  N  250  1  0.62828100  0.14738000  0.05672500  1
  N  285  1  0.49787100  0.01384600  0.50145500  1
  N  294  1  0.27942900  0.01404800  0.27585500  1
  N  299  1  0.78103900  0.01374900  0.77661800  1
  N  312  1  0.99787900  0.01397000  0.00146000  1
  N  321  1  0.10423500  0.15265900  0.32251600  1
  N  328  1  0.17662600  0.12547500  0.31465100  1
  N  339  1  0.67397900  0.15127000  0.45502800  1
  N  346  1  0.60131900  0.12391100  0.46246600  1
  N  357  1  0.60428800  0.15263400  0.82251400  1
  N  364  1  0.67673300  0.12546000  0.81467200  1
  N  375  1  0.17397100  0.15129400  0.95502200  1
  N  382  1  0.10131100  0.12393300  0.96245600  1
  N  393  1  0.37955500  0.25392100  0.38323300  1
  N  400  1  0.87954500  0.25393000  0.88322500  1
  N  407  1  0.87952300  0.02332000  0.39406100  1
  N  415  1  0.13791500  0.23179500  0.63296600  1
  N  426  1  0.13793100  0.04556200  0.64433700  1
  N  436  1  0.37943900  0.02335400  0.89403600  1
  N  444  1  0.63792500  0.23178100  0.13297300  1
  N  455  1  0.63797900  0.04551800  0.14436400  1
  N  472  1  0.11968700  0.26412200  0.28885900  1
  N  473  1  0.32471600  0.33205300  0.31932100  1
  N  474  1  0.32218400  0.28084100  0.35614700  1
  N  495  1  0.11950000  0.51327600  0.48847700  1
  N  496  1  0.18035200  0.57625900  0.46244100  1
  N  497  1  0.32446900  0.44523300  0.45803500  1
  N  498  1  0.32206100  0.49643600  0.42120900  1
  N  519  1  0.65777800  0.51423100  0.28878000  1
  N  520  1  0.59758000  0.57786700  0.31440200  1
  N  521  1  0.45610000  0.44546000  0.32156900  1
  N  522  1  0.44998000  0.50322100  0.35498300  1
  N  535  1  0.65760200  0.26317300  0.48853500  1
  N  536  1  0.45585900  0.33182100  0.45574500  1
  N  537  1  0.44987000  0.27407600  0.42231900  1
  N  558  1  0.90770300  0.76320900  0.73848100  1
  N  559  1  0.84688200  0.82626800  0.71248000  1
  N  560  1  0.70268500  0.69525600  0.70803500  1
  N  561  1  0.70517600  0.74646600  0.67121300  1
  N  582  1  0.90799900  0.51389200  0.53884600  1
  N  583  1  0.84709700  0.45107700  0.56486300  1
  N  584  1  0.70268800  0.58208500  0.56926200  1
  N  585  1  0.70515800  0.53086200  0.60607600  1
  N  606  1  0.36954700  0.51314100  0.73853300  1
  N  607  1  0.42975800  0.44946400  0.71293300  1
  N  608  1  0.57127100  0.58185000  0.70574100  1
  N  609  1  0.57729700  0.52410100  0.67231700  1
  N  630  1  0.36968500  0.76419000  0.53876900  1
  N  631  1  0.42987900  0.82790400  0.56434500  1
  N  632  1  0.57138100  0.69551100  0.57156500  1
  N  633  1  0.57740600  0.75326800  0.60497900  1
  N  646  1  0.61968700  0.26407300  0.78884500  1
  N  647  1  0.82465100  0.33205500  0.81931000  1
  N  648  1  0.82216400  0.28084700  0.85613800  1
  N  669  1  0.61947200  0.51327700  0.98847200  1
  N  670  1  0.68031900  0.57626900  0.96243900  1
  N  671  1  0.82445100  0.44525000  0.95802100  1
  N  672  1  0.82200700  0.49645300  0.92119300  1
  N  693  1  0.15797100  0.51436100  0.78879000  1
  N  694  1  0.09770500  0.57786200  0.81437600  1
  N  695  1  0.95592900  0.44548100  0.82155200  1
  N  696  1  0.94986400  0.50327100  0.85494800  1
  N  709  1  0.15761900  0.26321500  0.98852100  1
  N  710  1  0.95585600  0.33184000  0.95573200  1
  N  711  1  0.94987100  0.27409000  0.92231000  1
  N  732  1  0.40767700  0.76327100  0.23849400  1
  N  733  1  0.34683500  0.82629100  0.21247700  1
  N  734  1  0.20273100  0.69526000  0.20804400  1
  N  735  1  0.20517700  0.74646200  0.17121900  1
  N  756  1  0.40801600  0.51389900  0.03885300  1
  N  757  1  0.34713000  0.45106600  0.06486500  1
  N  758  1  0.20270000  0.58206800  0.06927400  1
  N  759  1  0.20520400  0.53084600  0.10609200  1
  N  780  1  0.86936500  0.51296900  0.23852700  1
  N  781  1  0.92964600  0.44946000  0.21294700  1
  N  782  1  0.07142800  0.58183200  0.20576100  1
  N  783  1  0.07741300  0.52405800  0.17235400  1
  N  804  1  0.86967500  0.76416400  0.03877100  1
  N  805  1  0.92987900  0.82788500  0.06434400  1
  N  806  1  0.07137200  0.69549200  0.07157100  1
  N  807  1  0.07739600  0.75325400  0.10498200  1
  N  828  1  0.61914400  0.76398100  0.28890900  1
  N  829  1  0.67946200  0.70101000  0.31507700  1
  N  830  1  0.82457500  0.83206000  0.31933300  1
  N  831  1  0.82191200  0.78088200  0.35617300  1
  N  843  1  0.61934800  0.01312000  0.48843500  1
  N  844  1  0.82443600  0.94521400  0.45800700  1
  N  845  1  0.82187900  0.99638000  0.42116600  1
  N  857  1  0.95616600  0.94544400  0.32157500  1
  N  858  1  0.95004600  0.00316700  0.35500900  1
  N  879  1  0.15813200  0.76302500  0.48847200  1
  N  880  1  0.09840000  0.69938600  0.46271500  1
  N  881  1  0.95603900  0.83182600  0.45574700  1
  N  882  1  0.95001300  0.77411000  0.42230000  1
  N  892  1  0.40824200  0.26334600  0.73843000  1
  N  893  1  0.34789000  0.32631900  0.71226700  1
  N  903  1  0.40808500  0.01405400  0.53887100  1
  N  904  1  0.34777600  0.95102100  0.56500500  1
  N  914  1  0.86945600  0.01322200  0.73850000  1
  N  915  1  0.92917600  0.94939200  0.71274100  1
  N  925  1  0.86913500  0.26430500  0.53883100  1
  N  926  1  0.92896800  0.32794900  0.56456700  1
  N  947  1  0.11914000  0.76398600  0.78889900  1
  N  948  1  0.17952100  0.70100600  0.81504700  1
  N  949  1  0.32453600  0.83206800  0.81932300  1
  N  950  1  0.32190700  0.78088700  0.85616300  1
  N  962  1  0.32443100  0.94523400  0.95799500  1
  N  963  1  0.32184800  0.99639500  0.92115000  1
  N  975  1  0.45600900  0.94547300  0.82155300  1
  N  976  1  0.44993600  0.00322600  0.85497000  1
  N  997  1  0.65813900  0.76304600  0.98846700  1
  N  998  1  0.59838600  0.69940200  0.96271500  1
  N  999  1  0.45603800  0.83184300  0.95573800  1
  N  1000  1  0.45001600  0.77412400  0.92229400  1
  N  1010  1  0.90825000  0.26334400  0.23844100  1
  N  1011  1  0.84784500  0.32631700  0.21228900  1
  N  1021  1  0.90811500  0.01404000  0.03888200  1
  N  1022  1  0.84778700  0.95100400  0.06501100  1
  N  1032  1  0.36931300  0.01309200  0.23850400  1
  N  1033  1  0.42901800  0.94939400  0.21277600  1
  N  1043  1  0.36916700  0.26430300  0.03882800  1
  N  1044  1  0.42897800  0.32793400  0.06457500  1
  N  1050  1  0.38142300  0.38162300  0.33148400  1
  N  1057  1  0.39912000  0.39733700  0.30673500  1
  N  1068  1  0.38121500  0.39567300  0.44585700  1
  N  1075  1  0.39889000  0.37992500  0.47060000  1
  N  1086  1  0.64593100  0.64569500  0.69585600  1
  N  1093  1  0.62823300  0.62995400  0.72059900  1
  N  1104  1  0.64601100  0.63166100  0.58145000  1
  N  1111  1  0.62829900  0.64739800  0.55670500  1
  N  1122  1  0.88130700  0.38163700  0.83147000  1
  N  1129  1  0.89901100  0.39734400  0.80672000  1
  N  1140  1  0.88120100  0.39568900  0.94584300  1
  N  1147  1  0.89888400  0.37994500  0.97058700  1
  N  1158  1  0.14602900  0.64568400  0.19586800  1
  N  1165  1  0.12833000  0.62995200  0.22061400  1
  N  1176  1  0.14601200  0.63164300  0.08146000  1
  N  1183  1  0.12829900  0.64737700  0.05671500  1
  N  1194  1  0.88139800  0.88160400  0.33148900  1
  N  1201  1  0.89902200  0.89735000  0.30674300  1
  N  1212  1  0.88131000  0.89567300  0.44584600  1
  N  1219  1  0.89892000  0.87990900  0.47058900  1
  N  1230  1  0.38131000  0.88162700  0.83147600  1
  N  1237  1  0.39893000  0.89736200  0.80672700  1
  N  1248  1  0.38130600  0.89569200  0.94583600  1
  N  1255  1  0.39891900  0.87993000  0.97057900  1
  N  1263  1  0.03108600  0.26330600  0.25075200  1
  N  1269  1  0.99783100  0.26442100  0.27588000  1
  N  1278  1  0.03110200  0.51522300  0.52659700  1
  N  1285  1  0.99781300  0.51259600  0.50151600  1
  N  1296  1  0.74626400  0.51488600  0.25071600  1
  N  1303  1  0.77955800  0.51294200  0.27582200  1
  N  1311  1  0.74622000  0.26363300  0.52658900  1
  N  1317  1  0.77948100  0.26411100  0.50145100  1
  N  1326  1  0.99629900  0.76402400  0.77658600  1
  N  1333  1  0.02955500  0.76290800  0.75145800  1
  N  1344  1  0.28106700  0.51234300  0.77661300  1
  N  1351  1  0.24785500  0.51451700  0.75150700  1
  N  1362  1  0.28103700  0.76370600  0.50072500  1
  N  1369  1  0.24776000  0.76326800  0.52586100  1
  N  1377  1  0.53112800  0.26339600  0.75074100  1
  N  1383  1  0.49781600  0.26429300  0.77586700  1
  N  1392  1  0.53108000  0.51523200  0.02659500  1
  N  1399  1  0.49778700  0.51258500  0.00151000  1
  N  1407  1  0.24626500  0.26354000  0.02659000  1
  N  1413  1  0.27947300  0.26421800  0.00144500  1
  N  1422  1  0.49626600  0.76392600  0.27658800  1
  N  1429  1  0.52959600  0.76306900  0.25146300  1
  N  1440  1  0.78105700  0.76371600  0.00071200  1
  N  1447  1  0.74779600  0.76323800  0.02585500  1
  N  1454  1  0.53101500  0.01388700  0.52661900  1
  N  1463  1  0.24631900  0.01367300  0.25068700  1
  N  1476  1  0.74786200  0.01315800  0.75145600  1
  N  1481  1  0.03108500  0.01377700  0.02662400  1
  N  1494  1  0.10421200  0.62468300  0.45476300  1
  N  1501  1  0.17674400  0.65183600  0.46257300  1
  N  1512  1  0.67396800  0.62607500  0.32234900  1
  N  1519  1  0.60119900  0.65340100  0.31494200  1
  N  1530  1  0.92312800  0.87465800  0.70480700  1
  N  1537  1  0.85073000  0.90184400  0.71266400  1
  N  1548  1  0.92330300  0.40265400  0.57248200  1
  N  1555  1  0.85067200  0.37551200  0.56473100  1
  N  1566  1  0.35337000  0.40125200  0.70498900  1
  N  1573  1  0.42614400  0.37393100  0.71239700  1
  N  1584  1  0.35339800  0.87608800  0.57227500  1
  N  1591  1  0.42611800  0.90343800  0.56486400  1
  N  1602  1  0.60418600  0.62469700  0.95476300  1
  N  1609  1  0.67672200  0.65184800  0.96257200  1
  N  1620  1  0.17416600  0.62606600  0.82226900  1
  N  1627  1  0.10129900  0.65338500  0.81492600  1
  N  1638  1  0.42305100  0.87469200  0.20481300  1
  N  1645  1  0.35060300  0.90186800  0.21265400  1
  N  1656  1  0.42333200  0.40264200  0.07248400  1
  N  1663  1  0.35069000  0.37549900  0.06473700  1
  N  1674  1  0.85318900  0.40125400  0.20505800  1
  N  1681  1  0.92605700  0.37393800  0.21240400  1
  N  1692  1  0.85340700  0.87607000  0.07227800  1
  N  1699  1  0.92612600  0.90342100  0.06486700  1
  N  1711  1  0.38917700  0.29547000  0.39436700  1
  N  1721  1  0.37951500  0.52337700  0.39405500  1
  N  1728  1  0.38942200  0.48180200  0.38297300  1
  N  1739  1  0.64781300  0.77341600  0.64405300  1
  N  1746  1  0.63787400  0.73183800  0.63297500  1
  N  1757  1  0.64772200  0.50393600  0.63324700  1
  N  1764  1  0.63781900  0.54551600  0.64432200  1
  N  1776  1  0.88917400  0.29547900  0.89435600  1
  N  1786  1  0.87942100  0.52341000  0.89403200  1
  N  1793  1  0.88936000  0.48183900  0.88294800  1
  N  1804  1  0.14780800  0.77340900  0.14405500  1
  N  1811  1  0.13786700  0.73182900  0.13298100  1
  N  1822  1  0.14781200  0.50390800  0.13327000  1
  N  1829  1  0.13788100  0.54548300  0.14434700  1
  N  1840  1  0.87952300  0.75397300  0.38323300  1
  N  1847  1  0.88913400  0.79551100  0.39437500  1
  N  1859  1  0.88933100  0.98175500  0.38295400  1
  N  1869  1  0.14783400  0.27336600  0.64405100  1
  N  1876  1  0.14772100  0.00399100  0.63324000  1
  N  1883  1  0.37952600  0.75398100  0.88322500  1
  N  1890  1  0.38913300  0.79552200  0.89436500  1
  N  1902  1  0.38928700  0.98179300  0.88292800  1
  N  1912  1  0.64784200  0.27335400  0.14405800  1
  N  1919  1  0.64780900  0.00395300  0.13326500  1
  O  6  1  0.12379300  0.21775900  0.29436200  1
  O  15  1  0.65485200  0.21670800  0.48318300  1
  O  24  1  0.62379100  0.21772600  0.79436500  1
  O  33  1  0.15483900  0.21673600  0.98318400  1
  O  43  1  0.62428700  0.05979700  0.48306400  1
  O  53  1  0.15427700  0.06087200  0.29402500  1
  O  64  1  0.16573200  0.21138200  0.68424200  1
  O  77  1  0.16565100  0.06596700  0.59307100  1
  O  90  1  0.11194000  0.06402300  0.68387900  1
  O  103  1  0.11193200  0.21335200  0.59341400  1
  O  116  1  0.12428100  0.05982600  0.98305000  1
  O  127  1  0.65525000  0.06073800  0.79415000  1
  O  138  1  0.66577300  0.21136300  0.18425000  1
  O  151  1  0.66568500  0.06594900  0.09308800  1
  O  164  1  0.61205300  0.06397300  0.18389800  1
  O  177  1  0.61194000  0.21333600  0.09342100  1
  O  466  1  0.36187900  0.31590400  0.34309200  1
  O  482  1  0.36173800  0.46138800  0.43428100  1
  O  489  1  0.12354100  0.55959500  0.48291700  1
  O  506  1  0.41526400  0.46335800  0.34339800  1
  O  513  1  0.65508900  0.56064800  0.29419000  1
  O  529  1  0.41509900  0.31392900  0.43390300  1
  O  545  1  0.66546300  0.71142000  0.68427800  1
  O  552  1  0.90359600  0.80957000  0.73297100  1
  O  569  1  0.66546300  0.56591700  0.59301700  1
  O  576  1  0.90456600  0.46783200  0.54450800  1
  O  593  1  0.61205700  0.56395400  0.68390400  1
  O  600  1  0.37227500  0.46669700  0.73314900  1
  O  617  1  0.61215900  0.71340700  0.59340100  1
  O  624  1  0.37244600  0.81064700  0.54412300  1
  O  640  1  0.86183300  0.31591600  0.84308100  1
  O  656  1  0.86169800  0.46140700  0.93426400  1
  O  663  1  0.62351400  0.55960000  0.98291600  1
  O  680  1  0.91514400  0.46339600  0.84338100  1
  O  687  1  0.15583800  0.56053700  0.79428200  1
  O  703  1  0.91509600  0.31394300  0.93389200  1
  O  719  1  0.16549200  0.71141100  0.18428600  1
  O  726  1  0.40358100  0.80961000  0.23296500  1
  O  743  1  0.16549600  0.56589900  0.09303300  1
  O  750  1  0.40459100  0.46782900  0.04450900  1
  O  767  1  0.11216900  0.56392300  0.18392300  1
  O  774  1  0.87153200  0.46678700  0.23304400  1
  O  791  1  0.11215000  0.71339100  0.09340600  1
  O  798  1  0.87245800  0.81063100  0.04412000  1
  O  815  1  0.86160000  0.81594700  0.34312800  1
  O  822  1  0.62310900  0.71764400  0.29446200  1
  O  838  1  0.86154900  0.96132200  0.43422400  1
  O  852  1  0.91539600  0.96329500  0.34342600  1
  O  866  1  0.91532600  0.81397500  0.43388900  1
  O  873  1  0.15542900  0.71656700  0.48309200  1
  O  889  1  0.40426700  0.30968500  0.73287900  1
  O  900  1  0.40404000  0.96767400  0.54437600  1
  O  911  1  0.87307100  0.96644200  0.73328400  1
  O  922  1  0.87187400  0.31076800  0.54420200  1
  O  934  1  0.36157200  0.81596100  0.84311800  1
  O  941  1  0.12311500  0.71764600  0.79444500  1
  O  957  1  0.36152700  0.96134100  0.93420900  1
  O  970  1  0.41528900  0.96333800  0.84340400  1
  O  984  1  0.41532900  0.81399100  0.93388100  1
  O  991  1  0.65542900  0.71658700  0.98309000  1
  O  1007  1  0.90426700  0.30968500  0.23289200  1
  O  1018  1  0.90404100  0.96766000  0.04438100  1
  O  1029  1  0.37208500  0.96659900  0.23316900  1
  O  1040  1  0.37188800  0.31075600  0.04421000  1
