# generated using pymatgen
data_H8C15N5O3
_symmetry_space_group_name_H-M   'P 1'
_cell_length_a   52.73430000
_cell_length_b   52.73430000
_cell_length_c   52.73430000
_cell_angle_alpha   90.00000000
_cell_angle_beta   90.00000000
_cell_angle_gamma   90.00000000
_symmetry_Int_Tables_number   1
_chemical_formula_structural   H8C15N5O3
_chemical_formula_sum   'H384 C720 N240 O144'
_cell_volume   146649.15218442
_cell_formula_units_Z   48
loop_
 _symmetry_equiv_pos_site_id
 _symmetry_equiv_pos_as_xyz
  1  'x, y, z'
loop_
 _atom_site_type_symbol
 _atom_site_label
 _atom_site_symmetry_multiplicity
 _atom_site_fract_x
 _atom_site_fract_y
 _atom_site_fract_z
 _atom_site_occupancy
  H  9  1  0.37126300  0.24321400  0.00612600  1
  H  17  1  0.24896100  0.36542100  0.00611500  1
  H  19  1  0.29202400  0.31780100  0.94271100  1
  H  20  1  0.32361100  0.28623100  0.94271300  1
  H  21  1  0.29187300  0.31765500  0.06950400  1
  H  22  1  0.32346300  0.28609100  0.06950600  1
  H  24  1  0.35951600  0.23745100  0.05204500  1
  H  26  1  0.24321600  0.35367700  0.05199700  1
  H  28  1  0.24329500  0.35375500  0.96015700  1
  H  30  1  0.35952700  0.23755900  0.96011900  1
  H  39  1  0.64076700  0.75721900  0.00600900  1
  H  47  1  0.76303500  0.63498100  0.00615200  1
  H  49  1  0.72010400  0.68265600  0.94270000  1
  H  50  1  0.68853100  0.71423500  0.94266500  1
  H  51  1  0.72005500  0.68275100  0.06949100  1
  H  52  1  0.68847200  0.71432300  0.06945500  1
  H  54  1  0.65251100  0.76293400  0.05200100  1
  H  56  1  0.76874800  0.64674200  0.05207300  1
  H  58  1  0.76873100  0.64663600  0.96016600  1
  H  60  1  0.65251700  0.76289800  0.96004100  1
  H  69  1  0.64088700  0.24328000  0.00618300  1
  H  77  1  0.76311400  0.36555900  0.00609600  1
  H  79  1  0.72022400  0.31781800  0.06951700  1
  H  80  1  0.68865800  0.28622900  0.06953800  1
  H  81  1  0.72011000  0.31784400  0.94272600  1
  H  82  1  0.68853500  0.28626700  0.94274700  1
  H  84  1  0.65256200  0.23760200  0.96019100  1
  H  86  1  0.76877500  0.35377000  0.96010200  1
  H  88  1  0.76884100  0.35383600  0.05207000  1
  H  90  1  0.65264900  0.23754800  0.05205900  1
  H  99  1  0.37136700  0.75731700  0.00595100  1
  H  107  1  0.24910900  0.63506700  0.00618300  1
  H  109  1  0.29207600  0.68289500  0.06948400  1
  H  110  1  0.32366600  0.71446100  0.06942500  1
  H  111  1  0.29210400  0.68263000  0.94269000  1
  H  112  1  0.32367000  0.71421800  0.94263100  1
  H  114  1  0.35961600  0.76297600  0.96005500  1
  H  116  1  0.24344300  0.64666300  0.96017600  1
  H  118  1  0.24336300  0.64691100  0.05208500  1
  H  120  1  0.35969600  0.76309000  0.05189100  1
  H  129  1  0.00613700  0.36545900  0.24900500  1
  H  137  1  0.00612400  0.24316600  0.37121800  1
  H  139  1  0.94272000  0.28622600  0.32359600  1
  H  140  1  0.94272200  0.31781000  0.29202600  1
  H  141  1  0.06951300  0.28607200  0.32345000  1
  H  142  1  0.06951600  0.31766000  0.29188400  1
  H  144  1  0.05205600  0.35371100  0.24324200  1
  H  146  1  0.05200500  0.23741700  0.35947600  1
  H  148  1  0.96016600  0.23749600  0.35955300  1
  H  150  1  0.96012900  0.35372400  0.24335000  1
  H  159  1  0.00602100  0.63496400  0.76301400  1
  H  167  1  0.00616100  0.75723200  0.64077500  1
  H  169  1  0.94271100  0.71430000  0.68845000  1
  H  170  1  0.94267500  0.68272500  0.72002900  1
  H  171  1  0.06950100  0.71425400  0.68854400  1
  H  172  1  0.06946600  0.68267100  0.72011600  1
  H  174  1  0.05201200  0.64671000  0.76872900  1
  H  176  1  0.05208200  0.76294800  0.65253600  1
  H  178  1  0.96017600  0.76292700  0.65242900  1
  H  180  1  0.96005300  0.64671400  0.76869300  1
  H  189  1  0.00619200  0.63508400  0.24907300  1
  H  197  1  0.00610700  0.75731000  0.37135400  1
  H  199  1  0.06952700  0.71442100  0.32361100  1
  H  200  1  0.06954800  0.68285500  0.29202200  1
  H  201  1  0.94273600  0.71430700  0.32363900  1
  H  202  1  0.94275700  0.68273200  0.29206000  1
  H  204  1  0.96019900  0.64676100  0.24339600  1
  H  206  1  0.96011100  0.76297200  0.35956500  1
  H  208  1  0.05208000  0.76303900  0.35963100  1
  H  210  1  0.05206800  0.64684700  0.24334100  1
  H  219  1  0.00596100  0.36556500  0.76311100  1
  H  227  1  0.00619400  0.24330700  0.64086000  1
  H  229  1  0.06949400  0.28627300  0.68868800  1
  H  230  1  0.06943600  0.31786300  0.72025400  1
  H  231  1  0.94270200  0.28630100  0.68842300  1
  H  232  1  0.94264300  0.31786700  0.72001200  1
  H  234  1  0.96006400  0.35381300  0.76876700  1
  H  236  1  0.96018700  0.23763900  0.65245800  1
  H  238  1  0.05209600  0.23756100  0.65270400  1
  H  240  1  0.05190100  0.35389300  0.76888300  1
  H  249  1  0.24901800  0.00033300  0.37125600  1
  H  257  1  0.37122300  0.00032200  0.24895400  1
  H  259  1  0.32360500  0.93691800  0.29201700  1
  H  260  1  0.29203600  0.93692000  0.32360300  1
  H  261  1  0.32345700  0.06371100  0.29186500  1
  H  262  1  0.29189400  0.06371300  0.32345600  1
  H  264  1  0.24325300  0.04625200  0.35950800  1
  H  266  1  0.35948000  0.04620400  0.24320600  1
  H  268  1  0.35955700  0.95436400  0.24328800  1
  H  270  1  0.24336300  0.95432600  0.35951900  1
  H  279  1  0.76302100  0.00021600  0.64075800  1
  H  287  1  0.64078200  0.00035900  0.76302500  1
  H  289  1  0.68845700  0.93690800  0.72009300  1
  H  290  1  0.72003600  0.93687200  0.68852000  1
  H  291  1  0.68855200  0.06369800  0.72004800  1
  H  292  1  0.72012300  0.06366200  0.68846300  1
  H  294  1  0.76873700  0.04620800  0.65250300  1
  H  296  1  0.65254500  0.04628000  0.76874100  1
  H  298  1  0.65243700  0.95437300  0.76872200  1
  H  300  1  0.76870100  0.95425000  0.65250900  1
  H  309  1  0.24908100  0.00039000  0.64087700  1
  H  317  1  0.37136200  0.00030300  0.76310300  1
  H  319  1  0.32362100  0.06372400  0.72021400  1
  H  320  1  0.29203200  0.06374600  0.68864900  1
  H  321  1  0.32364700  0.93693300  0.72009900  1
  H  322  1  0.29207000  0.93695400  0.68852500  1
  H  324  1  0.24340500  0.95439800  0.65255300  1
  H  326  1  0.35957400  0.95430900  0.76876300  1
  H  328  1  0.35964100  0.04627700  0.76883000  1
  H  330  1  0.24335000  0.04626700  0.65264000  1
  H  339  1  0.76311800  0.00015900  0.37136000  1
  H  347  1  0.64086800  0.00039000  0.24910200  1
  H  349  1  0.68869600  0.06369100  0.29206800  1
  H  350  1  0.72026200  0.06363300  0.32365700  1
  H  351  1  0.68843100  0.93689700  0.29209800  1
  H  352  1  0.72001900  0.93684000  0.32366400  1
  H  354  1  0.76877500  0.95426100  0.35961000  1
  H  356  1  0.65246500  0.95438300  0.24343600  1
  H  358  1  0.65271200  0.04629200  0.24335600  1
  H  360  1  0.76889100  0.04609900  0.35968800  1
  H  369  1  0.87740400  0.74955400  0.50613600  1
  H  377  1  0.75528300  0.87154900  0.50613900  1
  H  379  1  0.79584300  0.82165900  0.44276700  1
  H  380  1  0.82746900  0.79006500  0.44276500  1
  H  381  1  0.79566200  0.82147100  0.56946600  1
  H  382  1  0.82728100  0.78986900  0.56946400  1
  H  384  1  0.86727200  0.74360500  0.55178300  1
  H  386  1  0.74937400  0.86139200  0.55175900  1
  H  388  1  0.74944400  0.86149100  0.46044000  1
  H  390  1  0.86735200  0.74377000  0.46038500  1
  H  399  1  0.13462600  0.25088000  0.50601800  1
  H  407  1  0.25673800  0.12887800  0.50613700  1
  H  409  1  0.21629600  0.17882700  0.44273800  1
  H  410  1  0.18468400  0.21043600  0.44271000  1
  H  411  1  0.21628100  0.17893200  0.56943600  1
  H  412  1  0.18464900  0.21052100  0.56940600  1
  H  414  1  0.14469800  0.25673400  0.55174300  1
  H  416  1  0.26262800  0.13902800  0.55179500  1
  H  418  1  0.26256500  0.13888200  0.46040800  1
  H  420  1  0.14474400  0.25673000  0.46030800  1
  H  429  1  0.13478500  0.74958200  0.50620000  1
  H  437  1  0.25677800  0.87170000  0.50607900  1
  H  439  1  0.21646800  0.82163000  0.56945900  1
  H  440  1  0.18487500  0.79000200  0.56949100  1
  H  441  1  0.21630900  0.82166800  0.44276300  1
  H  442  1  0.18470500  0.79005300  0.44279300  1
  H  444  1  0.14477800  0.74376500  0.46046700  1
  H  446  1  0.26258400  0.86159700  0.46035500  1
  H  448  1  0.26268100  0.86163700  0.55178300  1
  H  450  1  0.14499900  0.74366800  0.55181200  1
  H  459  1  0.87748800  0.25101100  0.50595900  1
  H  467  1  0.75545700  0.12892500  0.50618500  1
  H  469  1  0.79587100  0.17907000  0.56943600  1
  H  470  1  0.82749200  0.21067100  0.56938100  1
  H  471  1  0.79590700  0.17880500  0.44273800  1
  H  472  1  0.82750500  0.21042900  0.44268200  1
  H  474  1  0.86730500  0.25684400  0.46031900  1
  H  476  1  0.74961700  0.13890700  0.46044200  1
  H  478  1  0.74956500  0.13918400  0.55180600  1
  H  480  1  0.86746000  0.25693300  0.55163300  1
  H  489  1  0.50614300  0.87160000  0.75534100  1
  H  497  1  0.50615100  0.74948600  0.87734400  1
  H  499  1  0.44277600  0.79004200  0.82745600  1
  H  500  1  0.44277400  0.82166500  0.79585800  1
  H  501  1  0.56947600  0.78986200  0.82726100  1
  H  502  1  0.56947200  0.82147700  0.79565900  1
  H  504  1  0.55179100  0.86147000  0.74939500  1
  H  506  1  0.55176800  0.74357300  0.86718500  1
  H  508  1  0.46045200  0.74364900  0.86728900  1
  H  510  1  0.46039300  0.86154700  0.74956200  1
  H  519  1  0.50602600  0.12882200  0.25667200  1
  H  527  1  0.50614700  0.25093500  0.13467000  1
  H  529  1  0.44274800  0.21049300  0.18461700  1
  H  530  1  0.44271900  0.17888000  0.21622700  1
  H  531  1  0.56944500  0.21047800  0.18472500  1
  H  532  1  0.56941500  0.17884700  0.21631500  1
  H  534  1  0.55175300  0.13889500  0.26252600  1
  H  536  1  0.55180400  0.25682500  0.14482000  1
  H  538  1  0.46041800  0.25676100  0.14467300  1
  H  540  1  0.46031500  0.13894100  0.26252200  1
  H  549  1  0.50620900  0.12898300  0.75537600  1
  H  557  1  0.50608800  0.25097300  0.87749500  1
  H  559  1  0.56946800  0.21066400  0.82742500  1
  H  560  1  0.56949800  0.17907200  0.79579700  1
  H  561  1  0.44277300  0.21050600  0.82746200  1
  H  562  1  0.44280100  0.17890300  0.79584500  1
  H  564  1  0.46047600  0.13897600  0.74955800  1
  H  566  1  0.46036300  0.25678000  0.86739200  1
  H  568  1  0.55179100  0.25687800  0.86743000  1
  H  570  1  0.55182100  0.13919700  0.74946300  1
  H  579  1  0.50596700  0.87168500  0.25680300  1
  H  587  1  0.50619600  0.74965400  0.13471700  1
  H  589  1  0.56944500  0.79006700  0.18486500  1
  H  590  1  0.56938800  0.82168700  0.21646400  1
  H  591  1  0.44274800  0.79010600  0.18459500  1
  H  592  1  0.44269100  0.82170200  0.21621800  1
  H  594  1  0.46032700  0.86150200  0.26263400  1
  H  596  1  0.46045200  0.74381600  0.14469700  1
  H  598  1  0.55181400  0.74376300  0.14497700  1
  H  600  1  0.55163900  0.86165600  0.26272700  1
  H  609  1  0.75535700  0.50034000  0.87739500  1
  H  617  1  0.87735100  0.50034600  0.75527500  1
  H  619  1  0.82746200  0.43697400  0.79583300  1
  H  620  1  0.79586700  0.43697200  0.82746000  1
  H  621  1  0.82727600  0.56367100  0.79565500  1
  H  622  1  0.79567400  0.56366900  0.82727400  1
  H  624  1  0.74941000  0.54599000  0.86726300  1
  H  626  1  0.86719700  0.54596300  0.74936600  1
  H  628  1  0.86729500  0.45464700  0.74943600  1
  H  630  1  0.74957500  0.45459200  0.86734400  1
  H  639  1  0.25668100  0.50022500  0.13461500  1
  H  647  1  0.13467800  0.50034400  0.25672700  1
  H  649  1  0.18462600  0.43694500  0.21628200  1
  H  650  1  0.21623700  0.43691700  0.18467100  1
  H  651  1  0.18473400  0.56364300  0.21627100  1
  H  652  1  0.21632400  0.56361200  0.18464000  1
  H  654  1  0.26253500  0.54595000  0.14468700  1
  H  656  1  0.14482800  0.54600100  0.26261700  1
  H  658  1  0.14468200  0.45461500  0.26255200  1
  H  660  1  0.26253100  0.45451400  0.14473300  1
  H  669  1  0.75538500  0.50040700  0.13477500  1
  H  677  1  0.87750500  0.50028700  0.25676500  1
  H  679  1  0.82743300  0.56366500  0.21645900  1
  H  680  1  0.79580300  0.56369800  0.18486600  1
  H  681  1  0.82747500  0.43697000  0.21629600  1
  H  682  1  0.79585800  0.43700000  0.18469300  1
  H  684  1  0.74956900  0.45467400  0.14476800  1
  H  686  1  0.86740100  0.45456200  0.26257100  1
  H  688  1  0.86743900  0.54598800  0.26267000  1
  H  690  1  0.74947100  0.54601800  0.14498900  1
  H  699  1  0.25681200  0.50016400  0.87748000  1
  H  707  1  0.13472700  0.50039400  0.75544800  1
  H  709  1  0.18487500  0.56364300  0.79586000  1
  H  710  1  0.21647600  0.56358600  0.82748000  1
  H  711  1  0.18460600  0.43694500  0.79589800  1
  H  712  1  0.21622900  0.43688800  0.82749600  1
  H  714  1  0.26264300  0.45452400  0.86729500  1
  H  716  1  0.14470800  0.45464900  0.74960900  1
  H  718  1  0.14498700  0.54601100  0.74955600  1
  H  720  1  0.26273600  0.54583800  0.86745100  1
  H  727  1  0.40180700  0.29036700  0.90636300  1
  H  731  1  0.45615500  0.19672800  0.92976900  1
  H  732  1  0.44300400  0.16893100  0.93722700  1
  H  743  1  0.61038500  0.71006900  0.90624300  1
  H  747  1  0.55561600  0.80351700  0.92960900  1
  H  748  1  0.56866000  0.83132200  0.93721900  1
  H  759  1  0.61026700  0.29040900  0.10571100  1
  H  763  1  0.55586400  0.19676000  0.08235900  1
  H  764  1  0.56901300  0.16896400  0.07489400  1
  H  775  1  0.40208700  0.71021500  0.10550300  1
  H  779  1  0.45625300  0.80401600  0.08226700  1
  H  780  1  0.44303600  0.83181000  0.07491000  1
  H  791  1  0.90638200  0.39601400  0.29616000  1
  H  795  1  0.92978200  0.45034300  0.20251000  1
  H  796  1  0.93723300  0.43718600  0.17471300  1
  H  807  1  0.90626000  0.60457400  0.71586100  1
  H  811  1  0.92962300  0.54981700  0.80931600  1
  H  812  1  0.93722900  0.56286500  0.83712100  1
  H  823  1  0.10572000  0.60446400  0.29620000  1
  H  827  1  0.08236900  0.55006300  0.20254900  1
  H  828  1  0.07490300  0.56321400  0.17475500  1
  H  839  1  0.10551500  0.39628500  0.71600800  1
  H  843  1  0.08227800  0.45045300  0.80980700  1
  H  844  1  0.07491900  0.43723900  0.83760100  1
  H  855  1  0.29617300  0.90057100  0.40180100  1
  H  859  1  0.20253000  0.92397600  0.45614500  1
  H  860  1  0.17473300  0.93143200  0.44299300  1
  H  871  1  0.71587000  0.90045400  0.61037100  1
  H  875  1  0.80932300  0.92381800  0.55561000  1
  H  876  1  0.83712900  0.93142400  0.56865800  1
  H  887  1  0.29621100  0.09991800  0.61025600  1
  H  891  1  0.20256100  0.07656700  0.55585600  1
  H  892  1  0.17476500  0.06910200  0.56900700  1
  H  903  1  0.71601800  0.09971600  0.40207600  1
  H  907  1  0.80981300  0.07647800  0.45625000  1
  H  908  1  0.83760700  0.06911600  0.44303600  1
  H  919  1  0.29610000  0.39605300  0.10564800  1
  H  923  1  0.20240500  0.45036300  0.08232800  1
  H  924  1  0.17460400  0.43719400  0.07491500  1
  H  935  1  0.71589700  0.60443400  0.10573700  1
  H  939  1  0.80955100  0.54999700  0.08248600  1
  H  940  1  0.83734500  0.56313400  0.07499400  1
  H  951  1  0.29628000  0.60443400  0.90645000  1
  H  955  1  0.20274700  0.54980200  0.92979500  1
  H  956  1  0.17494500  0.56289000  0.93735000  1
  H  967  1  0.71595500  0.39615600  0.90641800  1
  H  971  1  0.80975000  0.45024600  0.92978000  1
  H  972  1  0.83754200  0.43701500  0.93712500  1
  H  983  1  0.40195700  0.90062500  0.71594200  1
  H  987  1  0.45605000  0.92398700  0.80973900  1
  H  988  1  0.44282000  0.93133100  0.83752900  1
  H  999  1  0.61023500  0.90065700  0.29627200  1
  H  1003  1  0.55560600  0.92400400  0.20273500  1
  H  1004  1  0.56869400  0.93155700  0.17493500  1
  H  1015  1  0.61023500  0.09994300  0.71588900  1
  H  1019  1  0.55579800  0.07669200  0.80954300  1
  H  1020  1  0.56893700  0.06920100  0.83733700  1
  H  1031  1  0.40185400  0.09985700  0.29609000  1
  H  1035  1  0.45616600  0.07653700  0.20239600  1
  H  1036  1  0.44299800  0.06912200  0.17459600  1
  H  1047  1  0.90646100  0.29047700  0.61022900  1
  H  1051  1  0.92980900  0.19694200  0.55559500  1
  H  1052  1  0.93736200  0.16914200  0.56868300  1
  H  1063  1  0.90643100  0.71015100  0.40195300  1
  H  1067  1  0.92979200  0.80395100  0.45603500  1
  H  1068  1  0.93713200  0.83174300  0.44280500  1
  H  1079  1  0.10566700  0.29029700  0.40183700  1
  H  1083  1  0.08234200  0.19661800  0.45617200  1
  H  1084  1  0.07491800  0.16881700  0.44301000  1
  H  1095  1  0.10574700  0.71009600  0.61022700  1
  H  1099  1  0.08249500  0.80374800  0.55578800  1
  H  1100  1  0.07500200  0.83154200  0.56892600  1
  H  1111  1  0.61030300  0.71016400  0.10585100  1
  H  1115  1  0.55588500  0.80379600  0.08249400  1
  H  1116  1  0.56902400  0.83158200  0.07498100  1
  H  1127  1  0.40189000  0.29032500  0.10565300  1
  H  1131  1  0.45622500  0.19665000  0.08229400  1
  H  1132  1  0.44305900  0.16884800  0.07487800  1
  H  1143  1  0.40207000  0.71007700  0.90650500  1
  H  1147  1  0.45640100  0.80377300  0.92981800  1
  H  1148  1  0.44323100  0.83157300  0.93723300  1
  H  1159  1  0.61032800  0.29044700  0.90645400  1
  H  1163  1  0.55588300  0.19680700  0.92972700  1
  H  1164  1  0.56901700  0.16900900  0.93721200  1
  H  1175  1  0.10586700  0.60450800  0.71595900  1
  H  1179  1  0.08250500  0.55007500  0.80958100  1
  H  1180  1  0.07498600  0.56321000  0.83737000  1
  H  1191  1  0.10566300  0.39608800  0.29611700  1
  H  1195  1  0.08230300  0.45041800  0.20243800  1
  H  1196  1  0.07488800  0.43725100  0.17463700  1
  H  1207  1  0.90651800  0.39627200  0.71586600  1
  H  1211  1  0.92982600  0.45059300  0.80957000  1
  H  1212  1  0.93723300  0.43741900  0.83737000  1
  H  1223  1  0.90646500  0.60452500  0.29624000  1
  H  1227  1  0.92973700  0.55008600  0.20259700  1
  H  1228  1  0.93721900  0.56322200  0.17480000  1
  H  1239  1  0.71596900  0.10006000  0.61029500  1
  H  1243  1  0.80959500  0.07669900  0.55587400  1
  H  1244  1  0.83738300  0.06918400  0.56901100  1
  H  1255  1  0.29612800  0.09986300  0.40188100  1
  H  1259  1  0.20245500  0.07650400  0.45621700  1
  H  1260  1  0.17465400  0.06908600  0.44305300  1
  H  1271  1  0.71587200  0.90072100  0.40207400  1
  H  1275  1  0.80958300  0.92402300  0.45638200  1
  H  1276  1  0.83738500  0.93142600  0.44320500  1
  H  1287  1  0.29624900  0.90066200  0.61031800  1
  H  1291  1  0.20260800  0.92393400  0.55587700  1
  H  1292  1  0.17481000  0.93141700  0.56901300  1
  H  1303  1  0.71589300  0.60456100  0.90631900  1
  H  1307  1  0.80937500  0.54981700  0.92959400  1
  H  1308  1  0.83718000  0.56286900  0.93719300  1
  H  1319  1  0.29619200  0.39617700  0.90662400  1
  H  1323  1  0.20247200  0.45048900  0.92989200  1
  H  1324  1  0.17467100  0.43731100  0.93728800  1
  H  1335  1  0.71599900  0.39614400  0.10576000  1
  H  1339  1  0.80966100  0.45049600  0.08238000  1
  H  1340  1  0.83746100  0.43733600  0.07495000  1
  H  1351  1  0.29618500  0.60443000  0.10567500  1
  H  1355  1  0.20237900  0.55035200  0.08231700  1
  H  1356  1  0.17459700  0.56358400  0.07494800  1
  H  1367  1  0.61023300  0.09988200  0.29617500  1
  H  1371  1  0.55615200  0.07652400  0.20237100  1
  H  1372  1  0.56938500  0.06915500  0.17458800  1
  H  1383  1  0.40194500  0.09996800  0.71598800  1
  H  1387  1  0.45630100  0.07659100  0.80965000  1
  H  1388  1  0.44314000  0.06916000  0.83744900  1
  H  1399  1  0.40198100  0.90083100  0.29618500  1
  H  1403  1  0.45628900  0.92409900  0.20246000  1
  H  1404  1  0.44311200  0.93149400  0.17466000  1
  H  1415  1  0.61036400  0.90052600  0.71587900  1
  H  1419  1  0.55561800  0.92379900  0.80936100  1
  H  1420  1  0.56866800  0.93139800  0.83716900  1
  H  1431  1  0.10577200  0.71019600  0.40193600  1
  H  1435  1  0.08239300  0.80385600  0.45629100  1
  H  1436  1  0.07496200  0.83165600  0.44312900  1
  H  1447  1  0.10568400  0.29038200  0.61022300  1
  H  1451  1  0.08232600  0.19657800  0.55614500  1
  H  1452  1  0.07495800  0.16879400  0.56937700  1
  H  1463  1  0.90632900  0.71008800  0.61035400  1
  H  1467  1  0.92960200  0.80357400  0.55561400  1
  H  1468  1  0.93719800  0.83137900  0.56866600  1
  H  1479  1  0.90661500  0.29039000  0.40195300  1
  H  1483  1  0.92989800  0.19669700  0.45631000  1
  H  1484  1  0.93731600  0.16889500  0.44314600  1
  C  1  1  0.31919800  0.29422400  0.00611200  1
  C  2  1  0.32875600  0.28458500  0.98269800  1
  C  3  1  0.34809400  0.26582100  0.98274800  1
  C  4  1  0.35706900  0.25650700  0.00611900  1
  C  5  1  0.34803200  0.26576600  0.02948900  1
  C  6  1  0.32869100  0.28452600  0.02952600  1
  C  7  1  0.31803200  0.29345400  0.95981900  1
  C  8  1  0.31791800  0.29334400  0.05240100  1
  C  10  1  0.30001200  0.31339400  0.00611100  1
  C  11  1  0.29036300  0.32294000  0.98269800  1
  C  12  1  0.27158600  0.34226500  0.98274200  1
  C  13  1  0.26227000  0.35124200  0.00611200  1
  C  14  1  0.27153300  0.34221200  0.02948400  1
  C  15  1  0.29030600  0.32288100  0.02952300  1
  C  16  1  0.29924900  0.31222800  0.95981900  1
  C  18  1  0.29913400  0.31211600  0.05239900  1
  C  31  1  0.69281900  0.70619700  0.00606700  1
  C  32  1  0.68330700  0.71585300  0.98264300  1
  C  33  1  0.66397600  0.73462300  0.98266400  1
  C  34  1  0.65494400  0.74390900  0.00602400  1
  C  35  1  0.66394600  0.73464500  0.02940500  1
  C  36  1  0.68328200  0.71588100  0.02947000  1
  C  37  1  0.69407200  0.70699500  0.95977800  1
  C  38  1  0.69403000  0.70706200  0.05235700  1
  C  40  1  0.71199800  0.68702000  0.00608800  1
  C  41  1  0.72167800  0.67747800  0.98268700  1
  C  42  1  0.74044000  0.65813700  0.98275100  1
  C  43  1  0.74971500  0.64914900  0.00613300  1
  C  44  1  0.74044000  0.65819400  0.02949300  1
  C  45  1  0.72166900  0.67752500  0.02951300  1
  C  46  1  0.71284900  0.68821800  0.95979900  1
  C  48  1  0.71281300  0.68828800  0.05237800  1
  C  61  1  0.69291500  0.29432500  0.00614000  1
  C  62  1  0.68342800  0.28463600  0.02956000  1
  C  63  1  0.66410100  0.26586100  0.02953400  1
  C  64  1  0.65505900  0.25659200  0.00616800  1
  C  65  1  0.66403700  0.26589100  0.98279100  1
  C  66  1  0.68336700  0.28466100  0.98273200  1
  C  67  1  0.69419300  0.29348100  0.05242900  1
  C  68  1  0.69409700  0.29351300  0.95985000  1
  C  70  1  0.71208900  0.31350800  0.00612700  1
  C  71  1  0.72178100  0.32302500  0.02953400  1
  C  72  1  0.74054500  0.34236400  0.02948000  1
  C  73  1  0.74980200  0.35138000  0.00610400  1
  C  74  1  0.74050900  0.34236900  0.98274000  1
  C  75  1  0.72173700  0.32303800  0.98270600  1
  C  76  1  0.71296100  0.31226700  0.05241600  1
  C  78  1  0.71287200  0.31229400  0.95983600  1
  C  91  1  0.31933100  0.70627900  0.00604300  1
  C  92  1  0.32885100  0.71599500  0.02943900  1
  C  93  1  0.34818900  0.73475700  0.02936300  1
  C  94  1  0.35718700  0.74401100  0.00597600  1
  C  95  1  0.34817200  0.73469100  0.98262100  1
  C  96  1  0.32884900  0.71591200  0.98261300  1
  C  97  1  0.31810000  0.70719400  0.05233200  1
  C  98  1  0.31811000  0.70701000  0.95975100  1
  C  100  1  0.30015400  0.68709900  0.00607800  1
  C  101  1  0.29046800  0.67763500  0.02950900  1
  C  102  1  0.27169000  0.65831200  0.02950500  1
  C  103  1  0.26242500  0.64924000  0.00615200  1
  C  104  1  0.27172600  0.65818500  0.98276300  1
  C  105  1  0.29049200  0.67751900  0.98268300  1
  C  106  1  0.29931600  0.68842500  0.05236600  1
  C  108  1  0.29934000  0.68822400  0.95978700  1
  C  121  1  0.00612200  0.31339600  0.30001700  1
  C  122  1  0.98271000  0.32295500  0.29037600  1
  C  123  1  0.98275700  0.34229100  0.27161300  1
  C  124  1  0.00613000  0.35126500  0.26229800  1
  C  125  1  0.02949900  0.34222700  0.27155800  1
  C  126  1  0.02953600  0.32288900  0.29031800  1
  C  127  1  0.95983100  0.31223100  0.29924700  1
  C  128  1  0.05241000  0.31211400  0.29913700  1
  C  130  1  0.00612000  0.29421300  0.31918900  1
  C  131  1  0.98270800  0.28456400  0.32873500  1
  C  132  1  0.98274900  0.26578700  0.34806000  1
  C  133  1  0.00612100  0.25647300  0.35703900  1
  C  134  1  0.02949300  0.26573600  0.34800900  1
  C  135  1  0.02953300  0.28450600  0.32867600  1
  C  136  1  0.95982900  0.29344900  0.31802100  1
  C  138  1  0.05240900  0.29333100  0.31790900  1
  C  151  1  0.00607800  0.68701600  0.71199000  1
  C  152  1  0.98265300  0.67750400  0.72164600  1
  C  153  1  0.98267600  0.65817100  0.74041600  1
  C  154  1  0.00603600  0.64914100  0.74970200  1
  C  155  1  0.02941600  0.65814500  0.74043800  1
  C  156  1  0.02948100  0.67748100  0.72167500  1
  C  157  1  0.95978900  0.68826700  0.71278900  1
  C  158  1  0.05236700  0.68822800  0.71285500  1
  C  160  1  0.00609900  0.70619500  0.69281300  1
  C  161  1  0.98269600  0.71587400  0.68327100  1
  C  162  1  0.98276100  0.73463600  0.66393000  1
  C  163  1  0.00614200  0.74391100  0.65494200  1
  C  164  1  0.02950300  0.73463800  0.66398700  1
  C  165  1  0.02952300  0.71586600  0.68331800  1
  C  166  1  0.95981000  0.70704500  0.69401100  1
  C  168  1  0.05238800  0.70701000  0.69408200  1
  C  181  1  0.00614900  0.68711500  0.30011800  1
  C  182  1  0.02956900  0.67762500  0.29043000  1
  C  183  1  0.02954300  0.65829800  0.27165400  1
  C  184  1  0.00617800  0.64925900  0.26238500  1
  C  185  1  0.98280100  0.65823600  0.27168500  1
  C  186  1  0.98274200  0.67756700  0.29045400  1
  C  187  1  0.05243900  0.68839300  0.29927400  1
  C  188  1  0.95985900  0.68829600  0.29930800  1
  C  190  1  0.00613700  0.70628800  0.31930100  1
  C  191  1  0.02954500  0.71598000  0.32881800  1
  C  192  1  0.02949100  0.73474200  0.34815700  1
  C  193  1  0.00611500  0.74400000  0.35717600  1
  C  194  1  0.98274900  0.73470400  0.34816400  1
  C  195  1  0.98271700  0.71593400  0.32883300  1
  C  196  1  0.05242600  0.70716200  0.31805900  1
  C  198  1  0.95984600  0.70706900  0.31808900  1
  C  211  1  0.00605300  0.31352800  0.71207200  1
  C  212  1  0.02944900  0.32304800  0.72178800  1
  C  213  1  0.02937300  0.34238800  0.74055000  1
  C  214  1  0.00598600  0.35138400  0.74980400  1
  C  215  1  0.98263000  0.34236900  0.74048400  1
  C  216  1  0.98262200  0.32304600  0.72170500  1
  C  217  1  0.05234200  0.31229800  0.71298800  1
  C  218  1  0.95976300  0.31230700  0.71280400  1
  C  220  1  0.00608900  0.29435100  0.69289300  1
  C  221  1  0.02952000  0.28466500  0.68343000  1
  C  222  1  0.02951500  0.26588800  0.66410500  1
  C  223  1  0.00616200  0.25662200  0.65503300  1
  C  224  1  0.98277400  0.26592200  0.66397800  1
  C  225  1  0.98269300  0.28468900  0.68331400  1
  C  226  1  0.05237700  0.29351300  0.69421800  1
  C  228  1  0.95979700  0.29353800  0.69401700  1
  C  241  1  0.30002900  0.00031900  0.31919100  1
  C  242  1  0.29039000  0.97690700  0.32874800  1
  C  243  1  0.27162600  0.97695400  0.34808800  1
  C  244  1  0.26231100  0.00032700  0.35706200  1
  C  245  1  0.27156900  0.02369600  0.34802400  1
  C  246  1  0.29032900  0.02373400  0.32868400  1
  C  247  1  0.29925900  0.95402800  0.31802500  1
  C  248  1  0.29914900  0.04660800  0.31790900  1
  C  250  1  0.31919800  0.00031800  0.30000400  1
  C  251  1  0.32874400  0.97690500  0.29035600  1
  C  252  1  0.34806800  0.97694900  0.27157800  1
  C  253  1  0.35704500  0.00032000  0.26226200  1
  C  254  1  0.34801500  0.02369100  0.27152500  1
  C  255  1  0.32868600  0.02373100  0.29029700  1
  C  256  1  0.31803200  0.95402600  0.29924200  1
  C  258  1  0.31791800  0.04660600  0.29912400  1
  C  271  1  0.71199800  0.00027500  0.69280900  1
  C  272  1  0.72165400  0.97685000  0.68329700  1
  C  273  1  0.74042300  0.97687100  0.66396600  1
  C  274  1  0.74971100  0.00023100  0.65493600  1
  C  275  1  0.74044800  0.02361200  0.66393800  1
  C  276  1  0.72168400  0.02367800  0.68327500  1
  C  277  1  0.71279800  0.95398400  0.69406100  1
  C  278  1  0.71286200  0.04656400  0.69402100  1
  C  280  1  0.69282000  0.00029600  0.71198800  1
  C  281  1  0.68328000  0.97689400  0.72166900  1
  C  282  1  0.66394000  0.97695800  0.74042900  1
  C  283  1  0.65495100  0.00034000  0.74970600  1
  C  284  1  0.66399500  0.02370000  0.74043100  1
  C  285  1  0.68332600  0.02372000  0.72165900  1
  C  286  1  0.69401900  0.95400500  0.71283800  1
  C  288  1  0.69409100  0.04658500  0.71280400  1
  C  301  1  0.30012700  0.00034700  0.69290600  1
  C  302  1  0.29043900  0.02376700  0.68341900  1
  C  303  1  0.27166400  0.02374100  0.66409200  1
  C  304  1  0.26239500  0.00037600  0.65505000  1
  C  305  1  0.27169400  0.97699800  0.66402700  1
  C  306  1  0.29046400  0.97694100  0.68335800  1
  C  307  1  0.29928300  0.04663600  0.69418400  1
  C  308  1  0.29931600  0.95405700  0.69408700  1
  C  310  1  0.31931200  0.00033400  0.71207900  1
  C  311  1  0.32882800  0.02374200  0.72177100  1
  C  312  1  0.34816600  0.02368700  0.74053300  1
  C  313  1  0.35718500  0.00031100  0.74979100  1
  C  314  1  0.34817400  0.97694700  0.74049700  1
  C  315  1  0.32884300  0.97691500  0.72172600  1
  C  316  1  0.31807000  0.04662400  0.71295200  1
  C  318  1  0.31809800  0.95404300  0.71286200  1
  C  331  1  0.71207900  0.00025000  0.31932400  1
  C  332  1  0.72179600  0.02364600  0.32884300  1
  C  333  1  0.74055800  0.02357100  0.34818300  1
  C  334  1  0.74981200  0.00018400  0.35717900  1
  C  335  1  0.74049200  0.97682700  0.34816600  1
  C  336  1  0.72171300  0.97682000  0.32884100  1
  C  337  1  0.71299500  0.04653900  0.31809300  1
  C  338  1  0.71281100  0.95396000  0.31810400  1
  C  340  1  0.69290000  0.00028500  0.30014600  1
  C  341  1  0.68343600  0.02371700  0.29046000  1
  C  342  1  0.66411200  0.02371200  0.27168300  1
  C  343  1  0.65504100  0.00035900  0.26241700  1
  C  344  1  0.66398500  0.97697000  0.27171900  1
  C  345  1  0.68332000  0.97689000  0.29048500  1
  C  346  1  0.69422600  0.04657400  0.29930600  1
  C  348  1  0.69402500  0.95399400  0.29933500  1
  C  361  1  0.82327100  0.79830000  0.50612000  1
  C  362  1  0.83301600  0.78886200  0.48271100  1
  C  363  1  0.85310500  0.77089900  0.48273000  1
  C  364  1  0.86248800  0.76202800  0.50612600  1
  C  365  1  0.85302400  0.77081900  0.52952100  1
  C  366  1  0.83293000  0.78877700  0.52952800  1
  C  367  1  0.82190000  0.79732600  0.45986400  1
  C  368  1  0.82175000  0.79717000  0.55237100  1
  C  370  1  0.80408600  0.81746400  0.50612000  1
  C  371  1  0.79462500  0.82719000  0.48271400  1
  C  372  1  0.77663700  0.84725900  0.48273300  1
  C  373  1  0.76778100  0.85665300  0.50613200  1
  C  374  1  0.77658600  0.84719800  0.52952600  1
  C  375  1  0.79456100  0.82711800  0.52953200  1
  C  376  1  0.80309800  0.81608400  0.45986600  1
  C  378  1  0.80296500  0.81594300  0.55237100  1
  C  391  1  0.18875900  0.20213400  0.50606500  1
  C  392  1  0.17906800  0.21160200  0.48264600  1
  C  393  1  0.15898400  0.22957200  0.48264400  1
  C  394  1  0.14952800  0.23838900  0.50602900  1
  C  395  1  0.15894700  0.22957900  0.52943300  1
  C  396  1  0.17904600  0.21162500  0.52946600  1
  C  397  1  0.19022700  0.20316400  0.45981100  1
  C  398  1  0.19020100  0.20322400  0.55231800  1
  C  400  1  0.20794100  0.18296600  0.50608200  1
  C  401  1  0.21742800  0.17324900  0.48268200  1
  C  402  1  0.23539700  0.15316400  0.48271400  1
  C  403  1  0.24422400  0.14376000  0.50611800  1
  C  404  1  0.23541200  0.15322300  0.52950600  1
  C  405  1  0.21743500  0.17330100  0.52950000  1
  C  406  1  0.20900300  0.18438100  0.45982800  1
  C  408  1  0.20900100  0.18446700  0.55233500  1
  C  421  1  0.18888000  0.79837000  0.50613700  1
  C  422  1  0.17922900  0.78886200  0.52955700  1
  C  423  1  0.15915100  0.77088500  0.52956600  1
  C  424  1  0.14967800  0.76208300  0.50617900  1
  C  425  1  0.15905800  0.77093300  0.48277300  1
  C  426  1  0.17914700  0.78889800  0.48273700  1
  C  427  1  0.19040400  0.79728800  0.55239000  1
  C  428  1  0.19026900  0.79733500  0.45988300  1
  C  430  1  0.20804500  0.81755500  0.50612000  1
  C  431  1  0.21755300  0.82725100  0.52952100  1
  C  432  1  0.23550100  0.84735200  0.52949200  1
  C  433  1  0.24428900  0.85679500  0.50609000  1
  C  434  1  0.23544800  0.84736500  0.48270100  1
  C  435  1  0.21749000  0.82727000  0.48270100  1
  C  436  1  0.20916600  0.81608400  0.55237100  1
  C  438  1  0.20904600  0.81611800  0.45986600  1
  C  451  1  0.82339800  0.20221600  0.50604600  1
  C  452  1  0.83309200  0.21174600  0.52943900  1
  C  453  1  0.85317900  0.22971200  0.52939600  1
  C  454  1  0.86259200  0.23851300  0.50598400  1
  C  455  1  0.85315300  0.22965900  0.48260200  1
  C  456  1  0.83308600  0.21166900  0.48262100  1
  C  457  1  0.82194500  0.20335500  0.55229900  1
  C  458  1  0.82195100  0.20318300  0.45979200  1
  C  460  1  0.80422400  0.18303900  0.50608100  1
  C  461  1  0.79472800  0.17339600  0.52950700  1
  C  462  1  0.77674700  0.15332300  0.52953400  1
  C  463  1  0.76794800  0.14382800  0.50615400  1
  C  464  1  0.77677700  0.15320500  0.48274100  1
  C  465  1  0.79475000  0.17328800  0.48269000  1
  C  466  1  0.80316000  0.18458200  0.55233100  1
  C  468  1  0.80318500  0.18438900  0.45982400  1
  C  481  1  0.50612800  0.81747000  0.80409200  1
  C  482  1  0.48272000  0.82721300  0.79465400  1
  C  483  1  0.48273700  0.84730100  0.77668800  1
  C  484  1  0.50613600  0.85668300  0.76781700  1
  C  485  1  0.52952800  0.84722100  0.77660800  1
  C  486  1  0.52953800  0.82712800  0.79456800  1
  C  487  1  0.45987200  0.81609700  0.80311900  1
  C  488  1  0.55237900  0.81594700  0.80296100  1
  C  490  1  0.50613000  0.79828700  0.82325900  1
  C  491  1  0.48272400  0.78882800  0.83298700  1
  C  492  1  0.48274500  0.77084400  0.85306000  1
  C  493  1  0.50614300  0.76198400  0.86245000  1
  C  494  1  0.52953600  0.77078700  0.85299300  1
  C  495  1  0.52954000  0.78876000  0.83291100  1
  C  496  1  0.45987300  0.79730100  0.82188300  1
  C  498  1  0.55238100  0.79716400  0.82173500  1
  C  511  1  0.50607500  0.18295600  0.20792500  1
  C  512  1  0.48265600  0.17326400  0.21739400  1
  C  513  1  0.48265200  0.15318000  0.23536300  1
  C  514  1  0.50603900  0.14372500  0.24417900  1
  C  515  1  0.52944300  0.15314400  0.23537100  1
  C  516  1  0.52947500  0.17324300  0.21741600  1
  C  517  1  0.45982000  0.18442300  0.20895300  1
  C  518  1  0.55232700  0.18439700  0.20901600  1
  C  520  1  0.50609200  0.20213800  0.18875700  1
  C  521  1  0.48269200  0.21162500  0.17903900  1
  C  522  1  0.48272400  0.22959400  0.15895500  1
  C  523  1  0.50612800  0.23842200  0.14955200  1
  C  524  1  0.52951500  0.22961000  0.15901500  1
  C  525  1  0.52950900  0.21163300  0.17909300  1
  C  526  1  0.45983700  0.20320000  0.19017000  1
  C  528  1  0.55234500  0.20319800  0.19025900  1
  C  541  1  0.50614700  0.18307800  0.80416400  1
  C  542  1  0.52956400  0.17342700  0.79465600  1
  C  543  1  0.52957600  0.15334900  0.77668100  1
  C  544  1  0.50618900  0.14387500  0.76787600  1
  C  545  1  0.48278300  0.15325600  0.77672600  1
  C  546  1  0.48274700  0.17334400  0.79469200  1
  C  547  1  0.55239800  0.18460200  0.80308100  1
  C  548  1  0.45989200  0.18446700  0.80312600  1
  C  550  1  0.50612800  0.20224200  0.82334800  1
  C  551  1  0.52953000  0.21175000  0.83304200  1
  C  552  1  0.52950200  0.22969900  0.85314700  1
  C  553  1  0.50609800  0.23848600  0.86259000  1
  C  554  1  0.48270900  0.22964600  0.85315800  1
  C  555  1  0.48271100  0.21168800  0.83306300  1
  C  556  1  0.55238100  0.20336700  0.82187500  1
  C  558  1  0.45987300  0.20324300  0.82191100  1
  C  571  1  0.50605600  0.81759500  0.20800900  1
  C  572  1  0.52944700  0.82728900  0.21753800  1
  C  573  1  0.52940500  0.84737600  0.23550500  1
  C  574  1  0.50599100  0.85679000  0.24430400  1
  C  575  1  0.48261000  0.84735000  0.23545000  1
  C  576  1  0.48263100  0.82728300  0.21745800  1
  C  577  1  0.55230700  0.81614100  0.20915000  1
  C  578  1  0.45979900  0.81615000  0.20897200  1
  C  580  1  0.50609000  0.79842200  0.18883100  1
  C  581  1  0.52951700  0.78892500  0.17918900  1
  C  582  1  0.52954300  0.77094200  0.15911700  1
  C  583  1  0.50616400  0.76214300  0.14962000  1
  C  584  1  0.48274800  0.77097600  0.15899600  1
  C  585  1  0.48269700  0.78894800  0.17907900  1
  C  586  1  0.55234100  0.79735600  0.19037500  1
  C  588  1  0.45983400  0.79738400  0.19018000  1
  C  601  1  0.80410300  0.50032500  0.82326300  1
  C  602  1  0.79466700  0.47691700  0.83300600  1
  C  603  1  0.77670100  0.47693600  0.85309600  1
  C  604  1  0.76783200  0.50033300  0.86248000  1
  C  605  1  0.77662200  0.52372700  0.85301600  1
  C  606  1  0.79458200  0.52373500  0.83292100  1
  C  607  1  0.80312800  0.45406900  0.82189000  1
  C  608  1  0.80297500  0.54657600  0.82174000  1
  C  610  1  0.82326900  0.50032700  0.80407800  1
  C  611  1  0.83299500  0.47691900  0.79461800  1
  C  612  1  0.85306300  0.47693800  0.77662900  1
  C  613  1  0.86245800  0.50033900  0.76777400  1
  C  614  1  0.85300300  0.52373300  0.77657800  1
  C  615  1  0.83292300  0.52373700  0.79455100  1
  C  616  1  0.82188800  0.45407100  0.80309000  1
  C  618  1  0.82174800  0.54657800  0.80295800  1
  C  631  1  0.20793500  0.50027200  0.18874800  1
  C  632  1  0.21740300  0.47685300  0.17905600  1
  C  633  1  0.23537200  0.47685100  0.15897200  1
  C  634  1  0.24419000  0.50023800  0.14951700  1
  C  635  1  0.23538000  0.52364000  0.15893700  1
  C  636  1  0.21742600  0.52367200  0.17903600  1
  C  637  1  0.20896300  0.45401800  0.19021400  1
  C  638  1  0.20902700  0.54652500  0.19018900  1
  C  640  1  0.18876600  0.50028900  0.20792900  1
  C  641  1  0.17904800  0.47688900  0.21741600  1
  C  642  1  0.15896300  0.47692100  0.23538600  1
  C  643  1  0.14956000  0.50032700  0.24421100  1
  C  644  1  0.15902300  0.52371400  0.23540100  1
  C  645  1  0.17910200  0.52370700  0.21742400  1
  C  646  1  0.19018000  0.45403500  0.20899100  1
  C  648  1  0.19026900  0.54654200  0.20899100  1
  C  661  1  0.80417500  0.50034400  0.18886900  1
  C  662  1  0.79466500  0.52376400  0.17921900  1
  C  663  1  0.77668800  0.52377300  0.15914100  1
  C  664  1  0.76788500  0.50038600  0.14966700  1
  C  665  1  0.77673700  0.47698000  0.15904700  1
  C  666  1  0.79470300  0.47694400  0.17913500  1
  C  667  1  0.80309000  0.54659700  0.19039400  1
  C  668  1  0.80314000  0.45409000  0.19025800  1
  C  670  1  0.82336000  0.50032700  0.20803400  1
  C  671  1  0.83305400  0.52372700  0.21754200  1
  C  672  1  0.85315600  0.52369900  0.23549000  1
  C  673  1  0.86260000  0.50029700  0.24427700  1
  C  674  1  0.85317000  0.47690800  0.23543700  1
  C  675  1  0.83307500  0.47690800  0.21747900  1
  C  676  1  0.82188600  0.54657800  0.20915600  1
  C  678  1  0.82192200  0.45407300  0.20903300  1
  C  691  1  0.20801800  0.50025300  0.82338800  1
  C  692  1  0.21754900  0.52364600  0.83308200  1
  C  693  1  0.23551700  0.52360200  0.85317000  1
  C  694  1  0.24431500  0.50019100  0.86258300  1
  C  695  1  0.23546000  0.47680700  0.85314300  1
  C  696  1  0.21746900  0.47682800  0.83307600  1
  C  697  1  0.20916000  0.54650400  0.82193400  1
  C  698  1  0.20898400  0.45399700  0.82194100  1
  C  700  1  0.18884200  0.50028700  0.80421500  1
  C  701  1  0.17919900  0.52371400  0.79471800  1
  C  702  1  0.15912600  0.52374100  0.77673600  1
  C  703  1  0.14963000  0.50036100  0.76793900  1
  C  704  1  0.15900700  0.47694600  0.77677000  1
  C  705  1  0.17909000  0.47689500  0.79474100  1
  C  706  1  0.19038700  0.54653800  0.80314900  1
  C  708  1  0.19018900  0.45403100  0.80317600  1
  C  721  1  0.42750700  0.23382100  0.89687200  1
  C  723  1  0.40462500  0.27142100  0.90926400  1
  C  724  1  0.39136800  0.25790000  0.92811300  1
  C  726  1  0.41413100  0.22004700  0.91589000  1
  C  728  1  0.41818300  0.19454100  0.92304600  1
  C  733  1  0.37460600  0.26960600  0.94568300  1
  C  734  1  0.44606100  0.22363100  0.87989800  1
  C  737  1  0.58450600  0.76655000  0.89684900  1
  C  739  1  0.60748500  0.72899400  0.90919400  1
  C  740  1  0.62067200  0.74251700  0.92809200  1
  C  742  1  0.59778400  0.78032000  0.91593900  1
  C  744  1  0.59362900  0.80579300  0.92315100  1
  C  749  1  0.63748100  0.73083400  0.94563100  1
  C  750  1  0.56600000  0.77673400  0.87982200  1
  C  753  1  0.58453400  0.23387400  0.11519300  1
  C  755  1  0.60743200  0.27146700  0.10279800  1
  C  756  1  0.62070400  0.25793500  0.08397000  1
  C  758  1  0.59790100  0.22009600  0.09617100  1
  C  760  1  0.59384900  0.19459100  0.08902300  1
  C  765  1  0.63754500  0.26962000  0.06646100  1
  C  766  1  0.56600900  0.22368700  0.13220400  1
  C  769  1  0.42770600  0.76678000  0.11511200  1
  C  771  1  0.40487900  0.72917100  0.10263600  1
  C  772  1  0.39157600  0.74271800  0.08383700  1
  C  774  1  0.41429600  0.78057700  0.09613200  1
  C  776  1  0.41828600  0.80611100  0.08905000  1
  C  781  1  0.37476800  0.73103300  0.06629500  1
  C  782  1  0.44623100  0.77696100  0.13212700  1
  C  785  1  0.89688300  0.42170700  0.23961100  1
  C  787  1  0.90927900  0.39882800  0.27721400  1
  C  788  1  0.92812500  0.38556700  0.26369200  1
  C  790  1  0.91589700  0.40832600  0.22583600  1
  C  792  1  0.92305000  0.41237100  0.20032900  1
  C  797  1  0.94569600  0.36880600  0.27540000  1
  C  798  1  0.87991100  0.44026000  0.22942000  1
  C  801  1  0.89686200  0.57870100  0.77234400  1
  C  803  1  0.90920900  0.60167900  0.73478700  1
  C  804  1  0.92810600  0.61486600  0.74831000  1
  C  806  1  0.91594900  0.59198100  0.78611500  1
  C  808  1  0.92315600  0.58783000  0.81158900  1
  C  813  1  0.94564500  0.63167600  0.73662700  1
  C  814  1  0.87983400  0.56019300  0.78252500  1
  C  817  1  0.11520200  0.57873200  0.23966800  1
  C  819  1  0.10280700  0.60162900  0.27726000  1
  C  820  1  0.08397900  0.61490200  0.26372600  1
  C  822  1  0.09618000  0.59210000  0.22588900  1
  C  824  1  0.08903300  0.58804800  0.20038200  1
  C  829  1  0.06647100  0.63174300  0.27541100  1
  C  830  1  0.13221300  0.56020700  0.22947900  1
  C  833  1  0.11512200  0.42190400  0.77257300  1
  C  835  1  0.10264700  0.39907400  0.73496400  1
  C  836  1  0.08384800  0.38577400  0.74851100  1
  C  838  1  0.09614200  0.40849500  0.78636900  1
  C  840  1  0.08905800  0.41248500  0.81190200  1
  C  845  1  0.06630500  0.36896500  0.73682600  1
  C  846  1  0.13213800  0.44042900  0.78275400  1
  C  849  1  0.23962400  0.89107900  0.42750000  1
  C  851  1  0.27722600  0.90347300  0.40461900  1
  C  852  1  0.26370500  0.92232000  0.39136200  1
  C  854  1  0.22584900  0.91009700  0.41412300  1
  C  856  1  0.20034600  0.91725100  0.41817200  1
  C  861  1  0.27541100  0.93989100  0.37459900  1
  C  862  1  0.22943300  0.87410500  0.44605300  1
  C  865  1  0.77235100  0.89105600  0.58449400  1
  C  867  1  0.73479700  0.90340500  0.60747400  1
  C  868  1  0.74831900  0.92230100  0.62066100  1
  C  870  1  0.78612200  0.91014400  0.59777600  1
  C  872  1  0.81159700  0.91735400  0.59362300  1
  C  877  1  0.73663600  0.93984000  0.63747100  1
  C  878  1  0.78253400  0.87402900  0.56598800  1
  C  881  1  0.23967700  0.10940000  0.58452500  1
  C  883  1  0.27726900  0.09700500  0.60742100  1
  C  884  1  0.26373700  0.07817800  0.62069500  1
  C  886  1  0.22589900  0.09037900  0.59789400  1
  C  888  1  0.20039100  0.08323200  0.59383900  1
  C  893  1  0.27542200  0.06066900  0.63753400  1
  C  894  1  0.22949000  0.12641100  0.56600000  1
  C  897  1  0.77258300  0.10932100  0.42769700  1
  C  899  1  0.73497300  0.09684700  0.40486700  1
  C  900  1  0.74851900  0.07804700  0.39156700  1
  C  902  1  0.78637600  0.09034000  0.41428800  1
  C  904  1  0.81191000  0.08325500  0.41828000  1
  C  909  1  0.73683400  0.06050400  0.37476000  1
  C  910  1  0.78276200  0.12633700  0.44622200  1
  C  913  1  0.23955800  0.42174600  0.11518400  1
  C  915  1  0.27715200  0.39887100  0.10275700  1
  C  916  1  0.26360800  0.38558600  0.08394400  1
  C  918  1  0.22576600  0.40835700  0.09618700  1
  C  920  1  0.20024900  0.41239000  0.08906600  1
  C  925  1  0.27529000  0.36875800  0.06642100  1
  C  926  1  0.22938000  0.44028800  0.13218300  1
  C  929  1  0.77243300  0.57872000  0.11526300  1
  C  931  1  0.73483900  0.60159500  0.10283100  1
  C  932  1  0.74837300  0.61484100  0.08398300  1
  C  934  1  0.78621100  0.59205900  0.09621900  1
  C  936  1  0.81171700  0.58799300  0.08907700  1
  C  941  1  0.73668900  0.63164800  0.06644100  1
  C  942  1  0.78262400  0.56022700  0.13230200  1
  C  945  1  0.23978100  0.57860400  0.89702300  1
  C  947  1  0.27734700  0.60155900  0.90938700  1
  C  948  1  0.26382100  0.61478000  0.92825600  1
  C  950  1  0.22600700  0.59192200  0.91608300  1
  C  952  1  0.20051800  0.58780700  0.92326800  1
  C  957  1  0.27550600  0.63160400  0.94578300  1
  C  958  1  0.22959600  0.56008700  0.88000400  1
  C  961  1  0.77253500  0.42175000  0.89684700  1
  C  963  1  0.73491300  0.39892600  0.90928500  1
  C  964  1  0.74844300  0.38562000  0.92809200  1
  C  966  1  0.78632100  0.40831700  0.91581800  1
  C  968  1  0.81185100  0.41229300  0.92291600  1
  C  973  1  0.73673300  0.36886400  0.94566500  1
  C  974  1  0.78272600  0.44031100  0.87987700  1
  C  977  1  0.42755500  0.89105400  0.77252400  1
  C  979  1  0.40472900  0.90349200  0.73490100  1
  C  980  1  0.39142500  0.92229900  0.74843100  1
  C  982  1  0.41412100  0.91002400  0.78630800  1
  C  984  1  0.41809800  0.91712200  0.81184000  1
  C  989  1  0.37466700  0.93987400  0.73672200  1
  C  990  1  0.44611400  0.87408200  0.78271300  1
  C  993  1  0.58440700  0.89123000  0.23977200  1
  C  995  1  0.60736000  0.90359400  0.27733900  1
  C  996  1  0.62058100  0.92246200  0.26381300  1
  C  998  1  0.59772500  0.91029000  0.22599700  1
  C  1000  1  0.59361000  0.91747500  0.20050900  1
  C  1005  1  0.63740500  0.93999200  0.27549600  1
  C  1006  1  0.56589000  0.87421100  0.22958700  1
  C  1009  1  0.58452300  0.10947000  0.77242300  1
  C  1011  1  0.60739800  0.09703700  0.73483100  1
  C  1012  1  0.62064400  0.07819000  0.74836300  1
  C  1014  1  0.59786000  0.09042600  0.78620200  1
  C  1016  1  0.59379600  0.08328500  0.81170900  1
  C  1021  1  0.63745000  0.06064800  0.73668000  1
  C  1022  1  0.56602800  0.12650900  0.78261400  1
  C  1025  1  0.42754900  0.10939200  0.23954800  1
  C  1027  1  0.40467200  0.09696600  0.27714200  1
  C  1028  1  0.39138900  0.07815200  0.26359900  1
  C  1030  1  0.41415900  0.09039400  0.22575600  1
  C  1032  1  0.41819500  0.08327300  0.20024000  1
  C  1037  1  0.37456100  0.06062900  0.27528000  1
  C  1038  1  0.44608900  0.12639100  0.22937100  1
  C  1041  1  0.89703500  0.23397700  0.58439800  1
  C  1043  1  0.90939700  0.27154400  0.60735400  1
  C  1044  1  0.92826700  0.25801600  0.62057300  1
  C  1046  1  0.91609500  0.22020200  0.59771500  1
  C  1048  1  0.92328000  0.19471600  0.59360000  1
  C  1053  1  0.94579400  0.26970100  0.63739700  1
  C  1054  1  0.88001600  0.22379200  0.56588000  1
  C  1057  1  0.89685700  0.76673300  0.42754500  1
  C  1059  1  0.90929800  0.72911000  0.40472300  1
  C  1060  1  0.92810400  0.74263800  0.39141500  1
  C  1062  1  0.91582500  0.78051900  0.41411000  1
  C  1064  1  0.92292300  0.80605000  0.41808500  1
  C  1069  1  0.94567700  0.73092900  0.37465900  1
  C  1070  1  0.87988700  0.77692300  0.44610400  1
  C  1073  1  0.11519500  0.23375900  0.42754200  1
  C  1075  1  0.10277300  0.27135100  0.40466100  1
  C  1076  1  0.08395500  0.25780900  0.39138100  1
  C  1078  1  0.09619300  0.21996900  0.41415700  1
  C  1080  1  0.08906700  0.19445400  0.41819800  1
  C  1085  1  0.06643200  0.26949100  0.37455300  1
  C  1086  1  0.13219500  0.22358100  0.44608200  1
  C  1089  1  0.11527200  0.76663000  0.58451300  1
  C  1091  1  0.10284100  0.72903800  0.60739000  1
  C  1092  1  0.08399300  0.74257000  0.62063400  1
  C  1094  1  0.09622800  0.78040900  0.59785000  1
  C  1096  1  0.08908600  0.80591600  0.59378400  1
  C  1101  1  0.06645100  0.73088700  0.63744100  1
  C  1102  1  0.13231200  0.77682100  0.56602100  1
  C  1105  1  0.58460400  0.76671400  0.11532600  1
  C  1107  1  0.60747400  0.72910600  0.10293300  1
  C  1108  1  0.62070200  0.74261400  0.08405500  1
  C  1110  1  0.59794300  0.78047300  0.09627100  1
  C  1112  1  0.59387700  0.80597300  0.08910300  1
  C  1117  1  0.63745400  0.73089600  0.06648400  1
  C  1118  1  0.56609300  0.77691800  0.13233400  1
  C  1121  1  0.42761400  0.23379100  0.11516100  1
  C  1123  1  0.40471200  0.27137900  0.10275800  1
  C  1124  1  0.39141900  0.25783600  0.08395100  1
  C  1126  1  0.41421600  0.21999900  0.09616900  1
  C  1128  1  0.41825300  0.19448600  0.08903900  1
  C  1133  1  0.37458500  0.26951500  0.06642900  1
  C  1134  1  0.44616500  0.22361300  0.13214800  1
  C  1137  1  0.42777900  0.76661500  0.89697000  1
  C  1139  1  0.40489600  0.72902300  0.90939900  1
  C  1140  1  0.39160700  0.74257000  0.92820600  1
  C  1142  1  0.41439400  0.78040700  0.91597300  1
  C  1144  1  0.41842800  0.80592300  0.92309200  1
  C  1149  1  0.37476400  0.73089400  0.94571900  1
  C  1150  1  0.44630300  0.77679400  0.87995100  1
  C  1153  1  0.58460100  0.23391800  0.89693400  1
  C  1155  1  0.60749100  0.27150500  0.90935700  1
  C  1156  1  0.62072700  0.25797300  0.92821200  1
  C  1158  1  0.59794700  0.22013400  0.91596700  1
  C  1160  1  0.59387500  0.19462900  0.92311300  1
  C  1165  1  0.63751500  0.26965900  0.94577000  1
  C  1166  1  0.56607800  0.22373500  0.87992100  1
  C  1169  1  0.11533700  0.57880200  0.77250700  1
  C  1171  1  0.10294700  0.60167500  0.73490100  1
  C  1172  1  0.08406700  0.61490200  0.74840900  1
  C  1174  1  0.09627900  0.59213800  0.78626600  1
  C  1176  1  0.08910800  0.58806900  0.81176400  1
  C  1181  1  0.06649600  0.63165300  0.73669100  1
  C  1182  1  0.13234500  0.56029000  0.78271100  1
  C  1185  1  0.11517000  0.42180900  0.23958200  1
  C  1187  1  0.10276800  0.39890900  0.27717100  1
  C  1188  1  0.08396100  0.38561600  0.26362700  1
  C  1190  1  0.09618000  0.40841200  0.22579000  1
  C  1192  1  0.08905000  0.41244900  0.20027600  1
  C  1197  1  0.06643900  0.36878300  0.27530500  1
  C  1198  1  0.13215700  0.44036200  0.22940500  1
  C  1201  1  0.89697800  0.42197600  0.77240400  1
  C  1203  1  0.90941000  0.39909500  0.73481400  1
  C  1204  1  0.92821600  0.38580400  0.74836100  1
  C  1206  1  0.91597700  0.40859000  0.78619800  1
  C  1208  1  0.92309200  0.41262000  0.81171700  1
  C  1213  1  0.94572800  0.36896100  0.73668800  1
  C  1214  1  0.87995900  0.44050100  0.78258400  1
  C  1217  1  0.89694400  0.57880000  0.23970900  1
  C  1219  1  0.90936600  0.60168800  0.27729800  1
  C  1220  1  0.92821900  0.61492600  0.26376400  1
  C  1222  1  0.91597700  0.59214600  0.22592700  1
  C  1224  1  0.92312000  0.58807800  0.20042200  1
  C  1229  1  0.94577900  0.63171400  0.27545500  1
  C  1230  1  0.87993000  0.56027700  0.22952800  1
  C  1233  1  0.77251800  0.10953300  0.58459500  1
  C  1235  1  0.73490900  0.09714100  0.60746600  1
  C  1236  1  0.74841600  0.07826200  0.62069300  1
  C  1238  1  0.78627600  0.09047600  0.59793300  1
  C  1240  1  0.81177300  0.08330700  0.59386600  1
  C  1245  1  0.73669900  0.06069100  0.63744700  1
  C  1246  1  0.78272200  0.12654000  0.56608300  1
  C  1249  1  0.23959600  0.10937000  0.42760400  1
  C  1251  1  0.27718200  0.09696800  0.40470200  1
  C  1252  1  0.26364100  0.07815900  0.39141100  1
  C  1254  1  0.22580400  0.09037800  0.41420700  1
  C  1256  1  0.20029100  0.08324600  0.41824600  1
  C  1261  1  0.27531800  0.06063700  0.37457800  1
  C  1262  1  0.22941800  0.12635800  0.44615600  1
  C  1265  1  0.77241400  0.89117500  0.42777100  1
  C  1267  1  0.73482000  0.90361100  0.40489400  1
  C  1268  1  0.74836700  0.92241300  0.39160100  1
  C  1270  1  0.78620600  0.91017200  0.41438300  1
  C  1272  1  0.81172600  0.91728400  0.41840900  1
  C  1277  1  0.73669500  0.93992700  0.37475800  1
  C  1278  1  0.78259100  0.87415400  0.44629600  1
  C  1281  1  0.23972100  0.89114100  0.58459100  1
  C  1283  1  0.27730700  0.90356600  0.60748100  1
  C  1284  1  0.26377500  0.92241900  0.62071900  1
  C  1286  1  0.22593600  0.91017400  0.59793900  1
  C  1288  1  0.20043100  0.91731800  0.59387000  1
  C  1293  1  0.27546200  0.93997800  0.63750500  1
  C  1294  1  0.22953800  0.87412800  0.56606800  1
  C  1297  1  0.77237800  0.57871400  0.89686600  1
  C  1299  1  0.73482200  0.60166900  0.90925600  1
  C  1300  1  0.74834800  0.61483900  0.92816100  1
  C  1302  1  0.78615400  0.59198500  0.91595800  1
  C  1304  1  0.81163500  0.58783400  0.92315100  1
  C  1309  1  0.73666700  0.63163100  0.94572000  1
  C  1310  1  0.78255500  0.56021800  0.87982200  1
  C  1313  1  0.23965400  0.42187000  0.89705800  1
  C  1315  1  0.27724500  0.39899800  0.90950900  1
  C  1316  1  0.26369600  0.38571300  0.92831600  1
  C  1318  1  0.22585900  0.40848900  0.91606000  1
  C  1320  1  0.20033500  0.41251500  0.92316200  1
  C  1325  1  0.27536500  0.36887600  0.94583800  1
  C  1326  1  0.22947900  0.44038300  0.88002900  1
  C  1329  1  0.77253300  0.42186800  0.11525500  1
  C  1331  1  0.73494500  0.39896600  0.10286000  1
  C  1332  1  0.74847900  0.38569200  0.08403300  1
  C  1334  1  0.78631900  0.40848200  0.09625100  1
  C  1336  1  0.81183000  0.41252500  0.08911300  1
  C  1341  1  0.73678800  0.36889100  0.06649000  1
  C  1342  1  0.78271500  0.44041900  0.13224000  1
  C  1345  1  0.23959700  0.57884200  0.11522000  1
  C  1347  1  0.27722800  0.60166000  0.10279800  1
  C  1348  1  0.26370100  0.61499300  0.08400700  1
  C  1350  1  0.22581900  0.59228600  0.09625300  1
  C  1352  1  0.20029100  0.58831200  0.08914100  1
  C  1357  1  0.27540700  0.63179600  0.06647400  1
  C  1358  1  0.22939500  0.56028800  0.13218800  1
  C  1361  1  0.58464200  0.10942700  0.23958800  1
  C  1363  1  0.60746000  0.09700600  0.27722000  1
  C  1364  1  0.62079300  0.07821500  0.26369200  1
  C  1366  1  0.59808700  0.09046000  0.22580900  1
  C  1368  1  0.59411200  0.08334800  0.20028100  1
  C  1373  1  0.63759600  0.06068100  0.27539800  1
  C  1374  1  0.56608900  0.12639500  0.22938600  1
  C  1377  1  0.42767000  0.10946400  0.77252200  1
  C  1379  1  0.40476900  0.09706900  0.73493400  1
  C  1380  1  0.39149700  0.07824100  0.74846700  1
  C  1382  1  0.41428400  0.09046000  0.78630800  1
  C  1384  1  0.41832700  0.08332100  0.81181900  1
  C  1389  1  0.37469400  0.06069800  0.73677700  1
  C  1390  1  0.44622200  0.12645000  0.78270300  1
  C  1393  1  0.42767200  0.89126400  0.23964300  1
  C  1395  1  0.40480100  0.90371700  0.27723500  1
  C  1396  1  0.39151600  0.92252300  0.26368600  1
  C  1398  1  0.41429200  0.91026500  0.22584900  1
  C  1400  1  0.41831600  0.91736700  0.20032500  1
  C  1405  1  0.37467800  0.94004700  0.27535800  1
  C  1406  1  0.44618600  0.87423600  0.22946900  1
  C  1409  1  0.58451500  0.89107300  0.77236600  1
  C  1411  1  0.60747200  0.90346300  0.73480800  1
  C  1412  1  0.62064200  0.92236800  0.74833700  1
  C  1414  1  0.59778600  0.91016500  0.78614100  1
  C  1416  1  0.59363500  0.91735600  0.81162200  1
  C  1421  1  0.63743100  0.93992700  0.73665500  1
  C  1422  1  0.56601900  0.87402700  0.78254200  1
  C  1425  1  0.11526700  0.76673100  0.42766100  1
  C  1427  1  0.10287200  0.72914000  0.40475900  1
  C  1428  1  0.08404500  0.74267400  0.39148500  1
  C  1430  1  0.09626300  0.78051700  0.41427500  1
  C  1432  1  0.08912500  0.80602600  0.41831800  1
  C  1437  1  0.06650200  0.73098400  0.37468200  1
  C  1438  1  0.13225200  0.77691000  0.44621200  1
  C  1441  1  0.11522900  0.23379700  0.58463300  1
  C  1443  1  0.10280800  0.27142700  0.60745300  1
  C  1444  1  0.08401700  0.25789900  0.62078600  1
  C  1446  1  0.09626300  0.22001600  0.59807800  1
  C  1448  1  0.08915200  0.19448800  0.59410500  1
  C  1453  1  0.06648400  0.26960300  0.63758900  1
  C  1454  1  0.13219800  0.22359500  0.56607900  1
  C  1457  1  0.89687600  0.76657500  0.58451000  1
  C  1459  1  0.90926800  0.72901700  0.60746200  1
  C  1460  1  0.92817000  0.74254500  0.62063400  1
  C  1462  1  0.91596700  0.78035000  0.59778000  1
  C  1464  1  0.92315600  0.80583000  0.59363100  1
  C  1469  1  0.94573000  0.73086200  0.63742400  1
  C  1470  1  0.87983200  0.77675300  0.56601100  1
  C  1473  1  0.89706700  0.23385500  0.42766500  1
  C  1475  1  0.90950900  0.27144400  0.40478400  1
  C  1476  1  0.92832400  0.25789500  0.39150600  1
  C  1478  1  0.91607700  0.22006200  0.41429600  1
  C  1480  1  0.92319000  0.19454500  0.41833300  1
  C  1485  1  0.94584600  0.26956700  0.37466900  1
  C  1486  1  0.88003800  0.22368000  0.44617800  1
  N  23  1  0.35890900  0.25590400  0.05097300  1
  N  25  1  0.26167200  0.35307800  0.05098000  1
  N  27  1  0.26174800  0.35317200  0.96126200  1
  N  29  1  0.35907800  0.25601900  0.96129900  1
  N  53  1  0.65297000  0.74447200  0.05084500  1
  N  55  1  0.75029500  0.64733000  0.05098600  1
  N  57  1  0.75027500  0.64718000  0.96130200  1
  N  59  1  0.65305100  0.74444300  0.96119200  1
  N  83  1  0.65308500  0.25605900  0.96133800  1
  N  85  1  0.75031400  0.35333000  0.96128100  1
  N  87  1  0.75038500  0.35330100  0.05093600  1
  N  89  1  0.65324100  0.25600400  0.05103500  1
  N  113  1  0.35904100  0.74451900  0.96111100  1
  N  115  1  0.26190000  0.64719700  0.96132500  1
  N  117  1  0.26181800  0.64748400  0.05100700  1
  N  119  1  0.35909100  0.74463500  0.05082800  1
  N  143  1  0.05098300  0.35310400  0.26169500  1
  N  145  1  0.05098800  0.25587300  0.35887500  1
  N  147  1  0.96127200  0.25594900  0.35896900  1
  N  149  1  0.96131000  0.35327500  0.26181300  1
  N  173  1  0.05085600  0.64716900  0.75026700  1
  N  175  1  0.05099500  0.74449300  0.65312300  1
  N  177  1  0.96131200  0.74447000  0.65297400  1
  N  179  1  0.96120600  0.64724700  0.75023700  1
  N  203  1  0.96134600  0.64728500  0.26185200  1
  N  205  1  0.96129300  0.74451200  0.35912500  1
  N  207  1  0.05094700  0.74458200  0.35909500  1
  N  209  1  0.05104400  0.64744000  0.26179700  1
  N  233  1  0.96112000  0.35323900  0.75031100  1
  N  235  1  0.96133500  0.25609500  0.65299300  1
  N  237  1  0.05101800  0.25601600  0.65327700  1
  N  239  1  0.05083800  0.35329000  0.75042800  1
  N  263  1  0.26170800  0.04518000  0.35890100  1
  N  265  1  0.35888000  0.04518700  0.26166500  1
  N  267  1  0.35897700  0.95546900  0.26174000  1
  N  269  1  0.26182400  0.95550700  0.35907000  1
  N  293  1  0.75027500  0.04505200  0.65296200  1
  N  295  1  0.65313300  0.04519300  0.75028600  1
  N  297  1  0.65298100  0.95550900  0.75026300  1
  N  299  1  0.75024400  0.95540100  0.65304200  1
  N  323  1  0.26186200  0.95554500  0.65307600  1
  N  325  1  0.35913300  0.95548800  0.75030300  1
  N  327  1  0.35910400  0.04514300  0.75037300  1
  N  329  1  0.26180700  0.04524200  0.65323100  1
  N  353  1  0.75031800  0.95531900  0.35903600  1
  N  355  1  0.65300000  0.95553200  0.26189200  1
  N  357  1  0.65328500  0.04521400  0.26181100  1
  N  359  1  0.75043600  0.04503600  0.35908500  1
  N  383  1  0.86475200  0.76190300  0.55102500  1
  N  385  1  0.76768100  0.85891700  0.55104900  1
  N  387  1  0.76774700  0.85902900  0.46124300  1
  N  389  1  0.86498000  0.76209400  0.46127100  1
  N  413  1  0.14708900  0.23841200  0.55089000  1
  N  415  1  0.24432700  0.14150700  0.55101700  1
  N  417  1  0.24425700  0.14133600  0.46124800  1
  N  419  1  0.14718700  0.23842200  0.46115900  1
  N  443  1  0.14723000  0.76207300  0.46130900  1
  N  445  1  0.24426200  0.85920900  0.46122700  1
  N  447  1  0.24437400  0.85916000  0.55096200  1
  N  449  1  0.14745000  0.76197700  0.55109500  1
  N  473  1  0.86488100  0.23853400  0.46107400  1
  N  475  1  0.76792700  0.14134600  0.46128800  1
  N  477  1  0.76788900  0.14157600  0.55105700  1
  N  479  1  0.86494200  0.23863400  0.55088100  1
  N  503  1  0.55103400  0.85894800  0.76769200  1
  N  505  1  0.55105900  0.76188000  0.86470900  1
  N  507  1  0.46125200  0.76195200  0.86482600  1
  N  509  1  0.46127900  0.85917500  0.76788500  1
  N  533  1  0.55090000  0.14128600  0.24420400  1
  N  535  1  0.55102700  0.23852400  0.14730000  1
  N  537  1  0.46125800  0.23845200  0.14712600  1
  N  539  1  0.46116900  0.14138300  0.24421100  1
  N  563  1  0.46131800  0.14142800  0.76786700  1
  N  565  1  0.46123700  0.23845800  0.86500300  1
  N  567  1  0.55097200  0.23857200  0.86495300  1
  N  569  1  0.55110400  0.14164700  0.76777200  1
  N  593  1  0.46108100  0.85907900  0.24432300  1
  N  595  1  0.46129800  0.76212500  0.14713600  1
  N  597  1  0.55106600  0.76208500  0.14737000  1
  N  599  1  0.55088800  0.85913900  0.24442700  1
  N  623  1  0.76770700  0.54523200  0.86474300  1
  N  625  1  0.86472200  0.54525400  0.76767100  1
  N  627  1  0.86483200  0.45544700  0.76773900  1
  N  629  1  0.76789700  0.45547600  0.86497000  1
  N  653  1  0.24421300  0.54509700  0.14707900  1
  N  655  1  0.14730800  0.54522400  0.24431500  1
  N  657  1  0.14713500  0.45545700  0.24424300  1
  N  659  1  0.24422100  0.45536600  0.14717400  1
  N  683  1  0.76787800  0.45551600  0.14721900  1
  N  685  1  0.86501400  0.45543600  0.24424900  1
  N  687  1  0.86496300  0.54517100  0.24436500  1
  N  689  1  0.76777900  0.54530200  0.14744000  1
  N  713  1  0.24433200  0.45527900  0.86487200  1
  N  715  1  0.14714800  0.45549500  0.76791800  1
  N  717  1  0.14738000  0.54526400  0.76787800  1
  N  719  1  0.24443900  0.54508600  0.86493200  1
  N  722  1  0.42169500  0.25890900  0.89470000  1
  N  725  1  0.39703800  0.23287300  0.93031100  1
  N  730  1  0.44121200  0.18592200  0.93030000  1
  N  738  1  0.59040700  0.74148500  0.89462500  1
  N  741  1  0.61490500  0.76751800  0.93035100  1
  N  746  1  0.57053200  0.81435200  0.93026200  1
  N  754  1  0.59035600  0.25896200  0.11736000  1
  N  757  1  0.61502300  0.23290900  0.08176800  1
  N  762  1  0.57081100  0.18595800  0.08181100  1
  N  770  1  0.42193400  0.74167700  0.11722000  1
  N  773  1  0.39720300  0.76776000  0.08169800  1
  N  778  1  0.44128600  0.81479400  0.08178700  1
  N  786  1  0.89471600  0.41589800  0.26470300  1
  N  789  1  0.93032100  0.39123300  0.23866300  1
  N  794  1  0.93030700  0.43539800  0.19170600  1
  N  802  1  0.89464000  0.58459900  0.74727800  1
  N  805  1  0.93036000  0.60910300  0.77331300  1
  N  810  1  0.93027100  0.56473500  0.82015100  1
  N  818  1  0.11736900  0.58455300  0.26475400  1
  N  821  1  0.08177700  0.60922000  0.23870200  1
  N  826  1  0.08182000  0.56501000  0.19175000  1
  N  834  1  0.11723100  0.41613100  0.74747000  1
  N  837  1  0.08170800  0.39140200  0.77355400  1
  N  842  1  0.08179700  0.43548700  0.82058600  1
  N  850  1  0.26471400  0.88890900  0.42168800  1
  N  853  1  0.23867800  0.92451800  0.39703000  1
  N  858  1  0.19172500  0.92450700  0.44120100  1
  N  866  1  0.74728800  0.88883500  0.59039400  1
  N  869  1  0.77332000  0.92455600  0.61489800  1
  N  874  1  0.82015900  0.92446900  0.57052800  1
  N  882  1  0.26476500  0.11156700  0.59034600  1
  N  885  1  0.23871200  0.07597600  0.61501300  1
  N  890  1  0.19175900  0.07601900  0.57080300  1
  N  898  1  0.74747800  0.11143100  0.42192300  1
  N  901  1  0.77356100  0.07590600  0.39719500  1
  N  906  1  0.82059100  0.07599500  0.44128400  1
  N  914  1  0.26465100  0.41594400  0.11732500  1
  N  917  1  0.23857700  0.39124400  0.08177100  1
  N  922  1  0.19160800  0.43541300  0.08181700  1
  N  930  1  0.74734500  0.58454400  0.11742000  1
  N  933  1  0.77339600  0.60915600  0.08178900  1
  N  938  1  0.82035000  0.56494400  0.08190800  1
  N  946  1  0.26485400  0.58447700  0.89482200  1
  N  949  1  0.23881000  0.60904600  0.93049100  1
  N  954  1  0.19192600  0.56473300  0.93041000  1
  N  962  1  0.74743000  0.41599100  0.89472100  1
  N  965  1  0.77348700  0.39123300  0.93024500  1
  N  970  1  0.82052900  0.43527800  0.93023500  1
  N  978  1  0.42179400  0.88892600  0.74741900  1
  N  981  1  0.39703800  0.92445200  0.77347600  1
  N  986  1  0.44108300  0.92444200  0.82051700  1
  N  994  1  0.59028000  0.88902900  0.26484500  1
  N  997  1  0.61484800  0.92469800  0.23880300  1
  N  1002  1  0.57053600  0.92461700  0.19191700  1
  N  1010  1  0.59034400  0.11162700  0.74733500  1
  N  1013  1  0.61495700  0.07599600  0.77338900  1
  N  1018  1  0.57074600  0.07611500  0.82034300  1
  N  1026  1  0.42174500  0.11153400  0.26464200  1
  N  1029  1  0.39704700  0.07597900  0.23856800  1
  N  1034  1  0.44121600  0.07602500  0.19159800  1
  N  1042  1  0.89483300  0.25905000  0.59027200  1
  N  1045  1  0.93050300  0.23300800  0.61483900  1
  N  1050  1  0.93042300  0.18612300  0.57052600  1
  N  1058  1  0.89473300  0.74162700  0.42178600  1
  N  1061  1  0.93025400  0.76768400  0.39702600  1
  N  1066  1  0.93024300  0.81473000  0.44107000  1
  N  1074  1  0.11734100  0.25885100  0.42173300  1
  N  1077  1  0.08177800  0.23277800  0.39704500  1
  N  1082  1  0.08182400  0.18581700  0.44122300  1
  N  1090  1  0.11743000  0.74154200  0.59033700  1
  N  1093  1  0.08179800  0.76759500  0.61494700  1
  N  1098  1  0.08191700  0.81454800  0.57073500  1
  N  1106  1  0.59042400  0.74162700  0.11751200  1
  N  1109  1  0.61502100  0.76763700  0.08183900  1
  N  1114  1  0.57083000  0.81459500  0.08191400  1
  N  1122  1  0.42180100  0.25888300  0.11731200  1
  N  1125  1  0.39709100  0.23280700  0.08176800  1
  N  1130  1  0.44127600  0.18584900  0.08178500  1
  N  1138  1  0.42197000  0.74152100  0.89482900  1
  N  1141  1  0.39727500  0.76759900  0.93038300  1
  N  1146  1  0.44145100  0.81457000  0.93033200  1
  N  1154  1  0.59043000  0.25900400  0.89477400  1
  N  1157  1  0.61504000  0.23294700  0.93040200  1
  N  1162  1  0.57082800  0.18600300  0.93029600  1
  N  1170  1  0.11752600  0.58462500  0.74742300  1
  N  1173  1  0.08184800  0.60921800  0.77343000  1
  N  1178  1  0.08192100  0.56501900  0.82038300  1
  N  1186  1  0.11732100  0.41599900  0.26467400  1
  N  1189  1  0.08177800  0.39128600  0.23859800  1
  N  1194  1  0.08179400  0.43547000  0.19163800  1
  N  1202  1  0.89484100  0.41616800  0.74731100  1
  N  1205  1  0.93038900  0.39147000  0.77339200  1
  N  1210  1  0.93033600  0.43564100  0.82036600  1
  N  1218  1  0.89478400  0.58462700  0.26479700  1
  N  1221  1  0.93041000  0.60924100  0.23874000  1
  N  1226  1  0.93030400  0.56503100  0.19179400  1
  N  1234  1  0.74743200  0.11172000  0.59041700  1
  N  1237  1  0.77344000  0.07604500  0.61501200  1
  N  1242  1  0.82039600  0.07611800  0.57081800  1
  N  1250  1  0.26468500  0.11152200  0.42179000  1
  N  1253  1  0.23861100  0.07597600  0.39708300  1
  N  1258  1  0.19165300  0.07599300  0.44126900  1
  N  1266  1  0.74731800  0.88904000  0.42196600  1
  N  1269  1  0.77340000  0.92458400  0.39726300  1
  N  1274  1  0.82037900  0.92453100  0.44142800  1
  N  1282  1  0.26480700  0.88898100  0.59042000  1
  N  1285  1  0.23875000  0.92460700  0.61503200  1
  N  1290  1  0.19180300  0.92450100  0.57082000  1
  N  1298  1  0.74731100  0.58460800  0.89466400  1
  N  1301  1  0.77335400  0.60908600  0.93039600  1
  N  1306  1  0.82020600  0.56473900  0.93024700  1
  N  1314  1  0.26475000  0.41606500  0.89493000  1
  N  1317  1  0.23866300  0.39137700  0.93048000  1
  N  1322  1  0.19168000  0.43553400  0.93040000  1
  N  1330  1  0.74744500  0.41605000  0.11741700  1
  N  1333  1  0.77350600  0.39136800  0.08184200  1
  N  1338  1  0.82046200  0.43555000  0.08186200  1
  N  1346  1  0.26470400  0.58459100  0.11735200  1
  N  1349  1  0.23865700  0.60938500  0.08184600  1
  N  1354  1  0.19160600  0.56532100  0.08184400  1
  N  1362  1  0.59039200  0.11155900  0.26469500  1
  N  1365  1  0.61518600  0.07605300  0.23864700  1
  N  1370  1  0.57112200  0.07605100  0.19159600  1
  N  1378  1  0.42185300  0.11162600  0.74743400  1
  N  1381  1  0.39717000  0.07605000  0.77349500  1
  N  1386  1  0.44135400  0.07607100  0.82045100  1
  N  1394  1  0.42186800  0.88913700  0.26474000  1
  N  1397  1  0.39718000  0.92468700  0.23865300  1
  N  1402  1  0.44133500  0.92460700  0.19166800  1
  N  1410  1  0.59041100  0.88887100  0.74729700  1
  N  1413  1  0.61488600  0.92460100  0.77334100  1
  N  1418  1  0.57053800  0.92445200  0.82019300  1
  N  1426  1  0.11742900  0.74164100  0.42184100  1
  N  1429  1  0.08185400  0.76770200  0.39716100  1
  N  1434  1  0.08187400  0.81465800  0.44134300  1
  N  1442  1  0.11736200  0.25890400  0.59038200  1
  N  1445  1  0.08185600  0.23285400  0.61517800  1
  N  1450  1  0.08185400  0.18580400  0.57111400  1
  N  1458  1  0.89467400  0.74150600  0.59040100  1
  N  1461  1  0.93040400  0.76755000  0.61487900  1
  N  1466  1  0.93025400  0.81440400  0.57053600  1
  N  1474  1  0.89493000  0.25894700  0.42185100  1
  N  1477  1  0.93049700  0.23286600  0.39718000  1
  N  1482  1  0.93041900  0.18589900  0.44136200  1
  O  729  1  0.39772400  0.17999500  0.92839000  1
  O  735  1  0.44877600  0.19813300  0.87836400  1
  O  736  1  0.37640400  0.29506400  0.94876000  1
  O  745  1  0.61401800  0.82037700  0.92865400  1
  O  751  1  0.56333900  0.80223500  0.87824600  1
  O  752  1  0.63569800  0.70537400  0.94870300  1
  O  761  1  0.61430200  0.18004400  0.08366000  1
  O  767  1  0.56333000  0.19818600  0.13374900  1
  O  768  1  0.63578200  0.29508100  0.06339600  1
  O  777  1  0.39779000  0.82063300  0.08377800  1
  O  783  1  0.44894300  0.80245900  0.13367200  1
  O  784  1  0.37650800  0.70556700  0.06325100  1
  O  793  1  0.92838600  0.39191000  0.18578600  1
  O  799  1  0.87837700  0.44297700  0.20392400  1
  O  800  1  0.94877300  0.37060500  0.30085500  1
  O  809  1  0.92865600  0.60822100  0.82617200  1
  O  815  1  0.87826000  0.55753300  0.80802800  1
  O  816  1  0.94871700  0.62989400  0.71116700  1
  O  825  1  0.08367000  0.60850200  0.18583700  1
  O  831  1  0.13375900  0.55752900  0.20397700  1
  O  832  1  0.06340500  0.62997900  0.30087400  1
  O  841  1  0.08378500  0.39199200  0.82642400  1
  O  847  1  0.13368300  0.44314000  0.80825200  1
  O  848  1  0.06326100  0.37070600  0.71136100  1
  O  857  1  0.18580000  0.92259300  0.39771300  1
  O  863  1  0.20393700  0.87257100  0.44876900  1
  O  864  1  0.30086900  0.94296700  0.37639800  1
  O  873  1  0.82618000  0.92285300  0.61401400  1
  O  879  1  0.80803600  0.87245500  0.56332800  1
  O  880  1  0.71117700  0.94291200  0.63568900  1
  O  889  1  0.18584700  0.07787000  0.61429500  1
  O  895  1  0.20398900  0.12795600  0.56332000  1
  O  896  1  0.30088400  0.05760300  0.63577200  1
  O  905  1  0.82643200  0.07797900  0.39778900  1
  O  911  1  0.80826000  0.12788200  0.44893200  1
  O  912  1  0.71136800  0.05746100  0.37650100  1
  O  921  1  0.18570600  0.39192300  0.08375100  1
  O  927  1  0.20388400  0.44299600  0.13372900  1
  O  928  1  0.30075300  0.37051600  0.06335800  1
  O  937  1  0.82626100  0.60843900  0.08367500  1
  O  943  1  0.80812500  0.55755700  0.13386300  1
  O  944  1  0.71122600  0.62989000  0.06338100  1
  O  953  1  0.18595100  0.60822100  0.92871800  1
  O  959  1  0.20409300  0.55744200  0.87842500  1
  O  960  1  0.30096400  0.62982500  0.94885900  1
  O  969  1  0.82636900  0.39178700  0.92815700  1
  O  975  1  0.80822200  0.44304900  0.87835800  1
  O  976  1  0.71127700  0.37067500  0.94875100  1
  O  985  1  0.39759100  0.92236200  0.82635800  1
  O  991  1  0.44885400  0.87256500  0.80820800  1
  O  992  1  0.37647800  0.94295800  0.71126600  1
  O  1001  1  0.61402500  0.92292500  0.18594200  1
  O  1007  1  0.56324400  0.87263100  0.20408400  1
  O  1008  1  0.63562400  0.94306600  0.30095600  1
  O  1017  1  0.61424200  0.07788300  0.82625200  1
  O  1023  1  0.56335800  0.12806900  0.80811500  1
  O  1024  1  0.63569300  0.05758800  0.71121600  1
  O  1033  1  0.39772600  0.07795600  0.18569700  1
  O  1039  1  0.44879700  0.12793800  0.20387300  1
  O  1040  1  0.37631900  0.05756600  0.30074400  1
  O  1049  1  0.92873000  0.18014700  0.61401400  1
  O  1055  1  0.87843600  0.19828800  0.56323500  1
  O  1056  1  0.94887000  0.29516100  0.63561900  1
  O  1065  1  0.92816100  0.82056700  0.39757600  1
  O  1071  1  0.87836800  0.80241700  0.44884500  1
  O  1072  1  0.94876200  0.70547400  0.37647000  1
  O  1081  1  0.08374100  0.17990900  0.39773400  1
  O  1087  1  0.13374100  0.19808400  0.44879000  1
  O  1088  1  0.06337100  0.29495400  0.37630900  1
  O  1097  1  0.08368400  0.82045800  0.61423000  1
  O  1103  1  0.13387200  0.80232200  0.56334900  1
  O  1104  1  0.06339200  0.70542300  0.63568300  1
  O  1113  1  0.61432500  0.82051200  0.08369500  1
  O  1119  1  0.56340600  0.80241700  0.13387900  1
  O  1120  1  0.63566600  0.70543500  0.06343900  1
  O  1129  1  0.39778900  0.17993800  0.08372700  1
  O  1135  1  0.44886500  0.19811600  0.13369800  1
  O  1136  1  0.37632100  0.29498100  0.06338000  1
  O  1145  1  0.39795900  0.82046600  0.92840900  1
  O  1151  1  0.44901500  0.80229400  0.87842100  1
  O  1152  1  0.37654400  0.70543800  0.94882500  1
  O  1161  1  0.61431900  0.18007900  0.92850400  1
  O  1167  1  0.56341500  0.19823500  0.87834300  1
  O  1168  1  0.63571900  0.29511700  0.94884900  1
  O  1177  1  0.08369400  0.60851300  0.82630300  1
  O  1183  1  0.13388900  0.55760500  0.80821200  1
  O  1184  1  0.06345200  0.62986500  0.71123000  1
  O  1193  1  0.08374000  0.39198200  0.18572900  1
  O  1199  1  0.13370700  0.44306300  0.20390700  1
  O  1200  1  0.06339000  0.37051800  0.30077200  1
  O  1209  1  0.92840500  0.39215100  0.82625700  1
  O  1215  1  0.87842800  0.44321600  0.80808100  1
  O  1216  1  0.94883600  0.37074200  0.71123200  1
  O  1225  1  0.92851000  0.60852200  0.18587200  1
  O  1231  1  0.87835300  0.55761400  0.20402700  1
  O  1232  1  0.94885900  0.62991600  0.30091000  1
  O  1241  1  0.82631400  0.07789700  0.61431400  1
  O  1247  1  0.80822200  0.12808400  0.56339600  1
  O  1248  1  0.71123700  0.05764700  0.63565800  1
  O  1257  1  0.18574300  0.07793300  0.39778100  1
  O  1263  1  0.20392000  0.12790800  0.44885400  1
  O  1264  1  0.30078500  0.05758900  0.37631300  1
  O  1273  1  0.82626700  0.92259300  0.39793600  1
  O  1279  1  0.80808900  0.87262400  0.44901100  1
  O  1280  1  0.71123900  0.94303500  0.37654100  1
  O  1289  1  0.18588200  0.92270700  0.61431400  1
  O  1295  1  0.20403800  0.87255000  0.56340600  1
  O  1296  1  0.30092000  0.94305800  0.63570800  1
  O  1305  1  0.82621400  0.60822700  0.92865200  1
  O  1311  1  0.80805900  0.55757100  0.87823500  1
  O  1312  1  0.71120500  0.62985800  0.94877900  1
  O  1321  1  0.18579500  0.39204300  0.92847000  1
  O  1327  1  0.20398100  0.44311400  0.87849900  1
  O  1328  1  0.30082100  0.37066000  0.94894200  1
  O  1337  1  0.82637700  0.39206200  0.08379100  1
  O  1343  1  0.80821200  0.44312300  0.13378400  1
  O  1344  1  0.71132500  0.37064900  0.06343700  1
  O  1353  1  0.18578100  0.60881600  0.08387700  1
  O  1359  1  0.20389800  0.55759700  0.13373300  1
  O  1360  1  0.30086900  0.63001500  0.06341800  1
  O  1369  1  0.61461700  0.07808300  0.18577200  1
  O  1375  1  0.56340000  0.12794000  0.20388800  1
  O  1376  1  0.63581600  0.05762600  0.30085900  1
  O  1385  1  0.39786400  0.07799800  0.82636500  1
  O  1391  1  0.44892400  0.12799400  0.80820300  1
  O  1392  1  0.37645100  0.05764400  0.71131300  1
  O  1401  1  0.39784400  0.92267500  0.18578600  1
  O  1407  1  0.44891500  0.87270500  0.20397200  1
  O  1408  1  0.37646500  0.94315100  0.30081400  1
  O  1417  1  0.61402700  0.92285900  0.82620200  1
  O  1423  1  0.56337300  0.87244000  0.80804500  1
  O  1424  1  0.63566000  0.94298800  0.71119400  1
  O  1433  1  0.08380100  0.82057400  0.39785500  1
  O  1439  1  0.13379700  0.80241000  0.44891500  1
  O  1440  1  0.06344900  0.70552200  0.37644200  1
  O  1449  1  0.08388800  0.17997800  0.61461000  1
  O  1455  1  0.13374300  0.19809500  0.56338900  1
  O  1456  1  0.06342800  0.29506600  0.63580800  1
  O  1465  1  0.92865800  0.82041100  0.61402400  1
  O  1471  1  0.87824400  0.80225400  0.56336600  1
  O  1472  1  0.94879100  0.70540100  0.63565100  1
  O  1481  1  0.92851700  0.17999900  0.39787000  1
  O  1487  1  0.87850600  0.19818200  0.44890500  1
  O  1488  1  0.94894600  0.29502400  0.37645100  1
