# generated using pymatgen
data_H20C34N3O2
_symmetry_space_group_name_H-M   'P 1'
_cell_length_a   41.26820000
_cell_length_b   57.27830000
_cell_length_c   57.27840000
_cell_angle_alpha   59.99982674
_cell_angle_beta   89.99910000
_cell_angle_gamma   89.99820000
_symmetry_Int_Tables_number   1
_chemical_formula_structural   H20C34N3O2
_chemical_formula_sum   'H480 C816 N72 O48'
_cell_volume   117253.65725426
_cell_formula_units_Z   24
loop_
 _symmetry_equiv_pos_site_id
 _symmetry_equiv_pos_as_xyz
  1  'x, y, z'
loop_
 _atom_site_type_symbol
 _atom_site_label
 _atom_site_symmetry_multiplicity
 _atom_site_fract_x
 _atom_site_fract_y
 _atom_site_fract_z
 _atom_site_occupancy
  H  49  1  0.86730200  0.62286100  0.20484000  1
  H  50  1  0.89714600  0.59354200  0.19413800  1
  H  51  1  0.94756900  0.62664500  0.24861400  1
  H  52  1  0.97710000  0.59690100  0.23836600  1
  H  53  1  0.97771300  0.62458400  0.17110100  1
  H  54  1  0.02198600  0.62445600  0.14044700  1
  H  55  1  0.99961800  0.54624400  0.19497700  1
  H  56  1  0.99953500  0.49906900  0.21865200  1
  H  57  1  0.90958200  0.54850600  0.25482800  1
  H  58  1  0.90801900  0.49744600  0.27942900  1
  H  59  1  0.90739900  0.44135200  0.25887100  1
  H  60  1  0.87787000  0.40638800  0.29567400  1
  H  61  1  0.95872800  0.45729500  0.31314100  1
  H  62  1  0.92778600  0.42354600  0.34977900  1
  H  63  1  0.97548100  0.42086200  0.27174500  1
  H  64  1  0.02029200  0.42071800  0.24182800  1
  H  65  1  0.09044100  0.54795200  0.13375500  1
  H  66  1  0.09146800  0.49695000  0.16010400  1
  H  67  1  0.08787700  0.43955600  0.23786000  1
  H  68  1  0.11843800  0.40496200  0.23669000  1
  H  69  1  0.04292200  0.45802100  0.16444000  1
  H  70  1  0.07536900  0.42496100  0.16195100  1
  H  71  1  0.02187700  0.59792900  0.10118000  1
  H  72  1  0.05133800  0.62749600  0.06127100  1
  H  73  1  0.13310300  0.62094600  0.10864900  1
  H  74  1  0.10313300  0.59205600  0.14859000  1
  H  123  1  0.20063700  0.14216600  0.10855500  1
  H  124  1  0.23046900  0.13145300  0.14857700  1
  H  125  1  0.28092100  0.18594100  0.06100900  1
  H  126  1  0.31043800  0.17567500  0.10101500  1
  H  127  1  0.31106100  0.10843100  0.14057000  1
  H  128  1  0.35534700  0.07778300  0.17134500  1
  H  129  1  0.33294000  0.13228300  0.19505800  1
  H  130  1  0.33283100  0.15593600  0.21857800  1
  H  131  1  0.24289900  0.19213700  0.13294700  1
  H  132  1  0.24134400  0.21674100  0.15940300  1
  H  133  1  0.24074800  0.19619500  0.23605000  1
  H  134  1  0.21121600  0.23299900  0.23420700  1
  H  135  1  0.29204900  0.25045900  0.16581800  1
  H  136  1  0.26110500  0.28709800  0.16292600  1
  H  137  1  0.30885800  0.20909500  0.24362900  1
  H  138  1  0.35366000  0.17917200  0.27369500  1
  H  139  1  0.42373600  0.07104100  0.25458700  1
  H  140  1  0.42477100  0.09739100  0.27923800  1
  H  141  1  0.42123000  0.17515600  0.25885200  1
  H  142  1  0.45179400  0.17398400  0.29461300  1
  H  143  1  0.37623700  0.10176100  0.31381700  1
  H  144  1  0.40868600  0.09926800  0.34936300  1
  H  145  1  0.35519900  0.03848800  0.23715600  1
  H  146  1  0.38466200  0.99858400  0.24747600  1
  H  147  1  0.46642700  0.04596700  0.20666200  1
  H  148  1  0.43646000  0.08590400  0.19563200  1
  H  197  1  0.53397100  0.04587500  0.68555800  1
  H  198  1  0.56379800  0.08590700  0.65624000  1
  H  199  1  0.61425000  0.99833900  0.68930200  1
  H  200  1  0.64376500  0.03834700  0.65955500  1
  H  201  1  0.64438500  0.07790200  0.68726500  1
  H  202  1  0.68867800  0.10867000  0.68713600  1
  H  203  1  0.66627600  0.13237600  0.60892500  1
  H  204  1  0.66615700  0.15590500  0.56174800  1
  H  205  1  0.57624500  0.07026100  0.61118400  1
  H  206  1  0.57469500  0.09671000  0.56012500  1
  H  207  1  0.57407200  0.17336500  0.50402800  1
  H  208  1  0.54454300  0.17152700  0.46906300  1
  H  209  1  0.62539200  0.10314400  0.51997900  1
  H  210  1  0.59445300  0.10025800  0.48622800  1
  H  211  1  0.64219200  0.18094500  0.48354100  1
  H  212  1  0.68700400  0.21100600  0.48339500  1
  H  213  1  0.75707000  0.19191100  0.61062900  1
  H  214  1  0.75810500  0.21655800  0.55962900  1
  H  215  1  0.75457100  0.19616500  0.50225100  1
  H  216  1  0.78512600  0.23192900  0.46765700  1
  H  217  1  0.70958000  0.25112500  0.52069300  1
  H  218  1  0.74202400  0.28667400  0.48763400  1
  H  219  1  0.68852300  0.17448100  0.66060100  1
  H  220  1  0.71796900  0.18481800  0.69018400  1
  H  221  1  0.79974600  0.14398100  0.68365200  1
  H  222  1  0.76979600  0.13294300  0.65475000  1
  H  271  1  0.86732200  0.25106700  0.79444200  1
  H  272  1  0.89713700  0.28040000  0.80513400  1
  H  273  1  0.94761300  0.24726900  0.75069700  1
  H  274  1  0.97712300  0.27703200  0.76093400  1
  H  275  1  0.97773700  0.24934700  0.82819100  1
  H  276  1  0.02203200  0.24947700  0.85882700  1
  H  277  1  0.99964700  0.32768900  0.80430300  1
  H  278  1  0.99945800  0.37486200  0.78071200  1
  H  279  1  0.90960000  0.32542600  0.74446100  1
  H  280  1  0.90802400  0.37648400  0.71987000  1
  H  281  1  0.90740700  0.43259000  0.74043200  1
  H  282  1  0.87788300  0.46756000  0.70362500  1
  H  283  1  0.95870800  0.41662100  0.68616700  1
  H  284  1  0.92777200  0.45037700  0.64952600  1
  H  285  1  0.97553100  0.45307100  0.72750700  1
  H  286  1  0.02034300  0.45322000  0.75742000  1
  H  287  1  0.09039700  0.32598500  0.86557900  1
  H  288  1  0.09140500  0.37698700  0.83924700  1
  H  289  1  0.08789600  0.43435900  0.76145800  1
  H  290  1  0.11845500  0.46895000  0.76262700  1
  H  291  1  0.04289100  0.41593800  0.83484700  1
  H  292  1  0.07533700  0.44899500  0.83733600  1
  H  293  1  0.02188900  0.27602700  0.89808200  1
  H  294  1  0.05132800  0.24643900  0.93800500  1
  H  295  1  0.13311300  0.25295800  0.89065500  1
  H  296  1  0.10316200  0.28187200  0.85069800  1
  H  345  1  0.20063400  0.73178800  0.89072000  1
  H  346  1  0.23048500  0.74249000  0.85070400  1
  H  347  1  0.28088700  0.68799300  0.93829100  1
  H  348  1  0.31042600  0.69824200  0.89830100  1
  H  349  1  0.31104900  0.76551400  0.85871900  1
  H  350  1  0.35532200  0.79616800  0.82793700  1
  H  351  1  0.33295400  0.74163900  0.80425200  1
  H  352  1  0.33286900  0.71796300  0.78075300  1
  H  353  1  0.24291600  0.68179100  0.86636400  1
  H  354  1  0.24135300  0.65718900  0.83990700  1
  H  355  1  0.24073100  0.67774700  0.76325400  1
  H  356  1  0.21120200  0.64094700  0.76509100  1
  H  357  1  0.29205800  0.62347500  0.83346700  1
  H  358  1  0.26111400  0.58683900  0.83635400  1
  H  359  1  0.30881500  0.66487200  0.75563800  1
  H  360  1  0.35362600  0.69479000  0.72557700  1
  H  361  1  0.42377500  0.80285900  0.74474000  1
  H  362  1  0.42480200  0.77651100  0.72008700  1
  H  363  1  0.42121100  0.69875500  0.74045000  1
  H  364  1  0.45177200  0.69992400  0.70468800  1
  H  365  1  0.37625600  0.77217500  0.68549500  1
  H  366  1  0.40870000  0.77466200  0.64994600  1
  H  367  1  0.35521300  0.83543700  0.76214200  1
  H  368  1  0.38467700  0.87534500  0.75179800  1
  H  369  1  0.46643900  0.82796500  0.79262800  1
  H  370  1  0.43647000  0.78802500  0.80367900  1
  H  419  1  0.53396800  0.82806700  0.31375900  1
  H  420  1  0.56380200  0.78804300  0.34306500  1
  H  421  1  0.61426000  0.87560700  0.30998300  1
  H  422  1  0.64377700  0.83559900  0.33972400  1
  H  423  1  0.64439200  0.79604400  0.31203600  1
  H  424  1  0.68867600  0.76527000  0.31216200  1
  H  425  1  0.66627600  0.74156100  0.39037500  1
  H  426  1  0.66616400  0.71803600  0.43755000  1
  H  427  1  0.57623600  0.80367200  0.38811700  1
  H  428  1  0.57467500  0.77721500  0.43917700  1
  H  429  1  0.57407900  0.70056600  0.49527800  1
  H  430  1  0.54454800  0.70240800  0.53024000  1
  H  431  1  0.62538000  0.77079700  0.47931000  1
  H  432  1  0.59443900  0.77368600  0.51305900  1
  H  433  1  0.64219000  0.69298500  0.51575800  1
  H  434  1  0.68699400  0.66292000  0.51590100  1
  H  435  1  0.75707500  0.68202900  0.38866500  1
  H  436  1  0.75811000  0.65737800  0.43966500  1
  H  437  1  0.75456400  0.67776400  0.49704300  1
  H  438  1  0.78512900  0.64200000  0.53163300  1
  H  439  1  0.70957100  0.62280000  0.47860900  1
  H  440  1  0.74202200  0.58725400  0.51166200  1
  H  441  1  0.68853300  0.69945900  0.33868200  1
  H  442  1  0.71799600  0.68913500  0.30909600  1
  H  443  1  0.79976100  0.72995200  0.31566300  1
  H  444  1  0.76979300  0.74098400  0.34457000  1
  H  451  1  0.19217000  0.64056200  0.99268800  1
  H  452  1  0.22601500  0.65859200  0.95405000  1
  H  459  1  0.17279900  0.68890300  0.02905200  1
  H  460  1  0.13810900  0.66796800  0.06759200  1
  H  461  1  0.09797900  0.61933000  0.03869000  1
  H  462  1  0.13160300  0.64078100  0.99999500  1
  H  463  1  0.16995000  0.71908200  0.97660700  1
  H  473  1  0.52552600  0.93004300  0.30298700  1
  H  474  1  0.55937000  0.89140700  0.32360800  1
  H  481  1  0.50614500  0.96638800  0.21829000  1
  H  482  1  0.47143800  0.00491800  0.20068800  1
  H  483  1  0.43131300  0.97600800  0.27823000  1
  H  484  1  0.46495400  0.93732200  0.29547200  1
  H  485  1  0.50330300  0.91392800  0.24057400  1
  H  495  1  0.85885000  0.24031200  0.70324800  1
  H  496  1  0.89271800  0.26091200  0.72127100  1
  H  503  1  0.83945000  0.15561200  0.75159700  1
  H  504  1  0.80475200  0.13802000  0.73065500  1
  H  505  1  0.76464300  0.21557000  0.68202600  1
  H  506  1  0.79827500  0.23280200  0.70348200  1
  H  507  1  0.83661200  0.17789500  0.78177100  1
  H  517  1  0.19216100  0.23337400  0.00659800  1
  H  518  1  0.22602400  0.21535700  0.04522300  1
  H  525  1  0.17279200  0.18502200  0.97025000  1
  H  526  1  0.13810400  0.20596200  0.93170600  1
  H  527  1  0.09797200  0.25459600  0.96061200  1
  H  528  1  0.13158900  0.23314000  0.99931000  1
  H  529  1  0.16994500  0.15484900  0.02270200  1
  H  539  1  0.52551100  0.94391300  0.69628100  1
  H  540  1  0.55935800  0.98254900  0.67566600  1
  H  547  1  0.50614500  0.90756000  0.78098400  1
  H  548  1  0.47145100  0.86902100  0.79859200  1
  H  549  1  0.43131800  0.89792400  0.72105300  1
  H  550  1  0.46494400  0.93661600  0.70380800  1
  H  551  1  0.50330600  0.96000800  0.75871200  1
  H  561  1  0.85885000  0.63362000  0.29605000  1
  H  562  1  0.89269300  0.61300600  0.27802500  1
  H  569  1  0.83947400  0.71832500  0.24770800  1
  H  570  1  0.80477000  0.73592500  0.26864400  1
  H  571  1  0.76464900  0.65838200  0.31727200  1
  H  572  1  0.79828600  0.64114100  0.29582400  1
  H  573  1  0.83662500  0.69605100  0.21752800  1
  H  583  1  0.80495900  0.36939500  0.36436400  1
  H  584  1  0.83613500  0.40415500  0.32983900  1
  H  591  1  0.85957300  0.29617400  0.42368400  1
  H  592  1  0.82886700  0.26156300  0.45849300  1
  H  593  1  0.75120600  0.31588700  0.44115100  1
  H  594  1  0.78328300  0.35121100  0.40830200  1
  H  595  1  0.88967400  0.33560300  0.41015800  1
  H  605  1  0.13829100  0.30167800  0.20251300  1
  H  606  1  0.16947200  0.26715600  0.20227300  1
  H  613  1  0.19289700  0.36099400  0.21641500  1
  H  614  1  0.16218800  0.39580600  0.21621700  1
  H  615  1  0.08453500  0.37847500  0.17922300  1
  H  616  1  0.11661300  0.34562000  0.17675300  1
  H  617  1  0.22299800  0.34748400  0.19049200  1
  H  627  1  0.47162700  0.13982000  0.43207800  1
  H  628  1  0.50280600  0.13958900  0.46683700  1
  H  635  1  0.52623400  0.15372000  0.35885800  1
  H  636  1  0.49552700  0.15351700  0.32424900  1
  H  637  1  0.41787200  0.11653900  0.37857400  1
  H  638  1  0.44995000  0.11406800  0.41389700  1
  H  639  1  0.55634100  0.12781500  0.39828700  1
  H  649  1  0.80496000  0.50454400  0.63493600  1
  H  650  1  0.83613700  0.46978400  0.66946700  1
  H  657  1  0.85956900  0.57775400  0.57561100  1
  H  658  1  0.82886400  0.61236500  0.54079800  1
  H  659  1  0.75120600  0.55804300  0.55814500  1
  H  660  1  0.78328100  0.52271800  0.59100000  1
  H  661  1  0.88967300  0.53832100  0.58913700  1
  H  671  1  0.13828600  0.57225900  0.79678400  1
  H  672  1  0.16946500  0.60678300  0.79702100  1
  H  679  1  0.19289700  0.51293200  0.78289200  1
  H  680  1  0.16219300  0.47812100  0.78309400  1
  H  681  1  0.08452800  0.49547200  0.82006500  1
  H  682  1  0.11660600  0.52832400  0.82253500  1
  H  683  1  0.22299800  0.52646100  0.80879000  1
  H  693  1  0.47162500  0.73410200  0.56722500  1
  H  694  1  0.50280600  0.73434100  0.53246400  1
  H  701  1  0.52622900  0.72019900  0.64044300  1
  H  702  1  0.49552200  0.72039700  0.67505800  1
  H  703  1  0.41786900  0.75739100  0.62073200  1
  H  704  1  0.44994500  0.75986200  0.58540800  1
  H  705  1  0.55632900  0.74612100  0.60101100  1
  H  757  1  0.60075300  0.62286100  0.20484000  1
  H  758  1  0.63059700  0.59354200  0.19413800  1
  H  759  1  0.68102000  0.62664500  0.24861400  1
  H  760  1  0.71055100  0.59690100  0.23836600  1
  H  761  1  0.71116400  0.62458400  0.17110100  1
  H  762  1  0.75543700  0.62445600  0.14044700  1
  H  763  1  0.73306900  0.54624400  0.19497700  1
  H  764  1  0.73298600  0.49906900  0.21865200  1
  H  765  1  0.64303300  0.54850600  0.25482800  1
  H  766  1  0.64147000  0.49744600  0.27942900  1
  H  767  1  0.64085000  0.44135200  0.25887100  1
  H  768  1  0.61132100  0.40638800  0.29567400  1
  H  769  1  0.69217900  0.45729500  0.31314100  1
  H  770  1  0.66123700  0.42354600  0.34977900  1
  H  771  1  0.70893200  0.42086200  0.27174500  1
  H  772  1  0.75374300  0.42071800  0.24182800  1
  H  773  1  0.82389200  0.54795200  0.13375500  1
  H  774  1  0.82491900  0.49695000  0.16010400  1
  H  775  1  0.82132800  0.43955600  0.23786000  1
  H  776  1  0.85188900  0.40496200  0.23669000  1
  H  777  1  0.77637300  0.45802100  0.16444000  1
  H  778  1  0.80882000  0.42496100  0.16195100  1
  H  779  1  0.75532800  0.59792900  0.10118000  1
  H  780  1  0.78478900  0.62749600  0.06127100  1
  H  781  1  0.86655400  0.62094600  0.10864900  1
  H  782  1  0.83658400  0.59205600  0.14859000  1
  H  831  1  0.93408790  0.14216600  0.10855500  1
  H  832  1  0.96391990  0.13145300  0.14857700  1
  H  833  1  0.01437200  0.18594100  0.06100900  1
  H  834  1  0.04388900  0.17567500  0.10101500  1
  H  835  1  0.04451200  0.10843100  0.14057000  1
  H  836  1  0.08879800  0.07778300  0.17134500  1
  H  837  1  0.06639100  0.13228300  0.19505800  1
  H  838  1  0.06628200  0.15593600  0.21857800  1
  H  839  1  0.97634990  0.19213700  0.13294700  1
  H  840  1  0.97479490  0.21674100  0.15940300  1
  H  841  1  0.97419890  0.19619500  0.23605000  1
  H  842  1  0.94466690  0.23299900  0.23420700  1
  H  843  1  0.02550000  0.25045900  0.16581800  1
  H  844  1  0.99455594  0.28709800  0.16292600  1
  H  845  1  0.04230900  0.20909500  0.24362900  1
  H  846  1  0.08711100  0.17917200  0.27369500  1
  H  847  1  0.15718700  0.07104100  0.25458700  1
  H  848  1  0.15822200  0.09739100  0.27923800  1
  H  849  1  0.15468100  0.17515600  0.25885200  1
  H  850  1  0.18524500  0.17398400  0.29461300  1
  H  851  1  0.10968800  0.10176100  0.31381700  1
  H  852  1  0.14213700  0.09926800  0.34936300  1
  H  853  1  0.08865000  0.03848800  0.23715600  1
  H  854  1  0.11811300  0.99858400  0.24747600  1
  H  855  1  0.19987800  0.04596700  0.20666200  1
  H  856  1  0.16991100  0.08590400  0.19563200  1
  H  905  1  0.26742200  0.04587500  0.68555800  1
  H  906  1  0.29724900  0.08590700  0.65624000  1
  H  907  1  0.34770100  0.99833900  0.68930200  1
  H  908  1  0.37721600  0.03834700  0.65955500  1
  H  909  1  0.37783600  0.07790200  0.68726500  1
  H  910  1  0.42212900  0.10867000  0.68713600  1
  H  911  1  0.39972700  0.13237600  0.60892500  1
  H  912  1  0.39960800  0.15590500  0.56174800  1
  H  913  1  0.30969600  0.07026100  0.61118400  1
  H  914  1  0.30814600  0.09671000  0.56012500  1
  H  915  1  0.30752300  0.17336500  0.50402800  1
  H  916  1  0.27799400  0.17152700  0.46906300  1
  H  917  1  0.35884300  0.10314400  0.51997900  1
  H  918  1  0.32790400  0.10025800  0.48622800  1
  H  919  1  0.37564300  0.18094500  0.48354100  1
  H  920  1  0.42045500  0.21100600  0.48339500  1
  H  921  1  0.49052100  0.19191100  0.61062900  1
  H  922  1  0.49155600  0.21655800  0.55962900  1
  H  923  1  0.48802200  0.19616500  0.50225100  1
  H  924  1  0.51857700  0.23192900  0.46765700  1
  H  925  1  0.44303100  0.25112500  0.52069300  1
  H  926  1  0.47547500  0.28667400  0.48763400  1
  H  927  1  0.42197400  0.17448100  0.66060100  1
  H  928  1  0.45142000  0.18481800  0.69018400  1
  H  929  1  0.53319700  0.14398100  0.68365200  1
  H  930  1  0.50324700  0.13294300  0.65475000  1
  H  979  1  0.60077300  0.25106700  0.79444200  1
  H  980  1  0.63058800  0.28040000  0.80513400  1
  H  981  1  0.68106400  0.24726900  0.75069700  1
  H  982  1  0.71057400  0.27703200  0.76093400  1
  H  983  1  0.71118800  0.24934700  0.82819100  1
  H  984  1  0.75548300  0.24947700  0.85882700  1
  H  985  1  0.73309800  0.32768900  0.80430300  1
  H  986  1  0.73290900  0.37486200  0.78071200  1
  H  987  1  0.64305100  0.32542600  0.74446100  1
  H  988  1  0.64147500  0.37648400  0.71987000  1
  H  989  1  0.64085800  0.43259000  0.74043200  1
  H  990  1  0.61133400  0.46756000  0.70362500  1
  H  991  1  0.69215900  0.41662100  0.68616700  1
  H  992  1  0.66122300  0.45037700  0.64952600  1
  H  993  1  0.70898200  0.45307100  0.72750700  1
  H  994  1  0.75379400  0.45322000  0.75742000  1
  H  995  1  0.82384800  0.32598500  0.86557900  1
  H  996  1  0.82485600  0.37698700  0.83924700  1
  H  997  1  0.82134700  0.43435900  0.76145800  1
  H  998  1  0.85190600  0.46895000  0.76262700  1
  H  999  1  0.77634200  0.41593800  0.83484700  1
  H  1000  1  0.80878800  0.44899500  0.83733600  1
  H  1001  1  0.75534000  0.27602700  0.89808200  1
  H  1002  1  0.78477900  0.24643900  0.93800500  1
  H  1003  1  0.86656400  0.25295800  0.89065500  1
  H  1004  1  0.83661300  0.28187200  0.85069800  1
  H  1053  1  0.93408490  0.73178800  0.89072000  1
  H  1054  1  0.96393590  0.74249000  0.85070400  1
  H  1055  1  0.01433800  0.68799300  0.93829100  1
  H  1056  1  0.04387700  0.69824200  0.89830100  1
  H  1057  1  0.04450000  0.76551400  0.85871900  1
  H  1058  1  0.08877300  0.79616800  0.82793700  1
  H  1059  1  0.06640500  0.74163900  0.80425200  1
  H  1060  1  0.06632000  0.71796300  0.78075300  1
  H  1061  1  0.97636690  0.68179100  0.86636400  1
  H  1062  1  0.97480390  0.65718900  0.83990700  1
  H  1063  1  0.97418190  0.67774700  0.76325400  1
  H  1064  1  0.94465290  0.64094700  0.76509100  1
  H  1065  1  0.02550900  0.62347500  0.83346700  1
  H  1066  1  0.99456494  0.58683900  0.83635400  1
  H  1067  1  0.04226600  0.66487200  0.75563800  1
  H  1068  1  0.08707700  0.69479000  0.72557700  1
  H  1069  1  0.15722600  0.80285900  0.74474000  1
  H  1070  1  0.15825300  0.77651100  0.72008700  1
  H  1071  1  0.15466200  0.69875500  0.74045000  1
  H  1072  1  0.18522300  0.69992400  0.70468800  1
  H  1073  1  0.10970700  0.77217500  0.68549500  1
  H  1074  1  0.14215100  0.77466200  0.64994600  1
  H  1075  1  0.08866400  0.83543700  0.76214200  1
  H  1076  1  0.11812800  0.87534500  0.75179800  1
  H  1077  1  0.19989000  0.82796500  0.79262800  1
  H  1078  1  0.16992100  0.78802500  0.80367900  1
  H  1127  1  0.26741900  0.82806700  0.31375900  1
  H  1128  1  0.29725300  0.78804300  0.34306500  1
  H  1129  1  0.34771100  0.87560700  0.30998300  1
  H  1130  1  0.37722800  0.83559900  0.33972400  1
  H  1131  1  0.37784300  0.79604400  0.31203600  1
  H  1132  1  0.42212700  0.76527000  0.31216200  1
  H  1133  1  0.39972700  0.74156100  0.39037500  1
  H  1134  1  0.39961500  0.71803600  0.43755000  1
  H  1135  1  0.30968700  0.80367200  0.38811700  1
  H  1136  1  0.30812600  0.77721500  0.43917700  1
  H  1137  1  0.30753000  0.70056600  0.49527800  1
  H  1138  1  0.27799900  0.70240800  0.53024000  1
  H  1139  1  0.35883100  0.77079700  0.47931000  1
  H  1140  1  0.32789000  0.77368600  0.51305900  1
  H  1141  1  0.37564100  0.69298500  0.51575800  1
  H  1142  1  0.42044500  0.66292000  0.51590100  1
  H  1143  1  0.49052600  0.68202900  0.38866500  1
  H  1144  1  0.49156100  0.65737800  0.43966500  1
  H  1145  1  0.48801500  0.67776400  0.49704300  1
  H  1146  1  0.51858000  0.64200000  0.53163300  1
  H  1147  1  0.44302200  0.62280000  0.47860900  1
  H  1148  1  0.47547300  0.58725400  0.51166200  1
  H  1149  1  0.42198400  0.69945900  0.33868200  1
  H  1150  1  0.45144700  0.68913500  0.30909600  1
  H  1151  1  0.53321200  0.72995200  0.31566300  1
  H  1152  1  0.50324400  0.74098400  0.34457000  1
  H  1159  1  0.92562090  0.64056200  0.99268800  1
  H  1160  1  0.95946590  0.65859200  0.95405000  1
  H  1167  1  0.90624990  0.68890300  0.02905200  1
  H  1168  1  0.87156000  0.66796800  0.06759200  1
  H  1169  1  0.83143000  0.61933000  0.03869000  1
  H  1170  1  0.86505400  0.64078100  0.99999500  1
  H  1171  1  0.90340090  0.71908200  0.97660700  1
  H  1181  1  0.25897700  0.93004300  0.30298700  1
  H  1182  1  0.29282100  0.89140700  0.32360800  1
  H  1189  1  0.23959600  0.96638800  0.21829000  1
  H  1190  1  0.20488900  0.00491800  0.20068800  1
  H  1191  1  0.16476400  0.97600800  0.27823000  1
  H  1192  1  0.19840500  0.93732200  0.29547200  1
  H  1193  1  0.23675400  0.91392800  0.24057400  1
  H  1203  1  0.59230100  0.24031200  0.70324800  1
  H  1204  1  0.62616900  0.26091200  0.72127100  1
  H  1211  1  0.57290100  0.15561200  0.75159700  1
  H  1212  1  0.53820300  0.13802000  0.73065500  1
  H  1213  1  0.49809400  0.21557000  0.68202600  1
  H  1214  1  0.53172600  0.23280200  0.70348200  1
  H  1215  1  0.57006300  0.17789500  0.78177100  1
  H  1225  1  0.92561190  0.23337400  0.00659800  1
  H  1226  1  0.95947490  0.21535700  0.04522300  1
  H  1233  1  0.90624290  0.18502200  0.97025000  1
  H  1234  1  0.87155500  0.20596200  0.93170600  1
  H  1235  1  0.83142300  0.25459600  0.96061200  1
  H  1236  1  0.86504000  0.23314000  0.99931000  1
  H  1237  1  0.90339590  0.15484900  0.02270200  1
  H  1247  1  0.25896200  0.94391300  0.69628100  1
  H  1248  1  0.29280900  0.98254900  0.67566600  1
  H  1255  1  0.23959600  0.90756000  0.78098400  1
  H  1256  1  0.20490200  0.86902100  0.79859200  1
  H  1257  1  0.16476900  0.89792400  0.72105300  1
  H  1258  1  0.19839500  0.93661600  0.70380800  1
  H  1259  1  0.23675700  0.96000800  0.75871200  1
  H  1269  1  0.59230100  0.63362000  0.29605000  1
  H  1270  1  0.62614400  0.61300600  0.27802500  1
  H  1277  1  0.57292500  0.71832500  0.24770800  1
  H  1278  1  0.53822100  0.73592500  0.26864400  1
  H  1279  1  0.49810000  0.65838200  0.31727200  1
  H  1280  1  0.53173700  0.64114100  0.29582400  1
  H  1281  1  0.57007600  0.69605100  0.21752800  1
  H  1291  1  0.53841000  0.36939500  0.36436400  1
  H  1292  1  0.56958600  0.40415500  0.32983900  1
  H  1299  1  0.59302400  0.29617400  0.42368400  1
  H  1300  1  0.56231800  0.26156300  0.45849300  1
  H  1301  1  0.48465700  0.31588700  0.44115100  1
  H  1302  1  0.51673400  0.35121100  0.40830200  1
  H  1303  1  0.62312500  0.33560300  0.41015800  1
  H  1313  1  0.87174200  0.30167800  0.20251300  1
  H  1314  1  0.90292290  0.26715600  0.20227300  1
  H  1321  1  0.92634790  0.36099400  0.21641500  1
  H  1322  1  0.89563900  0.39580600  0.21621700  1
  H  1323  1  0.81798600  0.37847500  0.17922300  1
  H  1324  1  0.85006400  0.34562000  0.17675300  1
  H  1325  1  0.95644890  0.34748400  0.19049200  1
  H  1335  1  0.20507800  0.13982000  0.43207800  1
  H  1336  1  0.23625700  0.13958900  0.46683700  1
  H  1343  1  0.25968500  0.15372000  0.35885800  1
  H  1344  1  0.22897800  0.15351700  0.32424900  1
  H  1345  1  0.15132300  0.11653900  0.37857400  1
  H  1346  1  0.18340100  0.11406800  0.41389700  1
  H  1347  1  0.28979200  0.12781500  0.39828700  1
  H  1357  1  0.53841100  0.50454400  0.63493600  1
  H  1358  1  0.56958800  0.46978400  0.66946700  1
  H  1365  1  0.59302000  0.57775400  0.57561100  1
  H  1366  1  0.56231500  0.61236500  0.54079800  1
  H  1367  1  0.48465700  0.55804300  0.55814500  1
  H  1368  1  0.51673200  0.52271800  0.59100000  1
  H  1369  1  0.62312400  0.53832100  0.58913700  1
  H  1379  1  0.87173700  0.57225900  0.79678400  1
  H  1380  1  0.90291590  0.60678300  0.79702100  1
  H  1387  1  0.92634790  0.51293200  0.78289200  1
  H  1388  1  0.89564400  0.47812100  0.78309400  1
  H  1389  1  0.81797900  0.49547200  0.82006500  1
  H  1390  1  0.85005700  0.52832400  0.82253500  1
  H  1391  1  0.95644890  0.52646100  0.80879000  1
  H  1401  1  0.20507600  0.73410200  0.56722500  1
  H  1402  1  0.23625700  0.73434100  0.53246400  1
  H  1409  1  0.25968000  0.72019900  0.64044300  1
  H  1410  1  0.22897300  0.72039700  0.67505800  1
  H  1411  1  0.15132000  0.75739100  0.62073200  1
  H  1412  1  0.18339600  0.75986200  0.58540800  1
  H  1413  1  0.28978000  0.74612100  0.60101100  1
  C  1  1  0.98776000  0.60755900  0.17263500  1
  C  2  1  0.01174100  0.60748600  0.15586200  1
  C  3  1  0.01927000  0.58070600  0.16396700  1
  C  5  1  0.98005400  0.58082200  0.19131700  1
  C  6  1  0.95622200  0.57258700  0.21188200  1
  C  7  1  0.94788400  0.54537800  0.23040700  1
  C  9  1  0.94689900  0.50019200  0.25249000  1
  C  10  1  0.92339000  0.50900500  0.26388200  1
  C  11  1  0.92427200  0.53678900  0.25052000  1
  C  12  1  0.95416800  0.47292000  0.26063100  1
  C  13  1  0.97838200  0.46465700  0.24854700  1
  C  15  1  0.01905400  0.46451500  0.22219900  1
  C  16  1  0.01046900  0.43781200  0.24028200  1
  C  17  1  0.98589100  0.43789300  0.25655800  1
  C  18  1  0.04386700  0.47259800  0.20234200  1
  C  19  1  0.05172600  0.49984800  0.18352700  1
  C  21  1  0.05132300  0.54506200  0.16057800  1
  C  22  1  0.07526900  0.53633600  0.14944300  1
  C  23  1  0.07589200  0.50855600  0.16385100  1
  C  24  1  0.04321300  0.57233200  0.15183700  1
  C  25  1  0.05962300  0.59260000  0.12859400  1
  C  26  1  0.09173500  0.60015100  0.13029700  1
  C  27  1  0.10924700  0.61730600  0.10674300  1
  C  28  1  0.09518000  0.62738000  0.08089300  1
  C  29  1  0.06246800  0.62063300  0.07952400  1
  C  30  1  0.04496300  0.60339100  0.10299300  1
  C  31  1  0.06238300  0.45201100  0.20132800  1
  C  32  1  0.08491100  0.43646200  0.22185900  1
  C  33  1  0.10322500  0.41624700  0.22089500  1
  C  34  1  0.10048000  0.41125200  0.19907300  1
  C  35  1  0.07790600  0.42718200  0.17849400  1
  C  36  1  0.05889800  0.44694300  0.17972900  1
  C  37  1  0.93600700  0.45245500  0.28257600  1
  C  38  1  0.91199300  0.43761800  0.27800500  1
  C  39  1  0.89452200  0.41716100  0.29968800  1
  C  40  1  0.90007600  0.41119500  0.32652900  1
  C  41  1  0.92363900  0.42663500  0.33083000  1
  C  42  1  0.94166700  0.44669300  0.30926700  1
  C  43  1  0.94006100  0.59295500  0.21483600  1
  C  44  1  0.90834400  0.60121700  0.20479900  1
  C  45  1  0.95442400  0.60307000  0.23036800  1
  C  46  1  0.93700300  0.62047000  0.23643900  1
  C  47  1  0.90484200  0.62816000  0.22717700  1
  C  48  1  0.89093100  0.61858900  0.21095500  1
  C  75  1  0.32110500  0.10996300  0.15606300  1
  C  76  1  0.34505500  0.09316300  0.17293400  1
  C  77  1  0.35259200  0.10127500  0.19160400  1
  C  79  1  0.31338500  0.12863300  0.16413100  1
  C  80  1  0.28954300  0.14919200  0.15180700  1
  C  81  1  0.28119800  0.16771100  0.16049800  1
  C  83  1  0.28022300  0.18979900  0.18359500  1
  C  84  1  0.25670700  0.20118800  0.16339600  1
  C  85  1  0.25757400  0.18781400  0.14898400  1
  C  86  1  0.28750800  0.19795000  0.20271500  1
  C  87  1  0.31173400  0.18587800  0.22304900  1
  C  89  1  0.35240300  0.15952400  0.24954400  1
  C  90  1  0.34384100  0.17762800  0.25814400  1
  C  91  1  0.31926300  0.19390500  0.24178800  1
  C  92  1  0.37719600  0.13965000  0.26133400  1
  C  93  1  0.38505200  0.12083500  0.25289900  1
  C  95  1  0.38465500  0.09789200  0.23062600  1
  C  96  1  0.40861000  0.08676300  0.25047900  1
  C  97  1  0.40919700  0.10114100  0.26388400  1
  C  98  1  0.37654200  0.08915100  0.21209800  1
  C  99  1  0.39294700  0.06590300  0.21508000  1
  C  100  1  0.42505900  0.06761300  0.20582000  1
  C  101  1  0.44257100  0.04406100  0.21220800  1
  C  102  1  0.42850700  0.01821000  0.22798700  1
  C  103  1  0.39579400  0.01683800  0.23610700  1
  C  104  1  0.37826500  0.04030600  0.22984700  1
  C  105  1  0.39571400  0.13863800  0.28293400  1
  C  106  1  0.41825200  0.15916400  0.27794800  1
  C  107  1  0.43656900  0.15819800  0.29912600  1
  C  108  1  0.43381400  0.13638100  0.32594800  1
  C  109  1  0.41121800  0.11581500  0.33060000  1
  C  110  1  0.39222200  0.11704300  0.30960200  1
  C  111  1  0.26934800  0.21989800  0.20123300  1
  C  112  1  0.24534700  0.21533000  0.22065300  1
  C  113  1  0.22787300  0.23701400  0.21942400  1
  C  114  1  0.23341300  0.26385000  0.19853800  1
  C  115  1  0.25697300  0.26815200  0.17879600  1
  C  116  1  0.27500200  0.24658700  0.18030100  1
  C  117  1  0.27339000  0.15215400  0.12848000  1
  C  118  1  0.24166800  0.14212700  0.13024200  1
  C  119  1  0.28774500  0.16771200  0.10283100  1
  C  120  1  0.27033700  0.17378300  0.07935500  1
  C  121  1  0.23818100  0.16452000  0.08092100  1
  C  122  1  0.22425600  0.14830600  0.10670900  1
  C  149  1  0.65441900  0.09340400  0.67023900  1
  C  150  1  0.67838200  0.11026100  0.67016900  1
  C  151  1  0.68592800  0.12892500  0.64338500  1
  C  153  1  0.64670900  0.10146200  0.64350300  1
  C  154  1  0.62286700  0.08913900  0.63526800  1
  C  155  1  0.61453600  0.09781800  0.60805700  1
  C  157  1  0.61356700  0.12090700  0.56287200  1
  C  158  1  0.59005500  0.10070500  0.57168500  1
  C  159  1  0.59092000  0.08629700  0.59946900  1
  C  160  1  0.62083900  0.14003400  0.53560000  1
  C  161  1  0.64506400  0.16037200  0.52733700  1
  C  163  1  0.68574400  0.18685500  0.52719400  1
  C  164  1  0.67718300  0.19545500  0.50049100  1
  C  165  1  0.65260000  0.17910200  0.50057100  1
  C  166  1  0.71053800  0.19864400  0.53527700  1
  C  167  1  0.71839800  0.19020700  0.56252800  1
  C  169  1  0.71800300  0.16793900  0.60774100  1
  C  170  1  0.74196100  0.18778500  0.59901700  1
  C  171  1  0.74253800  0.20119700  0.57123400  1
  C  172  1  0.70988800  0.14941400  0.63501200  1
  C  173  1  0.72628300  0.15240800  0.65527500  1
  C  174  1  0.75839300  0.14314800  0.66283600  1
  C  175  1  0.77590000  0.14955600  0.67998700  1
  C  176  1  0.76182300  0.16532900  0.69006000  1
  C  177  1  0.72911800  0.17345800  0.68329300  1
  C  178  1  0.71160400  0.16720300  0.66607700  1
  C  179  1  0.72905500  0.22024400  0.51469100  1
  C  180  1  0.75159300  0.21526000  0.49915000  1
  C  181  1  0.76991500  0.23643900  0.47894100  1
  C  182  1  0.76715400  0.26326000  0.47393400  1
  C  183  1  0.74456600  0.26790900  0.48985700  1
  C  184  1  0.72555200  0.24691300  0.50961200  1
  C  185  1  0.60268000  0.13855300  0.51513400  1
  C  186  1  0.57867800  0.15797100  0.50028600  1
  C  187  1  0.56119500  0.15673700  0.47983800  1
  C  188  1  0.56674900  0.13586000  0.47387500  1
  C  189  1  0.59031400  0.11612300  0.48931100  1
  C  190  1  0.60833800  0.11762300  0.50937400  1
  C  191  1  0.60671900  0.06580700  0.65563100  1
  C  192  1  0.57499700  0.06757200  0.66389500  1
  C  193  1  0.62109300  0.04016400  0.66573900  1
  C  194  1  0.60365900  0.01668600  0.68310000  1
  C  195  1  0.57150800  0.01824700  0.69081000  1
  C  196  1  0.55757500  0.04403600  0.68122600  1
  C  223  1  0.98779000  0.26637300  0.82664900  1
  C  224  1  0.01176300  0.26644600  0.84342900  1
  C  225  1  0.01930800  0.29322800  0.83530700  1
  C  227  1  0.98007800  0.29310900  0.80797000  1
  C  228  1  0.95623000  0.30134300  0.78741600  1
  C  229  1  0.94787300  0.32855200  0.76890600  1
  C  231  1  0.94688400  0.37373800  0.74682400  1
  C  232  1  0.92337100  0.36492500  0.73543600  1
  C  233  1  0.92424000  0.33714100  0.74881000  1
  C  234  1  0.95416300  0.40100900  0.73867400  1
  C  235  1  0.97839000  0.40927400  0.75074700  1
  C  237  1  0.01907300  0.40941900  0.77708400  1
  C  238  1  0.01051700  0.43612300  0.75897300  1
  C  239  1  0.98593400  0.43604200  0.74269900  1
  C  240  1  0.04386000  0.40133900  0.79696200  1
  C  241  1  0.05172600  0.37408900  0.81577000  1
  C  243  1  0.05135000  0.32887300  0.83870000  1
  C  244  1  0.07529300  0.33759700  0.84983600  1
  C  245  1  0.07586800  0.36538100  0.83546700  1
  C  246  1  0.04325400  0.30160100  0.84743200  1
  C  247  1  0.05965400  0.28134100  0.87068500  1
  C  248  1  0.09175600  0.27377000  0.86898800  1
  C  249  1  0.10927800  0.25666200  0.89255300  1
  C  250  1  0.09519000  0.24656900  0.91839800  1
  C  251  1  0.06248200  0.25333100  0.91975800  1
  C  252  1  0.04497000  0.27055000  0.89628000  1
  C  253  1  0.06237600  0.42192500  0.79797500  1
  C  254  1  0.08492800  0.43745500  0.77745600  1
  C  255  1  0.10324200  0.45766900  0.77842100  1
  C  256  1  0.10048000  0.46268100  0.80023100  1
  C  257  1  0.07788900  0.44676300  0.82080100  1
  C  258  1  0.05887600  0.42700500  0.81956500  1
  C  259  1  0.93600300  0.42147600  0.71672800  1
  C  260  1  0.91199800  0.43632200  0.72129700  1
  C  261  1  0.89452600  0.45678000  0.69961400  1
  C  262  1  0.90007700  0.46273900  0.67277600  1
  C  263  1  0.92363300  0.44729400  0.66847600  1
  C  264  1  0.94166500  0.42723700  0.69003700  1
  C  265  1  0.94007400  0.28097800  0.78445800  1
  C  266  1  0.90836200  0.27270300  0.79450400  1
  C  267  1  0.95444500  0.27086000  0.76892900  1
  C  268  1  0.93703500  0.25345400  0.76286300  1
  C  269  1  0.90487300  0.24576200  0.77211400  1
  C  270  1  0.89093400  0.25538300  0.78828500  1
  C  297  1  0.32109500  0.76398000  0.84322600  1
  C  298  1  0.34507700  0.78075400  0.82638100  1
  C  299  1  0.35260600  0.77265000  0.80770500  1
  C  301  1  0.31338900  0.74529800  0.83517200  1
  C  302  1  0.28955800  0.72473400  0.84750200  1
  C  303  1  0.28121900  0.70621000  0.83881700  1
  C  305  1  0.28023300  0.68412700  0.81571400  1
  C  306  1  0.25672400  0.67273500  0.83591900  1
  C  307  1  0.25760600  0.68609700  0.85034000  1
  C  308  1  0.28750300  0.67598600  0.79658400  1
  C  309  1  0.31171500  0.68806900  0.77623700  1
  C  311  1  0.35238800  0.71441700  0.74974700  1
  C  312  1  0.34380300  0.69633600  0.74112600  1
  C  313  1  0.31922400  0.68005800  0.75748300  1
  C  314  1  0.37720100  0.73427300  0.73797300  1
  C  315  1  0.38506000  0.75308800  0.74640800  1
  C  317  1  0.38465700  0.77603800  0.76867300  1
  C  318  1  0.40860300  0.78717300  0.74881300  1
  C  319  1  0.40922600  0.77276300  0.73544100  1
  C  320  1  0.37654700  0.78477900  0.78720200  1
  C  321  1  0.39295900  0.80802100  0.78422800  1
  C  322  1  0.42507100  0.80631700  0.79348300  1
  C  323  1  0.44258600  0.82987100  0.78708200  1
  C  324  1  0.42851900  0.85572200  0.77130600  1
  C  325  1  0.39580600  0.85709200  0.76318900  1
  C  326  1  0.37829900  0.83362400  0.76941500  1
  C  327  1  0.39571700  0.73528700  0.71637200  1
  C  328  1  0.41824500  0.71475600  0.72135500  1
  C  329  1  0.43655900  0.71571900  0.70017600  1
  C  330  1  0.43381400  0.73754200  0.67335800  1
  C  331  1  0.41124000  0.75812100  0.66871100  1
  C  332  1  0.39223200  0.75688600  0.68970500  1
  C  333  1  0.26933900  0.65404100  0.79806300  1
  C  334  1  0.24532500  0.65861400  0.77865300  1
  C  335  1  0.22785100  0.63693300  0.77987800  1
  C  336  1  0.23340800  0.61009000  0.80075200  1
  C  337  1  0.25696800  0.60578700  0.82049300  1
  C  338  1  0.27499700  0.62735000  0.81899100  1
  C  339  1  0.27339500  0.72178100  0.87082100  1
  C  340  1  0.24168100  0.73182500  0.86904200  1
  C  341  1  0.28775200  0.70624600  0.89647100  1
  C  342  1  0.27032500  0.70017400  0.91993900  1
  C  343  1  0.23816700  0.70944200  0.91836100  1
  C  344  1  0.22426000  0.72566700  0.89256800  1
  C  371  1  0.65443600  0.78055100  0.32906000  1
  C  372  1  0.67838700  0.76368100  0.32913100  1
  C  373  1  0.68592500  0.74501300  0.35591300  1
  C  375  1  0.64671900  0.77248600  0.35579800  1
  C  376  1  0.62287700  0.78480800  0.36403300  1
  C  377  1  0.61453200  0.77611900  0.39124400  1
  C  379  1  0.61355500  0.75302000  0.43642900  1
  C  380  1  0.59004100  0.77322100  0.42761700  1
  C  381  1  0.59090800  0.78763300  0.39983200  1
  C  382  1  0.62083900  0.73389900  0.46369900  1
  C  383  1  0.64506800  0.71356600  0.47196200  1
  C  385  1  0.68573600  0.68707100  0.47210300  1
  C  386  1  0.67717500  0.67847100  0.49880700  1
  C  387  1  0.65259500  0.69482700  0.49872800  1
  C  388  1  0.71053000  0.67528300  0.46401800  1
  C  389  1  0.71838900  0.68372000  0.43676800  1
  C  391  1  0.71799100  0.70599000  0.39155400  1
  C  392  1  0.74194700  0.68613800  0.40027700  1
  C  393  1  0.74253300  0.67273400  0.42806000  1
  C  394  1  0.70987600  0.72451700  0.36428400  1
  C  395  1  0.72628300  0.72153500  0.34401700  1
  C  396  1  0.75839300  0.73079500  0.33646800  1
  C  397  1  0.77590600  0.72440400  0.31930500  1
  C  398  1  0.76184100  0.70862600  0.30923400  1
  C  399  1  0.72913100  0.70050600  0.31598200  1
  C  400  1  0.71160100  0.70676800  0.33318900  1
  C  401  1  0.72904800  0.65368200  0.48460600  1
  C  402  1  0.75158600  0.65866700  0.50014600  1
  C  403  1  0.76990500  0.63748700  0.52035900  1
  C  404  1  0.76714900  0.61066700  0.52536200  1
  C  405  1  0.74455400  0.60601600  0.50944800  1
  C  406  1  0.72555900  0.62701500  0.48967800  1
  C  407  1  0.60268000  0.73537900  0.48416700  1
  C  408  1  0.57867800  0.71596200  0.49901700  1
  C  409  1  0.56120500  0.71719000  0.51947200  1
  C  410  1  0.56674700  0.73807700  0.52542400  1
  C  411  1  0.59030700  0.75781700  0.50998200  1
  C  412  1  0.60833300  0.75631300  0.48992200  1
  C  413  1  0.60672700  0.80813600  0.34367000  1
  C  414  1  0.57500200  0.80637700  0.33540300  1
  C  415  1  0.62108100  0.83378400  0.33357800  1
  C  416  1  0.60367600  0.85726100  0.31617300  1
  C  417  1  0.57151800  0.85569800  0.30847700  1
  C  418  1  0.55758900  0.82991100  0.31805200  1
  C  445  1  0.21893200  0.69988300  0.94208900  1
  C  446  1  0.20243200  0.71737800  0.94898800  1
  C  447  1  0.18216300  0.70627400  0.97210200  1
  C  448  1  0.17745700  0.67813200  0.98828400  1
  C  449  1  0.19450400  0.66107200  0.98133500  1
  C  450  1  0.21485400  0.67172800  0.95870000  1
  C  453  1  0.15570200  0.66695400  0.01065200  1
  C  454  1  0.15654000  0.67473300  0.03052400  1
  C  455  1  0.13636900  0.66213200  0.05341800  1
  C  456  1  0.11427500  0.64167700  0.05699600  1
  C  457  1  0.11294700  0.63447000  0.03670500  1
  C  458  1  0.13322900  0.64685500  0.01400200  1
  C  467  1  0.55229000  0.87942800  0.29429300  1
  C  468  1  0.53579300  0.88631700  0.26990100  1
  C  469  1  0.51553000  0.90943700  0.25787600  1
  C  470  1  0.51082000  0.92562500  0.26982800  1
  C  471  1  0.52786700  0.91868700  0.29383400  1
  C  472  1  0.54823400  0.89606200  0.30581300  1
  C  475  1  0.48905000  0.94798500  0.25864000  1
  C  476  1  0.48987900  0.96785300  0.23098700  1
  C  477  1  0.46969600  0.99074100  0.22069500  1
  C  478  1  0.44759400  0.99431100  0.23757400  1
  C  479  1  0.44627100  0.97402000  0.26507200  1
  C  480  1  0.46656500  0.95132300  0.27538800  1
  C  489  1  0.88564400  0.23158400  0.76256300  1
  C  490  1  0.86912200  0.20720400  0.78006200  1
  C  491  1  0.84884900  0.19519100  0.76896300  1
  C  492  1  0.84414100  0.20715000  0.74082100  1
  C  493  1  0.86119400  0.23115400  0.72375800  1
  C  494  1  0.88157300  0.24312000  0.73440700  1
  C  497  1  0.82236800  0.19596600  0.72964800  1
  C  498  1  0.82321800  0.16832100  0.73740800  1
  C  499  1  0.80301500  0.15802800  0.72482500  1
  C  500  1  0.78090900  0.17490800  0.70438100  1
  C  501  1  0.77957300  0.20240200  0.69719100  1
  C  502  1  0.79988400  0.21271700  0.70956400  1
  C  511  1  0.21895600  0.17406200  0.05719200  1
  C  512  1  0.20244500  0.15656200  0.05030600  1
  C  513  1  0.18217200  0.16765800  0.02719500  1
  C  514  1  0.17745700  0.19579900  0.01101200  1
  C  515  1  0.19450100  0.21286600  0.01795200  1
  C  516  1  0.21486300  0.20221700  0.04057900  1
  C  519  1  0.15569400  0.20697200  0.98864800  1
  C  520  1  0.15655000  0.19920900  0.96876500  1
  C  521  1  0.13636700  0.21179900  0.94587900  1
  C  522  1  0.11426300  0.23224900  0.94230400  1
  C  523  1  0.11293500  0.23945600  0.96259600  1
  C  524  1  0.13321000  0.22706200  0.98530500  1
  C  533  1  0.55227800  0.99452100  0.70498600  1
  C  534  1  0.53578600  0.98762400  0.72938400  1
  C  535  1  0.51551600  0.96451000  0.74139800  1
  C  536  1  0.51080500  0.94832500  0.72944300  1
  C  537  1  0.52784700  0.95526900  0.70543400  1
  C  538  1  0.54820000  0.97790300  0.69345000  1
  C  541  1  0.48904500  0.92595900  0.74063500  1
  C  542  1  0.48988400  0.90608900  0.76828700  1
  C  543  1  0.46971100  0.88319500  0.77858200  1
  C  544  1  0.44761400  0.87961800  0.76170600  1
  C  545  1  0.44628300  0.89990800  0.73420700  1
  C  546  1  0.46657000  0.92261000  0.72389000  1
  C  555  1  0.88561500  0.64233500  0.23673300  1
  C  556  1  0.86911400  0.66672800  0.21923500  1
  C  557  1  0.84885300  0.67874500  0.23033800  1
  C  558  1  0.84414600  0.66678700  0.25847900  1
  C  559  1  0.86119100  0.64277900  0.27554000  1
  C  560  1  0.88155600  0.63080300  0.26488900  1
  C  563  1  0.82238100  0.67797400  0.26965500  1
  C  564  1  0.82320900  0.70562700  0.26187100  1
  C  565  1  0.80303000  0.71591700  0.27447100  1
  C  566  1  0.78093000  0.69903800  0.29492000  1
  C  567  1  0.77960600  0.67154000  0.30212600  1
  C  568  1  0.79989700  0.66122600  0.28974100  1
  C  577  1  0.88211900  0.39040900  0.34849400  1
  C  578  1  0.89731300  0.36988200  0.37220300  1
  C  579  1  0.87810900  0.34980000  0.39314900  1
  C  580  1  0.84395600  0.34883900  0.39120000  1
  C  581  1  0.82940800  0.36933400  0.36731300  1
  C  582  1  0.84798100  0.38972100  0.34657300  1
  C  585  1  0.82498200  0.32765600  0.41218900  1
  C  586  1  0.83707400  0.30101100  0.42747200  1
  C  587  1  0.81845100  0.28020500  0.44780400  1
  C  588  1  0.78644500  0.28474700  0.45359700  1
  C  589  1  0.77433200  0.31138800  0.43830300  1
  C  590  1  0.79319000  0.33232200  0.41829700  1
  C  599  1  0.21545200  0.28581700  0.19735700  1
  C  600  1  0.23064300  0.30953000  0.19416700  1
  C  601  1  0.21143500  0.33047200  0.19330800  1
  C  602  1  0.17728500  0.32851500  0.19623100  1
  C  603  1  0.16273800  0.30463100  0.19962100  1
  C  604  1  0.18131400  0.28389000  0.19997300  1
  C  607  1  0.15830900  0.34950600  0.19642400  1
  C  608  1  0.17040100  0.36478600  0.20778700  1
  C  609  1  0.15177600  0.38512000  0.20826000  1
  C  610  1  0.11977100  0.39091000  0.19792600  1
  C  611  1  0.10765500  0.37561200  0.18658700  1
  C  612  1  0.12651700  0.35561300  0.18565000  1
  C  621  1  0.54879100  0.13468500  0.45308600  1
  C  622  1  0.56398400  0.13149600  0.43256300  1
  C  623  1  0.54477800  0.13062900  0.41248400  1
  C  624  1  0.51062400  0.13354300  0.41152100  1
  C  625  1  0.49607700  0.13693400  0.43201600  1
  C  626  1  0.51465100  0.13729100  0.45240100  1
  C  629  1  0.49165000  0.13372900  0.39034100  1
  C  630  1  0.50374400  0.14508100  0.36369800  1
  C  631  1  0.48511500  0.14556300  0.34289100  1
  C  632  1  0.45310700  0.13523200  0.34743400  1
  C  633  1  0.44099100  0.12389600  0.37407400  1
  C  634  1  0.45985800  0.12295600  0.39500900  1
  C  643  1  0.88212000  0.48352800  0.65081000  1
  C  644  1  0.89731300  0.50404600  0.62709700  1
  C  645  1  0.87810900  0.52412500  0.60615000  1
  C  646  1  0.84395600  0.52509000  0.60809900  1
  C  647  1  0.82940800  0.50460000  0.63198500  1
  C  648  1  0.84798200  0.48421400  0.65273000  1
  C  651  1  0.82498100  0.54627400  0.58710700  1
  C  652  1  0.83708000  0.57291400  0.57181300  1
  C  653  1  0.81844900  0.59372300  0.55148800  1
  C  654  1  0.78644300  0.58918000  0.54570000  1
  C  655  1  0.77432700  0.56254200  0.56100200  1
  C  656  1  0.79318900  0.54160800  0.58100100  1
  C  665  1  0.21544700  0.58812500  0.80193000  1
  C  666  1  0.23064100  0.56441700  0.80511200  1
  C  667  1  0.21143500  0.54347100  0.80597700  1
  C  668  1  0.17728200  0.54542200  0.80306500  1
  C  669  1  0.16273600  0.56930900  0.79967300  1
  C  670  1  0.18131000  0.59004900  0.79932100  1
  C  673  1  0.15830600  0.52443200  0.80287200  1
  C  674  1  0.17039800  0.50914700  0.79151400  1
  C  675  1  0.15177600  0.48881200  0.79104300  1
  C  676  1  0.11977100  0.48302100  0.80137800  1
  C  677  1  0.10765500  0.49832000  0.81272000  1
  C  678  1  0.12651400  0.51832600  0.81364600  1
  C  687  1  0.54878600  0.73925700  0.54620900  1
  C  688  1  0.56397400  0.74244600  0.56673200  1
  C  689  1  0.54476800  0.74330500  0.58681500  1
  C  690  1  0.51061900  0.74038300  0.58778100  1
  C  691  1  0.49607200  0.73699200  0.56728700  1
  C  692  1  0.51464800  0.73664100  0.54689700  1
  C  695  1  0.49164300  0.74019000  0.60896400  1
  C  696  1  0.50373400  0.72882700  0.63560800  1
  C  697  1  0.48511000  0.72835400  0.65641400  1
  C  698  1  0.45310500  0.73868900  0.65187000  1
  C  699  1  0.44098600  0.75002700  0.62523200  1
  C  700  1  0.45985100  0.75096600  0.60429700  1
  C  709  1  0.72121100  0.60755900  0.17263500  1
  C  710  1  0.74519200  0.60748600  0.15586200  1
  C  711  1  0.75272100  0.58070600  0.16396700  1
  C  713  1  0.71350500  0.58082200  0.19131700  1
  C  714  1  0.68967300  0.57258700  0.21188200  1
  C  715  1  0.68133500  0.54537800  0.23040700  1
  C  717  1  0.68035000  0.50019200  0.25249000  1
  C  718  1  0.65684100  0.50900500  0.26388200  1
  C  719  1  0.65772300  0.53678900  0.25052000  1
  C  720  1  0.68761900  0.47292000  0.26063100  1
  C  721  1  0.71183300  0.46465700  0.24854700  1
  C  723  1  0.75250500  0.46451500  0.22219900  1
  C  724  1  0.74392000  0.43781200  0.24028200  1
  C  725  1  0.71934200  0.43789300  0.25655800  1
  C  726  1  0.77731800  0.47259800  0.20234200  1
  C  727  1  0.78517700  0.49984800  0.18352700  1
  C  729  1  0.78477400  0.54506200  0.16057800  1
  C  730  1  0.80872000  0.53633600  0.14944300  1
  C  731  1  0.80934300  0.50855600  0.16385100  1
  C  732  1  0.77666400  0.57233200  0.15183700  1
  C  733  1  0.79307400  0.59260000  0.12859400  1
  C  734  1  0.82518600  0.60015100  0.13029700  1
  C  735  1  0.84269800  0.61730600  0.10674300  1
  C  736  1  0.82863100  0.62738000  0.08089300  1
  C  737  1  0.79591900  0.62063300  0.07952400  1
  C  738  1  0.77841400  0.60339100  0.10299300  1
  C  739  1  0.79583400  0.45201100  0.20132800  1
  C  740  1  0.81836200  0.43646200  0.22185900  1
  C  741  1  0.83667600  0.41624700  0.22089500  1
  C  742  1  0.83393100  0.41125200  0.19907300  1
  C  743  1  0.81135700  0.42718200  0.17849400  1
  C  744  1  0.79234900  0.44694300  0.17972900  1
  C  745  1  0.66945800  0.45245500  0.28257600  1
  C  746  1  0.64544400  0.43761800  0.27800500  1
  C  747  1  0.62797300  0.41716100  0.29968800  1
  C  748  1  0.63352700  0.41119500  0.32652900  1
  C  749  1  0.65709000  0.42663500  0.33083000  1
  C  750  1  0.67511800  0.44669300  0.30926700  1
  C  751  1  0.67351200  0.59295500  0.21483600  1
  C  752  1  0.64179500  0.60121700  0.20479900  1
  C  753  1  0.68787500  0.60307000  0.23036800  1
  C  754  1  0.67045400  0.62047000  0.23643900  1
  C  755  1  0.63829300  0.62816000  0.22717700  1
  C  756  1  0.62438200  0.61858900  0.21095500  1
  C  783  1  0.05455600  0.10996300  0.15606300  1
  C  784  1  0.07850600  0.09316300  0.17293400  1
  C  785  1  0.08604300  0.10127500  0.19160400  1
  C  787  1  0.04683600  0.12863300  0.16413100  1
  C  788  1  0.02299400  0.14919200  0.15180700  1
  C  789  1  0.01464900  0.16771100  0.16049800  1
  C  791  1  0.01367400  0.18979900  0.18359500  1
  C  792  1  0.99015794  0.20118800  0.16339600  1
  C  793  1  0.99102494  0.18781400  0.14898400  1
  C  794  1  0.02095900  0.19795000  0.20271500  1
  C  795  1  0.04518500  0.18587800  0.22304900  1
  C  797  1  0.08585400  0.15952400  0.24954400  1
  C  798  1  0.07729200  0.17762800  0.25814400  1
  C  799  1  0.05271400  0.19390500  0.24178800  1
  C  800  1  0.11064700  0.13965000  0.26133400  1
  C  801  1  0.11850300  0.12083500  0.25289900  1
  C  803  1  0.11810600  0.09789200  0.23062600  1
  C  804  1  0.14206100  0.08676300  0.25047900  1
  C  805  1  0.14264800  0.10114100  0.26388400  1
  C  806  1  0.10999300  0.08915100  0.21209800  1
  C  807  1  0.12639800  0.06590300  0.21508000  1
  C  808  1  0.15851000  0.06761300  0.20582000  1
  C  809  1  0.17602200  0.04406100  0.21220800  1
  C  810  1  0.16195800  0.01821000  0.22798700  1
  C  811  1  0.12924500  0.01683800  0.23610700  1
  C  812  1  0.11171600  0.04030600  0.22984700  1
  C  813  1  0.12916500  0.13863800  0.28293400  1
  C  814  1  0.15170300  0.15916400  0.27794800  1
  C  815  1  0.17002000  0.15819800  0.29912600  1
  C  816  1  0.16726500  0.13638100  0.32594800  1
  C  817  1  0.14466900  0.11581500  0.33060000  1
  C  818  1  0.12567300  0.11704300  0.30960200  1
  C  819  1  0.00279900  0.21989800  0.20123300  1
  C  820  1  0.97879790  0.21533000  0.22065300  1
  C  821  1  0.96132390  0.23701400  0.21942400  1
  C  822  1  0.96686390  0.26385000  0.19853800  1
  C  823  1  0.99042394  0.26815200  0.17879600  1
  C  824  1  0.00845300  0.24658700  0.18030100  1
  C  825  1  0.00684100  0.15215400  0.12848000  1
  C  826  1  0.97511890  0.14212700  0.13024200  1
  C  827  1  0.02119600  0.16771200  0.10283100  1
  C  828  1  0.00378800  0.17378300  0.07935500  1
  C  829  1  0.97163190  0.16452000  0.08092100  1
  C  830  1  0.95770690  0.14830600  0.10670900  1
  C  857  1  0.38787000  0.09340400  0.67023900  1
  C  858  1  0.41183300  0.11026100  0.67016900  1
  C  859  1  0.41937900  0.12892500  0.64338500  1
  C  861  1  0.38016000  0.10146200  0.64350300  1
  C  862  1  0.35631800  0.08913900  0.63526800  1
  C  863  1  0.34798700  0.09781800  0.60805700  1
  C  865  1  0.34701800  0.12090700  0.56287200  1
  C  866  1  0.32350600  0.10070500  0.57168500  1
  C  867  1  0.32437100  0.08629700  0.59946900  1
  C  868  1  0.35429000  0.14003400  0.53560000  1
  C  869  1  0.37851500  0.16037200  0.52733700  1
  C  871  1  0.41919500  0.18685500  0.52719400  1
  C  872  1  0.41063400  0.19545500  0.50049100  1
  C  873  1  0.38605100  0.17910200  0.50057100  1
  C  874  1  0.44398900  0.19864400  0.53527700  1
  C  875  1  0.45184900  0.19020700  0.56252800  1
  C  877  1  0.45145400  0.16793900  0.60774100  1
  C  878  1  0.47541200  0.18778500  0.59901700  1
  C  879  1  0.47598900  0.20119700  0.57123400  1
  C  880  1  0.44333900  0.14941400  0.63501200  1
  C  881  1  0.45973400  0.15240800  0.65527500  1
  C  882  1  0.49184400  0.14314800  0.66283600  1
  C  883  1  0.50935100  0.14955600  0.67998700  1
  C  884  1  0.49527400  0.16532900  0.69006000  1
  C  885  1  0.46256900  0.17345800  0.68329300  1
  C  886  1  0.44505500  0.16720300  0.66607700  1
  C  887  1  0.46250600  0.22024400  0.51469100  1
  C  888  1  0.48504400  0.21526000  0.49915000  1
  C  889  1  0.50336600  0.23643900  0.47894100  1
  C  890  1  0.50060500  0.26326000  0.47393400  1
  C  891  1  0.47801700  0.26790900  0.48985700  1
  C  892  1  0.45900300  0.24691300  0.50961200  1
  C  893  1  0.33613100  0.13855300  0.51513400  1
  C  894  1  0.31212900  0.15797100  0.50028600  1
  C  895  1  0.29464600  0.15673700  0.47983800  1
  C  896  1  0.30020000  0.13586000  0.47387500  1
  C  897  1  0.32376500  0.11612300  0.48931100  1
  C  898  1  0.34178900  0.11762300  0.50937400  1
  C  899  1  0.34017000  0.06580700  0.65563100  1
  C  900  1  0.30844800  0.06757200  0.66389500  1
  C  901  1  0.35454400  0.04016400  0.66573900  1
  C  902  1  0.33711000  0.01668600  0.68310000  1
  C  903  1  0.30495900  0.01824700  0.69081000  1
  C  904  1  0.29102600  0.04403600  0.68122600  1
  C  931  1  0.72124100  0.26637300  0.82664900  1
  C  932  1  0.74521400  0.26644600  0.84342900  1
  C  933  1  0.75275900  0.29322800  0.83530700  1
  C  935  1  0.71352900  0.29310900  0.80797000  1
  C  936  1  0.68968100  0.30134300  0.78741600  1
  C  937  1  0.68132400  0.32855200  0.76890600  1
  C  939  1  0.68033500  0.37373800  0.74682400  1
  C  940  1  0.65682200  0.36492500  0.73543600  1
  C  941  1  0.65769100  0.33714100  0.74881000  1
  C  942  1  0.68761400  0.40100900  0.73867400  1
  C  943  1  0.71184100  0.40927400  0.75074700  1
  C  945  1  0.75252400  0.40941900  0.77708400  1
  C  946  1  0.74396800  0.43612300  0.75897300  1
  C  947  1  0.71938500  0.43604200  0.74269900  1
  C  948  1  0.77731100  0.40133900  0.79696200  1
  C  949  1  0.78517700  0.37408900  0.81577000  1
  C  951  1  0.78480100  0.32887300  0.83870000  1
  C  952  1  0.80874400  0.33759700  0.84983600  1
  C  953  1  0.80931900  0.36538100  0.83546700  1
  C  954  1  0.77670500  0.30160100  0.84743200  1
  C  955  1  0.79310500  0.28134100  0.87068500  1
  C  956  1  0.82520700  0.27377000  0.86898800  1
  C  957  1  0.84272900  0.25666200  0.89255300  1
  C  958  1  0.82864100  0.24656900  0.91839800  1
  C  959  1  0.79593300  0.25333100  0.91975800  1
  C  960  1  0.77842100  0.27055000  0.89628000  1
  C  961  1  0.79582700  0.42192500  0.79797500  1
  C  962  1  0.81837900  0.43745500  0.77745600  1
  C  963  1  0.83669300  0.45766900  0.77842100  1
  C  964  1  0.83393100  0.46268100  0.80023100  1
  C  965  1  0.81134000  0.44676300  0.82080100  1
  C  966  1  0.79232700  0.42700500  0.81956500  1
  C  967  1  0.66945400  0.42147600  0.71672800  1
  C  968  1  0.64544900  0.43632200  0.72129700  1
  C  969  1  0.62797700  0.45678000  0.69961400  1
  C  970  1  0.63352800  0.46273900  0.67277600  1
  C  971  1  0.65708400  0.44729400  0.66847600  1
  C  972  1  0.67511600  0.42723700  0.69003700  1
  C  973  1  0.67352500  0.28097800  0.78445800  1
  C  974  1  0.64181300  0.27270300  0.79450400  1
  C  975  1  0.68789600  0.27086000  0.76892900  1
  C  976  1  0.67048600  0.25345400  0.76286300  1
  C  977  1  0.63832400  0.24576200  0.77211400  1
  C  978  1  0.62438500  0.25538300  0.78828500  1
  C  1005  1  0.05454600  0.76398000  0.84322600  1
  C  1006  1  0.07852800  0.78075400  0.82638100  1
  C  1007  1  0.08605700  0.77265000  0.80770500  1
  C  1009  1  0.04684000  0.74529800  0.83517200  1
  C  1010  1  0.02300900  0.72473400  0.84750200  1
  C  1011  1  0.01467000  0.70621000  0.83881700  1
  C  1013  1  0.01368400  0.68412700  0.81571400  1
  C  1014  1  0.99017494  0.67273500  0.83591900  1
  C  1015  1  0.99105694  0.68609700  0.85034000  1
  C  1016  1  0.02095400  0.67598600  0.79658400  1
  C  1017  1  0.04516600  0.68806900  0.77623700  1
  C  1019  1  0.08583900  0.71441700  0.74974700  1
  C  1020  1  0.07725400  0.69633600  0.74112600  1
  C  1021  1  0.05267500  0.68005800  0.75748300  1
  C  1022  1  0.11065200  0.73427300  0.73797300  1
  C  1023  1  0.11851100  0.75308800  0.74640800  1
  C  1025  1  0.11810800  0.77603800  0.76867300  1
  C  1026  1  0.14205400  0.78717300  0.74881300  1
  C  1027  1  0.14267700  0.77276300  0.73544100  1
  C  1028  1  0.10999800  0.78477900  0.78720200  1
  C  1029  1  0.12641000  0.80802100  0.78422800  1
  C  1030  1  0.15852200  0.80631700  0.79348300  1
  C  1031  1  0.17603700  0.82987100  0.78708200  1
  C  1032  1  0.16197000  0.85572200  0.77130600  1
  C  1033  1  0.12925700  0.85709200  0.76318900  1
  C  1034  1  0.11175000  0.83362400  0.76941500  1
  C  1035  1  0.12916800  0.73528700  0.71637200  1
  C  1036  1  0.15169600  0.71475600  0.72135500  1
  C  1037  1  0.17001000  0.71571900  0.70017600  1
  C  1038  1  0.16726500  0.73754200  0.67335800  1
  C  1039  1  0.14469100  0.75812100  0.66871100  1
  C  1040  1  0.12568300  0.75688600  0.68970500  1
  C  1041  1  0.00279000  0.65404100  0.79806300  1
  C  1042  1  0.97877590  0.65861400  0.77865300  1
  C  1043  1  0.96130190  0.63693300  0.77987800  1
  C  1044  1  0.96685890  0.61009000  0.80075200  1
  C  1045  1  0.99041894  0.60578700  0.82049300  1
  C  1046  1  0.00844800  0.62735000  0.81899100  1
  C  1047  1  0.00684600  0.72178100  0.87082100  1
  C  1048  1  0.97513190  0.73182500  0.86904200  1
  C  1049  1  0.02120300  0.70624600  0.89647100  1
  C  1050  1  0.00377600  0.70017400  0.91993900  1
  C  1051  1  0.97161790  0.70944200  0.91836100  1
  C  1052  1  0.95771090  0.72566700  0.89256800  1
  C  1079  1  0.38788700  0.78055100  0.32906000  1
  C  1080  1  0.41183800  0.76368100  0.32913100  1
  C  1081  1  0.41937600  0.74501300  0.35591300  1
  C  1083  1  0.38017000  0.77248600  0.35579800  1
  C  1084  1  0.35632800  0.78480800  0.36403300  1
  C  1085  1  0.34798300  0.77611900  0.39124400  1
  C  1087  1  0.34700600  0.75302000  0.43642900  1
  C  1088  1  0.32349200  0.77322100  0.42761700  1
  C  1089  1  0.32435900  0.78763300  0.39983200  1
  C  1090  1  0.35429000  0.73389900  0.46369900  1
  C  1091  1  0.37851900  0.71356600  0.47196200  1
  C  1093  1  0.41918700  0.68707100  0.47210300  1
  C  1094  1  0.41062600  0.67847100  0.49880700  1
  C  1095  1  0.38604600  0.69482700  0.49872800  1
  C  1096  1  0.44398100  0.67528300  0.46401800  1
  C  1097  1  0.45184000  0.68372000  0.43676800  1
  C  1099  1  0.45144200  0.70599000  0.39155400  1
  C  1100  1  0.47539800  0.68613800  0.40027700  1
  C  1101  1  0.47598400  0.67273400  0.42806000  1
  C  1102  1  0.44332700  0.72451700  0.36428400  1
  C  1103  1  0.45973400  0.72153500  0.34401700  1
  C  1104  1  0.49184400  0.73079500  0.33646800  1
  C  1105  1  0.50935700  0.72440400  0.31930500  1
  C  1106  1  0.49529200  0.70862600  0.30923400  1
  C  1107  1  0.46258200  0.70050600  0.31598200  1
  C  1108  1  0.44505200  0.70676800  0.33318900  1
  C  1109  1  0.46249900  0.65368200  0.48460600  1
  C  1110  1  0.48503700  0.65866700  0.50014600  1
  C  1111  1  0.50335600  0.63748700  0.52035900  1
  C  1112  1  0.50060000  0.61066700  0.52536200  1
  C  1113  1  0.47800500  0.60601600  0.50944800  1
  C  1114  1  0.45901000  0.62701500  0.48967800  1
  C  1115  1  0.33613100  0.73537900  0.48416700  1
  C  1116  1  0.31212900  0.71596200  0.49901700  1
  C  1117  1  0.29465600  0.71719000  0.51947200  1
  C  1118  1  0.30019800  0.73807700  0.52542400  1
  C  1119  1  0.32375800  0.75781700  0.50998200  1
  C  1120  1  0.34178400  0.75631300  0.48992200  1
  C  1121  1  0.34017800  0.80813600  0.34367000  1
  C  1122  1  0.30845300  0.80637700  0.33540300  1
  C  1123  1  0.35453200  0.83378400  0.33357800  1
  C  1124  1  0.33712700  0.85726100  0.31617300  1
  C  1125  1  0.30496900  0.85569800  0.30847700  1
  C  1126  1  0.29104000  0.82991100  0.31805200  1
  C  1153  1  0.95238290  0.69988300  0.94208900  1
  C  1154  1  0.93588290  0.71737800  0.94898800  1
  C  1155  1  0.91561390  0.70627400  0.97210200  1
  C  1156  1  0.91090790  0.67813200  0.98828400  1
  C  1157  1  0.92795490  0.66107200  0.98133500  1
  C  1158  1  0.94830490  0.67172800  0.95870000  1
  C  1161  1  0.88915300  0.66695400  0.01065200  1
  C  1162  1  0.88999100  0.67473300  0.03052400  1
  C  1163  1  0.86982000  0.66213200  0.05341800  1
  C  1164  1  0.84772600  0.64167700  0.05699600  1
  C  1165  1  0.84639800  0.63447000  0.03670500  1
  C  1166  1  0.86668000  0.64685500  0.01400200  1
  C  1175  1  0.28574100  0.87942800  0.29429300  1
  C  1176  1  0.26924400  0.88631700  0.26990100  1
  C  1177  1  0.24898100  0.90943700  0.25787600  1
  C  1178  1  0.24427100  0.92562500  0.26982800  1
  C  1179  1  0.26131800  0.91868700  0.29383400  1
  C  1180  1  0.28168500  0.89606200  0.30581300  1
  C  1183  1  0.22250100  0.94798500  0.25864000  1
  C  1184  1  0.22333000  0.96785300  0.23098700  1
  C  1185  1  0.20314700  0.99074100  0.22069500  1
  C  1186  1  0.18104500  0.99431100  0.23757400  1
  C  1187  1  0.17972200  0.97402000  0.26507200  1
  C  1188  1  0.20001600  0.95132300  0.27538800  1
  C  1197  1  0.61909500  0.23158400  0.76256300  1
  C  1198  1  0.60257300  0.20720400  0.78006200  1
  C  1199  1  0.58230000  0.19519100  0.76896300  1
  C  1200  1  0.57759200  0.20715000  0.74082100  1
  C  1201  1  0.59464500  0.23115400  0.72375800  1
  C  1202  1  0.61502400  0.24312000  0.73440700  1
  C  1205  1  0.55581900  0.19596600  0.72964800  1
  C  1206  1  0.55666900  0.16832100  0.73740800  1
  C  1207  1  0.53646600  0.15802800  0.72482500  1
  C  1208  1  0.51436000  0.17490800  0.70438100  1
  C  1209  1  0.51302400  0.20240200  0.69719100  1
  C  1210  1  0.53333500  0.21271700  0.70956400  1
  C  1219  1  0.95240690  0.17406200  0.05719200  1
  C  1220  1  0.93589590  0.15656200  0.05030600  1
  C  1221  1  0.91562290  0.16765800  0.02719500  1
  C  1222  1  0.91090790  0.19579900  0.01101200  1
  C  1223  1  0.92795190  0.21286600  0.01795200  1
  C  1224  1  0.94831390  0.20221700  0.04057900  1
  C  1227  1  0.88914500  0.20697200  0.98864800  1
  C  1228  1  0.89000100  0.19920900  0.96876500  1
  C  1229  1  0.86981800  0.21179900  0.94587900  1
  C  1230  1  0.84771400  0.23224900  0.94230400  1
  C  1231  1  0.84638600  0.23945600  0.96259600  1
  C  1232  1  0.86666100  0.22706200  0.98530500  1
  C  1241  1  0.28572900  0.99452100  0.70498600  1
  C  1242  1  0.26923700  0.98762400  0.72938400  1
  C  1243  1  0.24896700  0.96451000  0.74139800  1
  C  1244  1  0.24425600  0.94832500  0.72944300  1
  C  1245  1  0.26129800  0.95526900  0.70543400  1
  C  1246  1  0.28165100  0.97790300  0.69345000  1
  C  1249  1  0.22249600  0.92595900  0.74063500  1
  C  1250  1  0.22333500  0.90608900  0.76828700  1
  C  1251  1  0.20316200  0.88319500  0.77858200  1
  C  1252  1  0.18106500  0.87961800  0.76170600  1
  C  1253  1  0.17973400  0.89990800  0.73420700  1
  C  1254  1  0.20002100  0.92261000  0.72389000  1
  C  1263  1  0.61906600  0.64233500  0.23673300  1
  C  1264  1  0.60256500  0.66672800  0.21923500  1
  C  1265  1  0.58230400  0.67874500  0.23033800  1
  C  1266  1  0.57759700  0.66678700  0.25847900  1
  C  1267  1  0.59464200  0.64277900  0.27554000  1
  C  1268  1  0.61500700  0.63080300  0.26488900  1
  C  1271  1  0.55583200  0.67797400  0.26965500  1
  C  1272  1  0.55666000  0.70562700  0.26187100  1
  C  1273  1  0.53648100  0.71591700  0.27447100  1
  C  1274  1  0.51438100  0.69903800  0.29492000  1
  C  1275  1  0.51305700  0.67154000  0.30212600  1
  C  1276  1  0.53334800  0.66122600  0.28974100  1
  C  1285  1  0.61557000  0.39040900  0.34849400  1
  C  1286  1  0.63076400  0.36988200  0.37220300  1
  C  1287  1  0.61156000  0.34980000  0.39314900  1
  C  1288  1  0.57740700  0.34883900  0.39120000  1
  C  1289  1  0.56285900  0.36933400  0.36731300  1
  C  1290  1  0.58143200  0.38972100  0.34657300  1
  C  1293  1  0.55843300  0.32765600  0.41218900  1
  C  1294  1  0.57052500  0.30101100  0.42747200  1
  C  1295  1  0.55190200  0.28020500  0.44780400  1
  C  1296  1  0.51989600  0.28474700  0.45359700  1
  C  1297  1  0.50778300  0.31138800  0.43830300  1
  C  1298  1  0.52664100  0.33232200  0.41829700  1
  C  1307  1  0.94890290  0.28581700  0.19735700  1
  C  1308  1  0.96409390  0.30953000  0.19416700  1
  C  1309  1  0.94488590  0.33047200  0.19330800  1
  C  1310  1  0.91073590  0.32851500  0.19623100  1
  C  1311  1  0.89618900  0.30463100  0.19962100  1
  C  1312  1  0.91476490  0.28389000  0.19997300  1
  C  1315  1  0.89176000  0.34950600  0.19642400  1
  C  1316  1  0.90385190  0.36478600  0.20778700  1
  C  1317  1  0.88522700  0.38512000  0.20826000  1
  C  1318  1  0.85322200  0.39091000  0.19792600  1
  C  1319  1  0.84110600  0.37561200  0.18658700  1
  C  1320  1  0.85996800  0.35561300  0.18565000  1
  C  1329  1  0.28224200  0.13468500  0.45308600  1
  C  1330  1  0.29743500  0.13149600  0.43256300  1
  C  1331  1  0.27822900  0.13062900  0.41248400  1
  C  1332  1  0.24407500  0.13354300  0.41152100  1
  C  1333  1  0.22952800  0.13693400  0.43201600  1
  C  1334  1  0.24810200  0.13729100  0.45240100  1
  C  1337  1  0.22510100  0.13372900  0.39034100  1
  C  1338  1  0.23719500  0.14508100  0.36369800  1
  C  1339  1  0.21856600  0.14556300  0.34289100  1
  C  1340  1  0.18655800  0.13523200  0.34743400  1
  C  1341  1  0.17444200  0.12389600  0.37407400  1
  C  1342  1  0.19330900  0.12295600  0.39500900  1
  C  1351  1  0.61557100  0.48352800  0.65081000  1
  C  1352  1  0.63076400  0.50404600  0.62709700  1
  C  1353  1  0.61156000  0.52412500  0.60615000  1
  C  1354  1  0.57740700  0.52509000  0.60809900  1
  C  1355  1  0.56285900  0.50460000  0.63198500  1
  C  1356  1  0.58143300  0.48421400  0.65273000  1
  C  1359  1  0.55843200  0.54627400  0.58710700  1
  C  1360  1  0.57053100  0.57291400  0.57181300  1
  C  1361  1  0.55190000  0.59372300  0.55148800  1
  C  1362  1  0.51989400  0.58918000  0.54570000  1
  C  1363  1  0.50777800  0.56254200  0.56100200  1
  C  1364  1  0.52664000  0.54160800  0.58100100  1
  C  1373  1  0.94889790  0.58812500  0.80193000  1
  C  1374  1  0.96409190  0.56441700  0.80511200  1
  C  1375  1  0.94488590  0.54347100  0.80597700  1
  C  1376  1  0.91073290  0.54542200  0.80306500  1
  C  1377  1  0.89618700  0.56930900  0.79967300  1
  C  1378  1  0.91476090  0.59004900  0.79932100  1
  C  1381  1  0.89175700  0.52443200  0.80287200  1
  C  1382  1  0.90384890  0.50914700  0.79151400  1
  C  1383  1  0.88522700  0.48881200  0.79104300  1
  C  1384  1  0.85322200  0.48302100  0.80137800  1
  C  1385  1  0.84110600  0.49832000  0.81272000  1
  C  1386  1  0.85996500  0.51832600  0.81364600  1
  C  1395  1  0.28223700  0.73925700  0.54620900  1
  C  1396  1  0.29742500  0.74244600  0.56673200  1
  C  1397  1  0.27821900  0.74330500  0.58681500  1
  C  1398  1  0.24407000  0.74038300  0.58778100  1
  C  1399  1  0.22952300  0.73699200  0.56728700  1
  C  1400  1  0.24809900  0.73664100  0.54689700  1
  C  1403  1  0.22509400  0.74019000  0.60896400  1
  C  1404  1  0.23718500  0.72882700  0.63560800  1
  C  1405  1  0.21856100  0.72835400  0.65641400  1
  C  1406  1  0.18655600  0.73868900  0.65187000  1
  C  1407  1  0.17443700  0.75002700  0.62523200  1
  C  1408  1  0.19330200  0.75096600  0.60429700  1
  N  4  1  0.99960800  0.56559500  0.18523500  1
  N  8  1  0.96072900  0.52272200  0.23243400  1
  N  14  1  0.99894800  0.47973100  0.22792400  1
  N  20  1  0.03788000  0.52246300  0.18084700  1
  N  78  1  0.33292300  0.12253600  0.18545100  1
  N  82  1  0.29405300  0.16974400  0.18111900  1
  N  88  1  0.33229500  0.16525000  0.22860400  1
  N  94  1  0.37121600  0.11816500  0.23295500  1
  N  152  1  0.66625900  0.12277400  0.62827600  1
  N  156  1  0.62738900  0.11843900  0.58540300  1
  N  162  1  0.66563600  0.16591600  0.54240900  1
  N  168  1  0.70456400  0.17026300  0.58514400  1
  N  226  1  0.99963500  0.30833600  0.81405000  1
  N  230  1  0.96071800  0.35120700  0.76687800  1
  N  236  1  0.99895700  0.39420300  0.77136800  1
  N  242  1  0.03790900  0.35147200  0.81843000  1
  N  300  1  0.33294400  0.75138200  0.81386300  1
  N  304  1  0.29406500  0.70418300  0.81818900  1
  N  310  1  0.33228000  0.70869200  0.77068800  1
  N  316  1  0.37121400  0.75577000  0.76634200  1
  N  374  1  0.66625700  0.75116500  0.37102200  1
  N  378  1  0.62738600  0.75549600  0.41389800  1
  N  384  1  0.66562700  0.70801100  0.45688800  1
  N  390  1  0.70455200  0.70366200  0.41415200  1
  N  464  1  0.20692000  0.74559100  0.93293600  1
  N  486  1  0.54026900  0.87025000  0.25775500  1
  N  508  1  0.87359300  0.19505800  0.80827700  1
  N  530  1  0.20693200  0.12835100  0.06636500  1
  N  552  1  0.54027600  0.00367700  0.74154100  1
  N  574  1  0.87358600  0.67888000  0.19102100  1
  N  596  1  0.93156700  0.36881300  0.37427200  1
  N  618  1  0.26489700  0.31160200  0.19315800  1
  N  640  1  0.59823600  0.13049500  0.43149400  1
  N  662  1  0.93156700  0.50511200  0.62502500  1
  N  684  1  0.26489500  0.56234600  0.80611400  1
  N  706  1  0.59822800  0.74345500  0.56779500  1
  N  712  1  0.73305900  0.56559500  0.18523500  1
  N  716  1  0.69418000  0.52272200  0.23243400  1
  N  722  1  0.73239900  0.47973100  0.22792400  1
  N  728  1  0.77133100  0.52246300  0.18084700  1
  N  786  1  0.06637400  0.12253600  0.18545100  1
  N  790  1  0.02750400  0.16974400  0.18111900  1
  N  796  1  0.06574600  0.16525000  0.22860400  1
  N  802  1  0.10466700  0.11816500  0.23295500  1
  N  860  1  0.39971000  0.12277400  0.62827600  1
  N  864  1  0.36084000  0.11843900  0.58540300  1
  N  870  1  0.39908700  0.16591600  0.54240900  1
  N  876  1  0.43801500  0.17026300  0.58514400  1
  N  934  1  0.73308600  0.30833600  0.81405000  1
  N  938  1  0.69416900  0.35120700  0.76687800  1
  N  944  1  0.73240800  0.39420300  0.77136800  1
  N  950  1  0.77136000  0.35147200  0.81843000  1
  N  1008  1  0.06639500  0.75138200  0.81386300  1
  N  1012  1  0.02751600  0.70418300  0.81818900  1
  N  1018  1  0.06573100  0.70869200  0.77068800  1
  N  1024  1  0.10466500  0.75577000  0.76634200  1
  N  1082  1  0.39970800  0.75116500  0.37102200  1
  N  1086  1  0.36083700  0.75549600  0.41389800  1
  N  1092  1  0.39907800  0.70801100  0.45688800  1
  N  1098  1  0.43800300  0.70366200  0.41415200  1
  N  1172  1  0.94037090  0.74559100  0.93293600  1
  N  1194  1  0.27372000  0.87025000  0.25775500  1
  N  1216  1  0.60704400  0.19505800  0.80827700  1
  N  1238  1  0.94038290  0.12835100  0.06636500  1
  N  1260  1  0.27372700  0.00367700  0.74154100  1
  N  1282  1  0.60703700  0.67888000  0.19102100  1
  N  1304  1  0.66501800  0.36881300  0.37427200  1
  N  1326  1  0.99834794  0.31160200  0.19315800  1
  N  1348  1  0.33168700  0.13049500  0.43149400  1
  N  1370  1  0.66501800  0.50511200  0.62502500  1
  N  1392  1  0.99834594  0.56234600  0.80611400  1
  N  1414  1  0.33167900  0.74345500  0.56779500  1
  O  465  1  0.18057800  0.75750000  0.92311600  1
  O  466  1  0.21932700  0.75521700  0.94634100  1
  O  487  1  0.51392100  0.86043300  0.25567400  1
  O  488  1  0.55267800  0.88363800  0.23472300  1
  O  509  1  0.84724700  0.19299200  0.82017100  1
  O  510  1  0.88598300  0.17201900  0.81792000  1
  O  531  1  0.18059500  0.11644300  0.07619400  1
  O  532  1  0.21933600  0.11871600  0.05296600  1
  O  553  1  0.51393800  0.01349700  0.74363400  1
  O  554  1  0.55269000  0.99027700  0.76457000  1
  O  575  1  0.84723900  0.68096100  0.17912500  1
  O  576  1  0.88599400  0.70191200  0.18138200  1
  O  597  1  0.94259300  0.34760500  0.37587500  1
  O  598  1  0.94111600  0.37022000  0.39437300  1
  O  619  1  0.27593000  0.31321000  0.21275900  1
  O  620  1  0.27443700  0.33170200  0.17164700  1
  O  641  1  0.60926100  0.15009800  0.41028300  1
  O  642  1  0.60778500  0.10898500  0.43290400  1
  O  663  1  0.94259600  0.52632300  0.62341400  1
  O  664  1  0.94111400  0.50369600  0.60493000  1
  O  685  1  0.27592000  0.56074300  0.78650800  1
  O  686  1  0.27444200  0.54224400  0.82762400  1
  O  707  1  0.60926100  0.72385400  0.58900500  1
  O  708  1  0.60776800  0.76496700  0.56638500  1
  O  1173  1  0.91402890  0.75750000  0.92311600  1
  O  1174  1  0.95277790  0.75521700  0.94634100  1
  O  1195  1  0.24737200  0.86043300  0.25567400  1
  O  1196  1  0.28612900  0.88363800  0.23472300  1
  O  1217  1  0.58069800  0.19299200  0.82017100  1
  O  1218  1  0.61943400  0.17201900  0.81792000  1
  O  1239  1  0.91404590  0.11644300  0.07619400  1
  O  1240  1  0.95278690  0.11871600  0.05296600  1
  O  1261  1  0.24738900  0.01349700  0.74363400  1
  O  1262  1  0.28614100  0.99027700  0.76457000  1
  O  1283  1  0.58069000  0.68096100  0.17912500  1
  O  1284  1  0.61944500  0.70191200  0.18138200  1
  O  1305  1  0.67604400  0.34760500  0.37587500  1
  O  1306  1  0.67456700  0.37022000  0.39437300  1
  O  1327  1  0.00938100  0.31321000  0.21275900  1
  O  1328  1  0.00788800  0.33170200  0.17164700  1
  O  1349  1  0.34271200  0.15009800  0.41028300  1
  O  1350  1  0.34123600  0.10898500  0.43290400  1
  O  1371  1  0.67604700  0.52632300  0.62341400  1
  O  1372  1  0.67456500  0.50369600  0.60493000  1
  O  1393  1  0.00937100  0.56074300  0.78650800  1
  O  1394  1  0.00789300  0.54224400  0.82762400  1
  O  1415  1  0.34271200  0.72385400  0.58900500  1
  O  1416  1  0.34121900  0.76496700  0.56638500  1
