# generated using pymatgen
data_H11C15N4O3
_symmetry_space_group_name_H-M   'P 1'
_cell_length_a   40.24210000
_cell_length_b   46.35070000
_cell_length_c   61.24160000
_cell_angle_alpha   89.99310000
_cell_angle_beta   89.45460000
_cell_angle_gamma   89.27940000
_symmetry_Int_Tables_number   1
_chemical_formula_structural   H11C15N4O3
_chemical_formula_sum   'H704 C960 N256 O192'
_cell_volume   114216.65493941
_cell_formula_units_Z   64
loop_
 _symmetry_equiv_pos_site_id
 _symmetry_equiv_pos_as_xyz
  1  'x, y, z'
loop_
 _atom_site_type_symbol
 _atom_site_label
 _atom_site_symmetry_multiplicity
 _atom_site_fract_x
 _atom_site_fract_y
 _atom_site_fract_z
 _atom_site_occupancy
  H  7  1  0.13267800  0.16211000  0.84325600  1
  H  8  1  0.14908500  0.18446900  0.90862500  1
  H  15  1  0.02571700  0.08921600  0.80712900  1
  H  16  1  0.07852200  0.09378900  0.86533100  1
  H  19  1  0.06029200  0.11855800  0.90075200  1
  H  20  1  0.08786900  0.17628500  0.81456200  1
  H  25  1  0.06362300  0.04578400  0.84502500  1
  H  26  1  0.07089500  0.16314300  0.92945500  1
  H  27  1  0.18988900  0.17807400  0.85865100  1
  H  28  1  0.03370900  0.16411700  0.79136800  1
  H  35  1  0.85274700  0.82206200  0.84351800  1
  H  36  1  0.83619000  0.79952300  0.90906900  1
  H  43  1  0.95739500  0.89675400  0.80605400  1
  H  44  1  0.90585500  0.89023700  0.86528100  1
  H  47  1  0.92508900  0.86528600  0.90018700  1
  H  48  1  0.89718500  0.80845700  0.81442200  1
  H  53  1  0.91664000  0.93769000  0.84400300  1
  H  54  1  0.91467700  0.82005800  0.92873600  1
  H  55  1  0.79698300  0.80462100  0.85785400  1
  H  56  1  0.94691900  0.82223100  0.78879200  1
  H  63  1  0.12978700  0.82340800  0.62784500  1
  H  64  1  0.14749200  0.80055900  0.56243600  1
  H  71  1  0.01671100  0.89341700  0.66430100  1
  H  72  1  0.06904000  0.88886600  0.60505900  1
  H  75  1  0.05380600  0.86324300  0.57063000  1
  H  76  1  0.08778900  0.81009000  0.65865600  1
  H  81  1  0.03196100  0.92928100  0.61275900  1
  H  82  1  0.06801400  0.81928900  0.54248100  1
  H  83  1  0.18776400  0.80848000  0.61180200  1
  H  84  1  0.02859100  0.82035800  0.68059600  1
  H  91  1  0.85375100  0.16588300  0.63038800  1
  H  92  1  0.83819900  0.18649300  0.56452000  1
  H  99  1  0.95917900  0.09217200  0.66883900  1
  H  100  1  0.90821900  0.09682900  0.60979500  1
  H  103  1  0.92831200  0.12056300  0.57440200  1
  H  104  1  0.89831100  0.18089000  0.65912500  1
  H  109  1  0.92172300  0.04905700  0.63108000  1
  H  110  1  0.91774700  0.16456800  0.54490100  1
  H  111  1  0.79806300  0.18307200  0.61603100  1
  H  112  1  0.95214700  0.16773800  0.68317300  1
  H  119  1  0.85485100  0.82300300  0.12936400  1
  H  120  1  0.83844100  0.79969300  0.06422100  1
  H  127  1  0.96163300  0.89637800  0.16508500  1
  H  128  1  0.90882100  0.89145800  0.10691000  1
  H  131  1  0.92608300  0.86682900  0.07138000  1
  H  132  1  0.89943400  0.80932700  0.15806500  1
  H  137  1  0.92387500  0.93953800  0.12691000  1
  H  138  1  0.91545300  0.82214500  0.04261500  1
  H  139  1  0.79920200  0.80480600  0.11593800  1
  H  140  1  0.95326700  0.82166100  0.18126800  1
  H  147  1  0.13386000  0.16342100  0.12911300  1
  H  148  1  0.15007900  0.18640200  0.06365600  1
  H  155  1  0.02978500  0.08880600  0.16700200  1
  H  156  1  0.08128600  0.09464400  0.10770600  1
  H  159  1  0.06275300  0.11900500  0.07236300  1
  H  160  1  0.08942500  0.17723800  0.15795200  1
  H  165  1  0.07112500  0.04718400  0.13118700  1
  H  166  1  0.07271500  0.16421200  0.04338100  1
  H  167  1  0.18964000  0.18125400  0.11461500  1
  H  168  1  0.03993000  0.16359300  0.18369300  1
  H  175  1  0.85780100  0.16293500  0.34486200  1
  H  176  1  0.83998500  0.18676700  0.41001800  1
  H  183  1  0.97109500  0.09295300  0.30878600  1
  H  184  1  0.91873700  0.09757800  0.36800700  1
  H  187  1  0.93282400  0.12306700  0.40256500  1
  H  188  1  0.89953000  0.17596800  0.31406900  1
  H  193  1  0.95721500  0.05775000  0.36056900  1
  H  194  1  0.91840800  0.16676800  0.43083800  1
  H  195  1  0.80138300  0.18009800  0.35870200  1
  H  196  1  0.95855200  0.16580400  0.29215800  1
  H  203  1  0.13273500  0.82040700  0.34228800  1
  H  204  1  0.14773400  0.79863200  0.40797000  1
  H  211  1  0.02816900  0.89422900  0.30354100  1
  H  212  1  0.07891300  0.88973000  0.36268500  1
  H  215  1  0.05931300  0.86648100  0.39844400  1
  H  216  1  0.08799700  0.80512300  0.31381800  1
  H  221  1  0.06645900  0.93755600  0.33975700  1
  H  222  1  0.06950100  0.82219500  0.42829900  1
  H  223  1  0.18906100  0.80387600  0.35749200  1
  H  224  1  0.03439500  0.81844900  0.28964500  1
  H  231  1  0.63265800  0.66183500  0.84356200  1
  H  232  1  0.64844000  0.68576900  0.90868800  1
  H  239  1  0.52524000  0.58952900  0.80753200  1
  H  240  1  0.57760400  0.59454000  0.86589400  1
  H  243  1  0.55932800  0.61998900  0.90110200  1
  H  244  1  0.58791100  0.67637200  0.81469300  1
  H  249  1  0.56261800  0.54641000  0.84602800  1
  H  250  1  0.57005200  0.66553400  0.92948600  1
  H  251  1  0.68821800  0.67827700  0.85766400  1
  H  252  1  0.53389900  0.66423400  0.79131000  1
  H  259  1  0.35219800  0.32257500  0.84374200  1
  H  260  1  0.33733000  0.29888100  0.90921500  1
  H  267  1  0.45680400  0.39708600  0.80576700  1
  H  268  1  0.40547100  0.39060000  0.86508900  1
  H  271  1  0.42520100  0.36574300  0.89991600  1
  H  272  1  0.39678800  0.30866700  0.81447500  1
  H  277  1  0.41575400  0.43807600  0.84321200  1
  H  278  1  0.41555500  0.32075900  0.92867600  1
  H  279  1  0.29424000  0.30851900  0.86207300  1
  H  280  1  0.44662900  0.32241400  0.78871900  1
  H  287  1  0.62980400  0.32401200  0.62751400  1
  H  288  1  0.64696100  0.29975800  0.56233600  1
  H  295  1  0.51583900  0.39293700  0.66390800  1
  H  296  1  0.56780100  0.38806400  0.60454000  1
  H  299  1  0.55252200  0.36166300  0.57041900  1
  H  300  1  0.58793400  0.31016900  0.65857300  1
  H  305  1  0.52955000  0.42806600  0.61207900  1
  H  306  1  0.56714200  0.31713700  0.54249100  1
  H  307  1  0.68616900  0.30936700  0.61260400  1
  H  308  1  0.52857200  0.32010600  0.68063100  1
  H  315  1  0.35347700  0.66519000  0.63006500  1
  H  316  1  0.33991900  0.68721800  0.56426500  1
  H  323  1  0.45873900  0.59171600  0.66914000  1
  H  324  1  0.40802100  0.59638300  0.60998900  1
  H  327  1  0.42890800  0.62009100  0.57468500  1
  H  328  1  0.39836800  0.68069700  0.65895300  1
  H  333  1  0.42067500  0.54848800  0.63248100  1
  H  334  1  0.41921000  0.66414200  0.54494100  1
  H  335  1  0.29552900  0.67832100  0.61112100  1
  H  336  1  0.45241200  0.66744700  0.68314700  1
  H  343  1  0.35451100  0.32349200  0.12911800  1
  H  344  1  0.33979400  0.29878600  0.06408000  1
  H  351  1  0.46136700  0.39675000  0.16519000  1
  H  352  1  0.40862300  0.39174100  0.10697600  1
  H  355  1  0.42622400  0.36718800  0.07151200  1
  H  356  1  0.39942000  0.30951500  0.15796900  1
  H  361  1  0.42340000  0.43990400  0.12717000  1
  H  362  1  0.41635800  0.32268200  0.04257600  1
  H  363  1  0.29671500  0.30862500  0.11205200  1
  H  364  1  0.45362800  0.32192700  0.18115800  1
  H  371  1  0.63423300  0.66287500  0.12891700  1
  H  372  1  0.64947100  0.68788300  0.06378200  1
  H  379  1  0.52949900  0.58903400  0.16665400  1
  H  380  1  0.58053700  0.59561000  0.10722300  1
  H  383  1  0.56152300  0.62088200  0.07225300  1
  H  384  1  0.58957400  0.67736600  0.15798200  1
  H  389  1  0.57038700  0.54792700  0.12974800  1
  H  390  1  0.57177500  0.66705900  0.04355100  1
  H  391  1  0.68958100  0.67891300  0.11405900  1
  H  392  1  0.53998700  0.66356500  0.18388400  1
  H  399  1  0.35721300  0.66250600  0.34520100  1
  H  400  1  0.34155900  0.68789800  0.41024200  1
  H  407  1  0.46990400  0.59232900  0.30839900  1
  H  408  1  0.41801800  0.59722200  0.36780600  1
  H  411  1  0.43302600  0.62261000  0.40227600  1
  H  412  1  0.39919200  0.67589900  0.31421600  1
  H  417  1  0.45466000  0.55658500  0.36003800  1
  H  418  1  0.41961300  0.66644300  0.43079100  1
  H  419  1  0.29815400  0.67545800  0.36453500  1
  H  420  1  0.45821900  0.66543100  0.29206500  1
  H  427  1  0.63322300  0.32096700  0.34253600  1
  H  428  1  0.64734100  0.29741800  0.40796200  1
  H  435  1  0.52782400  0.39386600  0.30388400  1
  H  436  1  0.57797200  0.38872100  0.36323600  1
  H  439  1  0.55800400  0.36451500  0.39857400  1
  H  440  1  0.58855800  0.30507600  0.31371500  1
  H  445  1  0.56510400  0.43667800  0.34178300  1
  H  446  1  0.56857900  0.31947400  0.42815200  1
  H  447  1  0.68845300  0.30542800  0.35747100  1
  H  448  1  0.53498600  0.31833500  0.28930500  1
  H  456  1  0.06316900  0.17204200  0.96928400  1
  H  461  1  0.18700300  0.14688100  0.04679400  1
  H  462  1  0.21893500  0.12484500  0.03518900  1
  H  463  1  0.15697200  0.10311200  0.05918200  1
  H  464  1  0.19761800  0.10425000  0.07005700  1
  H  465  1  0.18907300  0.08094800  0.04788500  1
  H  475  1  0.92347300  0.81326300  0.96829400  1
  H  480  1  0.79901900  0.83582600  0.04789300  1
  H  481  1  0.76739700  0.85847000  0.03701800  1
  H  482  1  0.82894000  0.87898500  0.06132100  1
  H  483  1  0.78811300  0.87731700  0.07236100  1
  H  484  1  0.79702400  0.90166700  0.05079800  1
  H  494  1  0.06003700  0.81310000  0.50269800  1
  H  499  1  0.18614600  0.83478400  0.42424100  1
  H  500  1  0.21673600  0.85756900  0.43540900  1
  H  501  1  0.15555600  0.87777100  0.40994400  1
  H  502  1  0.19681300  0.87588100  0.39956400  1
  H  503  1  0.18645800  0.90057900  0.42076000  1
  H  513  1  0.92658800  0.17274400  0.50506700  1
  H  518  1  0.80160400  0.15099300  0.42684700  1
  H  519  1  0.77087500  0.12862000  0.43871200  1
  H  520  1  0.83269400  0.10753200  0.41356300  1
  H  521  1  0.79163900  0.10875400  0.40330700  1
  H  522  1  0.80170400  0.08508200  0.42509500  1
  H  532  1  0.56266300  0.67470700  0.96934900  1
  H  537  1  0.68486300  0.64670200  0.04691700  1
  H  538  1  0.71610400  0.62343700  0.03589400  1
  H  539  1  0.65334200  0.60419700  0.06025400  1
  H  540  1  0.69397200  0.60480700  0.07118900  1
  H  541  1  0.68477800  0.58083700  0.04955000  1
  H  551  1  0.42475800  0.31519800  0.96826300  1
  H  556  1  0.29853600  0.33364200  0.04792900  1
  H  557  1  0.26635400  0.35522400  0.03654900  1
  H  558  1  0.32648200  0.37782800  0.06128500  1
  H  559  1  0.28548700  0.37520100  0.07191500  1
  H  560  1  0.29403700  0.39946100  0.05023000  1
  H  570  1  0.55933400  0.31082800  0.50265400  1
  H  575  1  0.68321000  0.33649900  0.42400400  1
  H  576  1  0.71339300  0.35988900  0.43493400  1
  H  577  1  0.65094300  0.37887900  0.41028900  1
  H  578  1  0.69195300  0.37805700  0.39943800  1
  H  579  1  0.68139200  0.40232400  0.42087500  1
  H  589  1  0.42815600  0.67172300  0.50497200  1
  H  594  1  0.30148600  0.65386300  0.42720600  1
  H  595  1  0.27050900  0.63156300  0.43885800  1
  H  596  1  0.33101800  0.61040500  0.41240700  1
  H  597  1  0.28970600  0.61297400  0.40270400  1
  H  598  1  0.29972000  0.58810200  0.42373100  1
  H  608  1  0.04471400  0.99839600  0.82338200  1
  H  613  1  0.88279800  0.99433600  0.88925700  1
  H  614  1  0.92175100  0.00624800  0.89913300  1
  H  615  1  0.89246700  0.94639700  0.90677700  1
  H  616  1  0.89343100  0.97475800  0.92619600  1
  H  617  1  0.93108800  0.95852400  0.91683400  1
  H  627  1  0.00256400  0.97434000  0.67474900  1
  H  632  1  0.92172200  0.99552000  0.59599300  1
  H  633  1  0.93735600  0.00230700  0.56923400  1
  H  634  1  0.88767900  0.04066400  0.59433700  1
  H  635  1  0.87817200  0.01722000  0.57246400  1
  H  636  1  0.90345000  0.04770700  0.56773500  1
  H  646  1  0.94191300  0.98720900  0.14778700  1
  H  651  1  0.10637700  0.99077600  0.08473400  1
  H  652  1  0.06724500  0.98152300  0.07358300  1
  H  653  1  0.10088000  0.04011500  0.06878700  1
  H  654  1  0.09906200  0.01310800  0.04833100  1
  H  655  1  0.06206200  0.03067400  0.05745600  1
  H  665  1  0.98114300  0.01063400  0.29857400  1
  H  670  1  0.07092100  0.99047600  0.37522800  1
  H  671  1  0.05724900  0.98348200  0.40241000  1
  H  672  1  0.10333400  0.94441700  0.37510100  1
  H  673  1  0.11543200  0.96686300  0.39698400  1
  H  674  1  0.08933900  0.93700100  0.40206200  1
  H  684  1  0.54483000  0.49855800  0.82488100  1
  H  689  1  0.38156100  0.49872400  0.88780600  1
  H  690  1  0.42158600  0.50783400  0.89760300  1
  H  691  1  0.38651800  0.45051700  0.90568900  1
  H  692  1  0.39029600  0.47889900  0.92489600  1
  H  693  1  0.42624600  0.45984400  0.91565100  1
  H  703  1  0.50543600  0.47502400  0.67417600  1
  H  708  1  0.41710900  0.49433400  0.59783000  1
  H  709  1  0.43050400  0.50114600  0.57056200  1
  H  710  1  0.38345400  0.53975400  0.59754600  1
  H  711  1  0.37185300  0.51657100  0.57597800  1
  H  712  1  0.39706500  0.54687400  0.57045200  1
  H  722  1  0.44211000  0.48734600  0.14871300  1
  H  727  1  0.60217400  0.49102400  0.08180000  1
  H  728  1  0.56182200  0.48264400  0.07219100  1
  H  729  1  0.59646000  0.54063000  0.06636200  1
  H  730  1  0.59206000  0.51392000  0.04588800  1
  H  731  1  0.55640000  0.53206400  0.05656600  1
  H  741  1  0.48457600  0.51159800  0.29813000  1
  H  746  1  0.56545900  0.48892700  0.37750900  1
  H  747  1  0.54924100  0.48200100  0.40409800  1
  H  748  1  0.59825700  0.44311100  0.37891000  1
  H  749  1  0.60799200  0.46585000  0.40115600  1
  H  750  1  0.58179900  0.43581300  0.40529400  1
  H  760  1  0.29332500  0.21520500  0.87201200  1
  H  765  1  0.14895200  0.28788000  0.91460100  1
  H  766  1  0.16469500  0.25204300  0.91736400  1
  H  767  1  0.09437200  0.26919900  0.90334000  1
  H  768  1  0.10579300  0.25483700  0.92908300  1
  H  769  1  0.10962900  0.23327200  0.90527700  1
  H  779  1  0.69324500  0.76869700  0.86284000  1
  H  784  1  0.84892500  0.70610700  0.91516900  1
  H  785  1  0.83625400  0.74290500  0.91376600  1
  H  786  1  0.89393500  0.71487100  0.88834100  1
  H  787  1  0.89720900  0.73888100  0.91074700  1
  H  788  1  0.88095000  0.75136400  0.88560000  1
  H  798  1  0.29177300  0.77122100  0.60208200  1
  H  803  1  0.14500400  0.70146600  0.55808100  1
  H  804  1  0.15769000  0.73805400  0.55694600  1
  H  805  1  0.09195400  0.71594300  0.57560900  1
  H  806  1  0.09742500  0.73499800  0.55074100  1
  H  807  1  0.10427600  0.75249200  0.57601400  1
  H  817  1  0.69362900  0.21854500  0.61125500  1
  H  822  1  0.84864700  0.27893800  0.55577500  1
  H  823  1  0.83744000  0.24211500  0.55810200  1
  H  824  1  0.89252100  0.27197100  0.58332300  1
  H  825  1  0.89803600  0.24694400  0.56163900  1
  H  826  1  0.88092200  0.23549800  0.58693400  1
  H  836  1  0.69466200  0.76992300  0.10988100  1
  H  841  1  0.84856300  0.70723400  0.05548000  1
  H  842  1  0.83610100  0.74406400  0.05729700  1
  H  843  1  0.89577500  0.71595500  0.07987600  1
  H  844  1  0.89714700  0.74006600  0.05740000  1
  H  845  1  0.88315300  0.75244100  0.08333600  1
  H  855  1  0.29305200  0.21834500  0.10822600  1
  H  860  1  0.13747500  0.27880000  0.05570700  1
  H  861  1  0.15063300  0.24215400  0.05744600  1
  H  862  1  0.09109300  0.26967200  0.08130000  1
  H  863  1  0.08956300  0.24533600  0.05899100  1
  H  864  1  0.10447400  0.23338500  0.08464300  1
  H  874  1  0.69669500  0.21535600  0.36156700  1
  H  879  1  0.85014400  0.27904500  0.41590500  1
  H  880  1  0.83954500  0.24203500  0.41432900  1
  H  881  1  0.89351700  0.27192000  0.38743700  1
  H  882  1  0.89995600  0.24756200  0.40937900  1
  H  883  1  0.88246300  0.23520500  0.38467100  1
  H  893  1  0.29348000  0.76869400  0.36691600  1
  H  898  1  0.14308400  0.70442600  0.41730900  1
  H  899  1  0.15498200  0.74117900  0.41581300  1
  H  900  1  0.09283000  0.71486800  0.39591400  1
  H  901  1  0.09411500  0.73800900  0.41895000  1
  H  902  1  0.10463100  0.75132000  0.39266600  1
  H  912  1  0.98265500  0.17819800  0.72158700  1
  H  917  1  0.95550100  0.04001400  0.76249400  1
  H  918  1  0.93854700  0.07540800  0.76574700  1
  H  919  1  0.95993300  0.03471000  0.80241800  1
  H  920  1  0.91853100  0.04382800  0.79535200  1
  H  921  1  0.94480000  0.07049500  0.80637800  1
  H  931  1  0.99144400  0.81147600  0.71602000  1
  H  936  1  0.03542400  0.94457200  0.78118800  1
  H  937  1  0.06062700  0.91629000  0.77000000  1
  H  938  1  0.03702600  0.91937500  0.81760100  1
  H  939  1  0.07726600  0.92854400  0.80802000  1
  H  940  1  0.06342600  0.89246800  0.80602800  1
  H  950  1  0.00382800  0.80784400  0.25120700  1
  H  955  1  0.03513600  0.94310400  0.20935400  1
  H  956  1  0.04882000  0.90702000  0.20441800  1
  H  957  1  0.02832700  0.95116900  0.16986100  1
  H  958  1  0.06936400  0.93907200  0.17526800  1
  H  959  1  0.04012400  0.91485200  0.16425600  1
  H  969  1  0.99565700  0.17464100  0.25669000  1
  H  974  1  0.95840000  0.03906000  0.19013000  1
  H  975  1  0.92894600  0.06268200  0.20295000  1
  H  976  1  0.95145500  0.06700900  0.15519400  1
  H  977  1  0.91360400  0.05178100  0.16441700  1
  H  978  1  0.92099900  0.08907000  0.16828400  1
  H  988  1  0.48325600  0.67801700  0.72139400  1
  H  993  1  0.45171400  0.54230100  0.76342500  1
  H  994  1  0.43712900  0.57833800  0.76737000  1
  H  995  1  0.45709500  0.53581300  0.80318900  1
  H  996  1  0.41607000  0.54704300  0.79684000  1
  H  997  1  0.44435100  0.57213400  0.80782300  1
  H  1007  1  0.49134500  0.31126800  0.71604400  1
  H  1012  1  0.53109600  0.44626100  0.78137700  1
  H  1013  1  0.55864600  0.42039600  0.76923300  1
  H  1014  1  0.53586800  0.41961700  0.81704900  1
  H  1015  1  0.57486000  0.43208800  0.80744900  1
  H  1016  1  0.56448300  0.39521000  0.80458000  1
  H  1026  1  0.50469000  0.30789800  0.25084600  1
  H  1031  1  0.53169100  0.44526700  0.21035900  1
  H  1032  1  0.54736500  0.40970500  0.20573700  1
  H  1033  1  0.52547500  0.45275200  0.17075000  1
  H  1034  1  0.56692700  0.44231100  0.17665000  1
  H  1035  1  0.53927300  0.41687000  0.16544100  1
  H  1045  1  0.49547000  0.67428300  0.25671000  1
  H  1050  1  0.45158100  0.54122200  0.19124300  1
  H  1051  1  0.42607300  0.56929900  0.20243200  1
  H  1052  1  0.44999300  0.56654700  0.15488600  1
  H  1053  1  0.40977500  0.55708000  0.16433600  1
  H  1054  1  0.42328900  0.59324400  0.16644500  1
  H  1063  1  0.50542200  0.16211000  0.84325600  1
  H  1064  1  0.52182900  0.18446900  0.90862500  1
  H  1071  1  0.39846100  0.08921600  0.80712900  1
  H  1072  1  0.45126600  0.09378900  0.86533100  1
  H  1075  1  0.43303600  0.11855800  0.90075200  1
  H  1076  1  0.46061300  0.17628500  0.81456200  1
  H  1081  1  0.43636700  0.04578400  0.84502500  1
  H  1082  1  0.44363900  0.16314300  0.92945500  1
  H  1083  1  0.56263300  0.17807400  0.85865100  1
  H  1084  1  0.40645300  0.16411700  0.79136800  1
  H  1091  1  0.22549100  0.82206200  0.84351800  1
  H  1092  1  0.20893400  0.79952300  0.90906900  1
  H  1099  1  0.33013900  0.89675400  0.80605400  1
  H  1100  1  0.27859900  0.89023700  0.86528100  1
  H  1103  1  0.29783300  0.86528600  0.90018700  1
  H  1104  1  0.26992900  0.80845700  0.81442200  1
  H  1109  1  0.28938400  0.93769000  0.84400300  1
  H  1110  1  0.28742100  0.82005800  0.92873600  1
  H  1111  1  0.16972700  0.80462100  0.85785400  1
  H  1112  1  0.31966300  0.82223100  0.78879200  1
  H  1119  1  0.50253100  0.82340800  0.62784500  1
  H  1120  1  0.52023600  0.80055900  0.56243600  1
  H  1127  1  0.38945500  0.89341700  0.66430100  1
  H  1128  1  0.44178400  0.88886600  0.60505900  1
  H  1131  1  0.42655000  0.86324300  0.57063000  1
  H  1132  1  0.46053300  0.81009000  0.65865600  1
  H  1137  1  0.40470500  0.92928100  0.61275900  1
  H  1138  1  0.44075800  0.81928900  0.54248100  1
  H  1139  1  0.56050800  0.80848000  0.61180200  1
  H  1140  1  0.40133500  0.82035800  0.68059600  1
  H  1147  1  0.22649500  0.16588300  0.63038800  1
  H  1148  1  0.21094300  0.18649300  0.56452000  1
  H  1155  1  0.33192300  0.09217200  0.66883900  1
  H  1156  1  0.28096300  0.09682900  0.60979500  1
  H  1159  1  0.30105600  0.12056300  0.57440200  1
  H  1160  1  0.27105500  0.18089000  0.65912500  1
  H  1165  1  0.29446700  0.04905700  0.63108000  1
  H  1166  1  0.29049100  0.16456800  0.54490100  1
  H  1167  1  0.17080700  0.18307200  0.61603100  1
  H  1168  1  0.32489100  0.16773800  0.68317300  1
  H  1175  1  0.22759500  0.82300300  0.12936400  1
  H  1176  1  0.21118500  0.79969300  0.06422100  1
  H  1183  1  0.33437700  0.89637800  0.16508500  1
  H  1184  1  0.28156500  0.89145800  0.10691000  1
  H  1187  1  0.29882700  0.86682900  0.07138000  1
  H  1188  1  0.27217800  0.80932700  0.15806500  1
  H  1193  1  0.29661900  0.93953800  0.12691000  1
  H  1194  1  0.28819700  0.82214500  0.04261500  1
  H  1195  1  0.17194600  0.80480600  0.11593800  1
  H  1196  1  0.32601100  0.82166100  0.18126800  1
  H  1203  1  0.50660400  0.16342100  0.12911300  1
  H  1204  1  0.52282300  0.18640200  0.06365600  1
  H  1211  1  0.40252900  0.08880600  0.16700200  1
  H  1212  1  0.45403000  0.09464400  0.10770600  1
  H  1215  1  0.43549700  0.11900500  0.07236300  1
  H  1216  1  0.46216900  0.17723800  0.15795200  1
  H  1221  1  0.44386900  0.04718400  0.13118700  1
  H  1222  1  0.44545900  0.16421200  0.04338100  1
  H  1223  1  0.56238400  0.18125400  0.11461500  1
  H  1224  1  0.41267400  0.16359300  0.18369300  1
  H  1231  1  0.23054500  0.16293500  0.34486200  1
  H  1232  1  0.21272900  0.18676700  0.41001800  1
  H  1239  1  0.34383900  0.09295300  0.30878600  1
  H  1240  1  0.29148100  0.09757800  0.36800700  1
  H  1243  1  0.30556800  0.12306700  0.40256500  1
  H  1244  1  0.27227400  0.17596800  0.31406900  1
  H  1249  1  0.32995900  0.05775000  0.36056900  1
  H  1250  1  0.29115200  0.16676800  0.43083800  1
  H  1251  1  0.17412700  0.18009800  0.35870200  1
  H  1252  1  0.33129600  0.16580400  0.29215800  1
  H  1259  1  0.50547900  0.82040700  0.34228800  1
  H  1260  1  0.52047800  0.79863200  0.40797000  1
  H  1267  1  0.40091300  0.89422900  0.30354100  1
  H  1268  1  0.45165700  0.88973000  0.36268500  1
  H  1271  1  0.43205700  0.86648100  0.39844400  1
  H  1272  1  0.46074100  0.80512300  0.31381800  1
  H  1277  1  0.43920300  0.93755600  0.33975700  1
  H  1278  1  0.44224500  0.82219500  0.42829900  1
  H  1279  1  0.56180500  0.80387600  0.35749200  1
  H  1280  1  0.40713900  0.81844900  0.28964500  1
  H  1287  1  0.00540197  0.66183500  0.84356200  1
  H  1288  1  0.02118400  0.68576900  0.90868800  1
  H  1295  1  0.89798400  0.58952900  0.80753200  1
  H  1296  1  0.95034800  0.59454000  0.86589400  1
  H  1299  1  0.93207200  0.61998900  0.90110200  1
  H  1300  1  0.96065500  0.67637200  0.81469300  1
  H  1305  1  0.93536200  0.54641000  0.84602800  1
  H  1306  1  0.94279600  0.66553400  0.92948600  1
  H  1307  1  0.06096200  0.67827700  0.85766400  1
  H  1308  1  0.90664300  0.66423400  0.79131000  1
  H  1315  1  0.72494200  0.32257500  0.84374200  1
  H  1316  1  0.71007400  0.29888100  0.90921500  1
  H  1323  1  0.82954800  0.39708600  0.80576700  1
  H  1324  1  0.77821500  0.39060000  0.86508900  1
  H  1327  1  0.79794500  0.36574300  0.89991600  1
  H  1328  1  0.76953200  0.30866700  0.81447500  1
  H  1333  1  0.78849800  0.43807600  0.84321200  1
  H  1334  1  0.78829900  0.32075900  0.92867600  1
  H  1335  1  0.66698400  0.30851900  0.86207300  1
  H  1336  1  0.81937300  0.32241400  0.78871900  1
  H  1343  1  0.00254797  0.32401200  0.62751400  1
  H  1344  1  0.01970500  0.29975800  0.56233600  1
  H  1351  1  0.88858300  0.39293700  0.66390800  1
  H  1352  1  0.94054500  0.38806400  0.60454000  1
  H  1355  1  0.92526600  0.36166300  0.57041900  1
  H  1356  1  0.96067800  0.31016900  0.65857300  1
  H  1361  1  0.90229400  0.42806600  0.61207900  1
  H  1362  1  0.93988600  0.31713700  0.54249100  1
  H  1363  1  0.05891300  0.30936700  0.61260400  1
  H  1364  1  0.90131600  0.32010600  0.68063100  1
  H  1371  1  0.72622100  0.66519000  0.63006500  1
  H  1372  1  0.71266300  0.68721800  0.56426500  1
  H  1379  1  0.83148300  0.59171600  0.66914000  1
  H  1380  1  0.78076500  0.59638300  0.60998900  1
  H  1383  1  0.80165200  0.62009100  0.57468500  1
  H  1384  1  0.77111200  0.68069700  0.65895300  1
  H  1389  1  0.79341900  0.54848800  0.63248100  1
  H  1390  1  0.79195400  0.66414200  0.54494100  1
  H  1391  1  0.66827300  0.67832100  0.61112100  1
  H  1392  1  0.82515600  0.66744700  0.68314700  1
  H  1399  1  0.72725500  0.32349200  0.12911800  1
  H  1400  1  0.71253800  0.29878600  0.06408000  1
  H  1407  1  0.83411100  0.39675000  0.16519000  1
  H  1408  1  0.78136700  0.39174100  0.10697600  1
  H  1411  1  0.79896800  0.36718800  0.07151200  1
  H  1412  1  0.77216400  0.30951500  0.15796900  1
  H  1417  1  0.79614400  0.43990400  0.12717000  1
  H  1418  1  0.78910200  0.32268200  0.04257600  1
  H  1419  1  0.66945900  0.30862500  0.11205200  1
  H  1420  1  0.82637200  0.32192700  0.18115800  1
  H  1427  1  0.00697697  0.66287500  0.12891700  1
  H  1428  1  0.02221500  0.68788300  0.06378200  1
  H  1435  1  0.90224300  0.58903400  0.16665400  1
  H  1436  1  0.95328100  0.59561000  0.10722300  1
  H  1439  1  0.93426700  0.62088200  0.07225300  1
  H  1440  1  0.96231800  0.67736600  0.15798200  1
  H  1445  1  0.94313100  0.54792700  0.12974800  1
  H  1446  1  0.94451900  0.66705900  0.04355100  1
  H  1447  1  0.06232500  0.67891300  0.11405900  1
  H  1448  1  0.91273100  0.66356500  0.18388400  1
  H  1455  1  0.72995700  0.66250600  0.34520100  1
  H  1456  1  0.71430300  0.68789800  0.41024200  1
  H  1463  1  0.84264800  0.59232900  0.30839900  1
  H  1464  1  0.79076200  0.59722200  0.36780600  1
  H  1467  1  0.80577000  0.62261000  0.40227600  1
  H  1468  1  0.77193600  0.67589900  0.31421600  1
  H  1473  1  0.82740400  0.55658500  0.36003800  1
  H  1474  1  0.79235700  0.66644300  0.43079100  1
  H  1475  1  0.67089800  0.67545800  0.36453500  1
  H  1476  1  0.83096300  0.66543100  0.29206500  1
  H  1483  1  0.00596697  0.32096700  0.34253600  1
  H  1484  1  0.02008500  0.29741800  0.40796200  1
  H  1491  1  0.90056800  0.39386600  0.30388400  1
  H  1492  1  0.95071600  0.38872100  0.36323600  1
  H  1495  1  0.93074800  0.36451500  0.39857400  1
  H  1496  1  0.96130200  0.30507600  0.31371500  1
  H  1501  1  0.93784800  0.43667800  0.34178300  1
  H  1502  1  0.94132300  0.31947400  0.42815200  1
  H  1503  1  0.06119700  0.30542800  0.35747100  1
  H  1504  1  0.90773000  0.31833500  0.28930500  1
  H  1512  1  0.43591300  0.17204200  0.96928400  1
  H  1517  1  0.55974700  0.14688100  0.04679400  1
  H  1518  1  0.59167900  0.12484500  0.03518900  1
  H  1519  1  0.52971600  0.10311200  0.05918200  1
  H  1520  1  0.57036200  0.10425000  0.07005700  1
  H  1521  1  0.56181700  0.08094800  0.04788500  1
  H  1531  1  0.29621700  0.81326300  0.96829400  1
  H  1536  1  0.17176300  0.83582600  0.04789300  1
  H  1537  1  0.14014100  0.85847000  0.03701800  1
  H  1538  1  0.20168400  0.87898500  0.06132100  1
  H  1539  1  0.16085700  0.87731700  0.07236100  1
  H  1540  1  0.16976800  0.90166700  0.05079800  1
  H  1550  1  0.43278100  0.81310000  0.50269800  1
  H  1555  1  0.55889000  0.83478400  0.42424100  1
  H  1556  1  0.58948000  0.85756900  0.43540900  1
  H  1557  1  0.52830000  0.87777100  0.40994400  1
  H  1558  1  0.56955700  0.87588100  0.39956400  1
  H  1559  1  0.55920200  0.90057900  0.42076000  1
  H  1569  1  0.29933200  0.17274400  0.50506700  1
  H  1574  1  0.17434800  0.15099300  0.42684700  1
  H  1575  1  0.14361900  0.12862000  0.43871200  1
  H  1576  1  0.20543800  0.10753200  0.41356300  1
  H  1577  1  0.16438300  0.10875400  0.40330700  1
  H  1578  1  0.17444800  0.08508200  0.42509500  1
  H  1588  1  0.93540700  0.67470700  0.96934900  1
  H  1593  1  0.05760700  0.64670200  0.04691700  1
  H  1594  1  0.08884800  0.62343700  0.03589400  1
  H  1595  1  0.02608600  0.60419700  0.06025400  1
  H  1596  1  0.06671600  0.60480700  0.07118900  1
  H  1597  1  0.05752200  0.58083700  0.04955000  1
  H  1607  1  0.79750200  0.31519800  0.96826300  1
  H  1612  1  0.67128000  0.33364200  0.04792900  1
  H  1613  1  0.63909800  0.35522400  0.03654900  1
  H  1614  1  0.69922600  0.37782800  0.06128500  1
  H  1615  1  0.65823100  0.37520100  0.07191500  1
  H  1616  1  0.66678100  0.39946100  0.05023000  1
  H  1626  1  0.93207800  0.31082800  0.50265400  1
  H  1631  1  0.05595400  0.33649900  0.42400400  1
  H  1632  1  0.08613700  0.35988900  0.43493400  1
  H  1633  1  0.02368700  0.37887900  0.41028900  1
  H  1634  1  0.06469700  0.37805700  0.39943800  1
  H  1635  1  0.05413600  0.40232400  0.42087500  1
  H  1645  1  0.80090000  0.67172300  0.50497200  1
  H  1650  1  0.67423000  0.65386300  0.42720600  1
  H  1651  1  0.64325300  0.63156300  0.43885800  1
  H  1652  1  0.70376200  0.61040500  0.41240700  1
  H  1653  1  0.66245000  0.61297400  0.40270400  1
  H  1654  1  0.67246400  0.58810200  0.42373100  1
  H  1664  1  0.41745800  0.99839600  0.82338200  1
  H  1669  1  0.25554200  0.99433600  0.88925700  1
  H  1670  1  0.29449500  0.00624800  0.89913300  1
  H  1671  1  0.26521100  0.94639700  0.90677700  1
  H  1672  1  0.26617500  0.97475800  0.92619600  1
  H  1673  1  0.30383200  0.95852400  0.91683400  1
  H  1683  1  0.37530800  0.97434000  0.67474900  1
  H  1688  1  0.29446600  0.99552000  0.59599300  1
  H  1689  1  0.31010000  0.00230700  0.56923400  1
  H  1690  1  0.26042300  0.04066400  0.59433700  1
  H  1691  1  0.25091600  0.01722000  0.57246400  1
  H  1692  1  0.27619400  0.04770700  0.56773500  1
  H  1702  1  0.31465700  0.98720900  0.14778700  1
  H  1707  1  0.47912100  0.99077600  0.08473400  1
  H  1708  1  0.43998900  0.98152300  0.07358300  1
  H  1709  1  0.47362400  0.04011500  0.06878700  1
  H  1710  1  0.47180600  0.01310800  0.04833100  1
  H  1711  1  0.43480600  0.03067400  0.05745600  1
  H  1721  1  0.35388700  0.01063400  0.29857400  1
  H  1726  1  0.44366500  0.99047600  0.37522800  1
  H  1727  1  0.42999300  0.98348200  0.40241000  1
  H  1728  1  0.47607800  0.94441700  0.37510100  1
  H  1729  1  0.48817600  0.96686300  0.39698400  1
  H  1730  1  0.46208300  0.93700100  0.40206200  1
  H  1740  1  0.91757400  0.49855800  0.82488100  1
  H  1745  1  0.75430500  0.49872400  0.88780600  1
  H  1746  1  0.79433000  0.50783400  0.89760300  1
  H  1747  1  0.75926200  0.45051700  0.90568900  1
  H  1748  1  0.76304000  0.47889900  0.92489600  1
  H  1749  1  0.79899000  0.45984400  0.91565100  1
  H  1759  1  0.87818000  0.47502400  0.67417600  1
  H  1764  1  0.78985300  0.49433400  0.59783000  1
  H  1765  1  0.80324800  0.50114600  0.57056200  1
  H  1766  1  0.75619800  0.53975400  0.59754600  1
  H  1767  1  0.74459700  0.51657100  0.57597800  1
  H  1768  1  0.76980900  0.54687400  0.57045200  1
  H  1778  1  0.81485400  0.48734600  0.14871300  1
  H  1783  1  0.97491800  0.49102400  0.08180000  1
  H  1784  1  0.93456600  0.48264400  0.07219100  1
  H  1785  1  0.96920400  0.54063000  0.06636200  1
  H  1786  1  0.96480400  0.51392000  0.04588800  1
  H  1787  1  0.92914400  0.53206400  0.05656600  1
  H  1797  1  0.85732000  0.51159800  0.29813000  1
  H  1802  1  0.93820300  0.48892700  0.37750900  1
  H  1803  1  0.92198500  0.48200100  0.40409800  1
  H  1804  1  0.97100100  0.44311100  0.37891000  1
  H  1805  1  0.98073600  0.46585000  0.40115600  1
  H  1806  1  0.95454300  0.43581300  0.40529400  1
  H  1816  1  0.66606900  0.21520500  0.87201200  1
  H  1821  1  0.52169600  0.28788000  0.91460100  1
  H  1822  1  0.53743900  0.25204300  0.91736400  1
  H  1823  1  0.46711600  0.26919900  0.90334000  1
  H  1824  1  0.47853700  0.25483700  0.92908300  1
  H  1825  1  0.48237300  0.23327200  0.90527700  1
  H  1835  1  0.06598900  0.76869700  0.86284000  1
  H  1840  1  0.22166900  0.70610700  0.91516900  1
  H  1841  1  0.20899800  0.74290500  0.91376600  1
  H  1842  1  0.26667900  0.71487100  0.88834100  1
  H  1843  1  0.26995300  0.73888100  0.91074700  1
  H  1844  1  0.25369400  0.75136400  0.88560000  1
  H  1854  1  0.66451700  0.77122100  0.60208200  1
  H  1859  1  0.51774800  0.70146600  0.55808100  1
  H  1860  1  0.53043400  0.73805400  0.55694600  1
  H  1861  1  0.46469800  0.71594300  0.57560900  1
  H  1862  1  0.47016900  0.73499800  0.55074100  1
  H  1863  1  0.47702000  0.75249200  0.57601400  1
  H  1873  1  0.06637300  0.21854500  0.61125500  1
  H  1878  1  0.22139100  0.27893800  0.55577500  1
  H  1879  1  0.21018400  0.24211500  0.55810200  1
  H  1880  1  0.26526500  0.27197100  0.58332300  1
  H  1881  1  0.27078000  0.24694400  0.56163900  1
  H  1882  1  0.25366600  0.23549800  0.58693400  1
  H  1892  1  0.06740600  0.76992300  0.10988100  1
  H  1897  1  0.22130700  0.70723400  0.05548000  1
  H  1898  1  0.20884500  0.74406400  0.05729700  1
  H  1899  1  0.26851900  0.71595500  0.07987600  1
  H  1900  1  0.26989100  0.74006600  0.05740000  1
  H  1901  1  0.25589700  0.75244100  0.08333600  1
  H  1911  1  0.66579600  0.21834500  0.10822600  1
  H  1916  1  0.51021900  0.27880000  0.05570700  1
  H  1917  1  0.52337700  0.24215400  0.05744600  1
  H  1918  1  0.46383700  0.26967200  0.08130000  1
  H  1919  1  0.46230700  0.24533600  0.05899100  1
  H  1920  1  0.47721800  0.23338500  0.08464300  1
  H  1930  1  0.06943900  0.21535600  0.36156700  1
  H  1935  1  0.22288800  0.27904500  0.41590500  1
  H  1936  1  0.21228900  0.24203500  0.41432900  1
  H  1937  1  0.26626100  0.27192000  0.38743700  1
  H  1938  1  0.27270000  0.24756200  0.40937900  1
  H  1939  1  0.25520700  0.23520500  0.38467100  1
  H  1949  1  0.66622400  0.76869400  0.36691600  1
  H  1954  1  0.51582800  0.70442600  0.41730900  1
  H  1955  1  0.52772600  0.74117900  0.41581300  1
  H  1956  1  0.46557400  0.71486800  0.39591400  1
  H  1957  1  0.46685900  0.73800900  0.41895000  1
  H  1958  1  0.47737500  0.75132000  0.39266600  1
  H  1968  1  0.35539900  0.17819800  0.72158700  1
  H  1973  1  0.32824500  0.04001400  0.76249400  1
  H  1974  1  0.31129100  0.07540800  0.76574700  1
  H  1975  1  0.33267700  0.03471000  0.80241800  1
  H  1976  1  0.29127500  0.04382800  0.79535200  1
  H  1977  1  0.31754400  0.07049500  0.80637800  1
  H  1987  1  0.36418800  0.81147600  0.71602000  1
  H  1992  1  0.40816800  0.94457200  0.78118800  1
  H  1993  1  0.43337100  0.91629000  0.77000000  1
  H  1994  1  0.40977000  0.91937500  0.81760100  1
  H  1995  1  0.45001000  0.92854400  0.80802000  1
  H  1996  1  0.43617000  0.89246800  0.80602800  1
  H  2006  1  0.37657200  0.80784400  0.25120700  1
  H  2011  1  0.40788000  0.94310400  0.20935400  1
  H  2012  1  0.42156400  0.90702000  0.20441800  1
  H  2013  1  0.40107100  0.95116900  0.16986100  1
  H  2014  1  0.44210800  0.93907200  0.17526800  1
  H  2015  1  0.41286800  0.91485200  0.16425600  1
  H  2025  1  0.36840100  0.17464100  0.25669000  1
  H  2030  1  0.33114400  0.03906000  0.19013000  1
  H  2031  1  0.30169000  0.06268200  0.20295000  1
  H  2032  1  0.32419900  0.06700900  0.15519400  1
  H  2033  1  0.28634800  0.05178100  0.16441700  1
  H  2034  1  0.29374300  0.08907000  0.16828400  1
  H  2044  1  0.85600000  0.67801700  0.72139400  1
  H  2049  1  0.82445800  0.54230100  0.76342500  1
  H  2050  1  0.80987300  0.57833800  0.76737000  1
  H  2051  1  0.82983900  0.53581300  0.80318900  1
  H  2052  1  0.78881400  0.54704300  0.79684000  1
  H  2053  1  0.81709500  0.57213400  0.80782300  1
  H  2063  1  0.86408900  0.31126800  0.71604400  1
  H  2068  1  0.90384000  0.44626100  0.78137700  1
  H  2069  1  0.93139000  0.42039600  0.76923300  1
  H  2070  1  0.90861200  0.41961700  0.81704900  1
  H  2071  1  0.94760400  0.43208800  0.80744900  1
  H  2072  1  0.93722700  0.39521000  0.80458000  1
  H  2082  1  0.87743400  0.30789800  0.25084600  1
  H  2087  1  0.90443500  0.44526700  0.21035900  1
  H  2088  1  0.92010900  0.40970500  0.20573700  1
  H  2089  1  0.89821900  0.45275200  0.17075000  1
  H  2090  1  0.93967100  0.44231100  0.17665000  1
  H  2091  1  0.91201700  0.41687000  0.16544100  1
  H  2101  1  0.86821400  0.67428300  0.25671000  1
  H  2106  1  0.82432500  0.54122200  0.19124300  1
  H  2107  1  0.79881700  0.56929900  0.20243200  1
  H  2108  1  0.82273700  0.56654700  0.15488600  1
  H  2109  1  0.78251900  0.55708000  0.16433600  1
  H  2110  1  0.79603300  0.59324400  0.16644500  1
  C  1  1  0.09450100  0.14882200  0.86481100  1
  C  2  1  0.12472700  0.16252700  0.85916800  1
  C  3  1  0.14475300  0.17612500  0.87494100  1
  C  4  1  0.13450600  0.17507900  0.89707400  1
  C  5  1  0.10472300  0.16160200  0.90374100  1
  C  6  1  0.08493000  0.14862400  0.88732500  1
  C  9  1  0.07584700  0.13354400  0.84840000  1
  C  10  1  0.06415300  0.14641900  0.82864300  1
  C  11  1  0.04542200  0.13059500  0.81301400  1
  C  12  1  0.03895000  0.10127800  0.81787400  1
  C  13  1  0.05055200  0.08761700  0.83695900  1
  C  14  1  0.06936900  0.10386800  0.85174700  1
  C  21  1  0.04485900  0.05850100  0.84050600  1
  C  22  1  0.09494300  0.16184400  0.92582100  1
  C  23  1  0.17503800  0.18843400  0.86914600  1
  C  24  1  0.03316100  0.14292200  0.79348400  1
  C  29  1  0.89089300  0.83516300  0.86463300  1
  C  30  1  0.86065400  0.82152400  0.85933900  1
  C  31  1  0.84048100  0.80794900  0.87531900  1
  C  32  1  0.85077900  0.80887100  0.89733400  1
  C  33  1  0.88065600  0.82220900  0.90362700  1
  C  34  1  0.90047000  0.83524200  0.88701000  1
  C  37  1  0.90939400  0.85075000  0.84809300  1
  C  38  1  0.92105900  0.83836200  0.82802600  1
  C  39  1  0.93930100  0.85469400  0.81219900  1
  C  40  1  0.94517400  0.88411300  0.81711600  1
  C  41  1  0.93353600  0.89723400  0.83653300  1
  C  42  1  0.91533600  0.88044600  0.85155000  1
  C  49  1  0.93688600  0.92660700  0.83995400  1
  C  50  1  0.89062000  0.82185300  0.92553000  1
  C  51  1  0.81032500  0.79551200  0.86961400  1
  C  52  1  0.95080400  0.84282400  0.79216600  1
  C  57  1  0.09064700  0.83520600  0.60674300  1
  C  58  1  0.12178000  0.82252500  0.61206000  1
  C  59  1  0.14257100  0.80926300  0.59611400  1
  C  60  1  0.13234100  0.80975100  0.57409500  1
  C  61  1  0.10166600  0.82225300  0.56775000  1
  C  62  1  0.08097100  0.83472400  0.58435700  1
  C  65  1  0.07121200  0.85027200  0.62332400  1
  C  66  1  0.06159800  0.83796400  0.64379300  1
  C  67  1  0.04182000  0.85365300  0.65939200  1
  C  68  1  0.03192300  0.88212800  0.65380500  1
  C  69  1  0.04140200  0.89536500  0.63395400  1
  C  70  1  0.06144700  0.87922700  0.61925600  1
  C  77  1  0.03033700  0.92297300  0.62824700  1
  C  78  1  0.09191400  0.82157300  0.54580400  1
  C  79  1  0.17334700  0.79758200  0.60173000  1
  C  80  1  0.03047700  0.84159300  0.67923400  1
  C  85  1  0.89271200  0.15209900  0.60938300  1
  C  86  1  0.86201800  0.16592600  0.61453700  1
  C  87  1  0.84188900  0.17898300  0.59836300  1
  C  88  1  0.85278200  0.17746800  0.57635900  1
  C  89  1  0.88318000  0.16394400  0.57020200  1
  C  90  1  0.90286300  0.15127800  0.58699700  1
  C  93  1  0.91095100  0.13691000  0.62618300  1
  C  94  1  0.92222200  0.14999400  0.64587000  1
  C  95  1  0.94030700  0.13403200  0.66197700  1
  C  96  1  0.94641500  0.10437200  0.65770900  1
  C  97  1  0.93514200  0.09061100  0.63868000  1
  C  98  1  0.91708600  0.10698500  0.62335000  1
  C  105  1  0.94053500  0.06132700  0.63558100  1
  C  106  1  0.89361000  0.16374300  0.54825200  1
  C  107  1  0.81129100  0.19158100  0.60391800  1
  C  108  1  0.95233400  0.14647800  0.68141800  1
  C  113  1  0.89270200  0.83642600  0.10763800  1
  C  114  1  0.86263200  0.82254300  0.11342000  1
  C  115  1  0.84255700  0.80865000  0.09780400  1
  C  116  1  0.85280600  0.80949100  0.07566600  1
  C  117  1  0.88225700  0.82332600  0.06880300  1
  C  118  1  0.90201700  0.83662800  0.08507500  1
  C  121  1  0.91143400  0.85180500  0.12397900  1
  C  122  1  0.92311000  0.83907700  0.14380400  1
  C  123  1  0.94185900  0.85499000  0.15938100  1
  C  124  1  0.94840500  0.88425000  0.15438300  1
  C  125  1  0.93686600  0.89777700  0.13522700  1
  C  126  1  0.91798800  0.88144900  0.12051700  1
  C  133  1  0.94260000  0.92686700  0.13156400  1
  C  134  1  0.89152300  0.82328800  0.04662900  1
  C  135  1  0.81249600  0.79599200  0.10386900  1
  C  136  1  0.95404000  0.84282200  0.17900300  1
  C  141  1  0.09597600  0.14987300  0.10793800  1
  C  142  1  0.12600300  0.16383300  0.11328000  1
  C  143  1  0.14598600  0.17766600  0.09734200  1
  C  144  1  0.13571400  0.17669900  0.07533500  1
  C  145  1  0.10622400  0.16282100  0.06894300  1
  C  146  1  0.08658100  0.14952000  0.08552100  1
  C  149  1  0.07749800  0.13440100  0.12455400  1
  C  150  1  0.06579200  0.14702600  0.14453600  1
  C  151  1  0.04768400  0.13084900  0.16052300  1
  C  152  1  0.04193700  0.10134900  0.15583800  1
  C  153  1  0.05361400  0.08803200  0.13651300  1
  C  154  1  0.07172700  0.10462700  0.12133500  1
  C  161  1  0.05049200  0.05859700  0.13350400  1
  C  162  1  0.09668800  0.16280400  0.04694600  1
  C  163  1  0.17596700  0.19039700  0.10303600  1
  C  164  1  0.03620600  0.14292700  0.18049500  1
  C  169  1  0.89669300  0.15116600  0.36613900  1
  C  170  1  0.86565100  0.16392000  0.36067800  1
  C  171  1  0.84475100  0.17745200  0.37645300  1
  C  172  1  0.85502600  0.17727000  0.39846300  1
  C  173  1  0.88541100  0.16445100  0.40502800  1
  C  174  1  0.90613000  0.15168400  0.38857200  1
  C  177  1  0.91626500  0.13607100  0.34962000  1
  C  178  1  0.92578700  0.14828400  0.32909100  1
  C  179  1  0.94564700  0.13259600  0.31352800  1
  C  180  1  0.95577600  0.10422500  0.31922900  1
  C  181  1  0.94642500  0.09108800  0.33914100  1
  C  182  1  0.92625900  0.10719600  0.35378700  1
  C  189  1  0.95782900  0.06363600  0.34495800  1
  C  190  1  0.89459800  0.16486300  0.42708900  1
  C  191  1  0.81411200  0.18935700  0.37056300  1
  C  192  1  0.95686300  0.14456600  0.29362000  1
  C  197  1  0.09389400  0.83433100  0.36336800  1
  C  198  1  0.12444600  0.82031800  0.35813600  1
  C  199  1  0.14435400  0.80691200  0.37423800  1
  C  200  1  0.13344200  0.80822500  0.39622900  1
  C  201  1  0.10345800  0.82231800  0.40252300  1
  C  202  1  0.08393300  0.83533400  0.38580000  1
  C  205  1  0.07573200  0.84950500  0.34653400  1
  C  206  1  0.06438300  0.83632300  0.32689700  1
  C  207  1  0.04653100  0.85226300  0.31066400  1
  C  208  1  0.04076000  0.88201200  0.31474800  1
  C  209  1  0.05216400  0.89583100  0.33371200  1
  C  210  1  0.06995200  0.87949800  0.34919100  1
  C  217  1  0.04714500  0.92516200  0.33653800  1
  C  218  1  0.09353400  0.82285900  0.42457600  1
  C  219  1  0.17497500  0.79442500  0.36874700  1
  C  220  1  0.03443700  0.83972300  0.29127000  1
  C  225  1  0.59394600  0.64953000  0.86503700  1
  C  226  1  0.62443400  0.66280900  0.85940200  1
  C  227  1  0.64445800  0.67657700  0.87512100  1
  C  228  1  0.63384200  0.67629100  0.89718200  1
  C  229  1  0.60393800  0.66298700  0.90386000  1
  C  230  1  0.58419000  0.64979000  0.88751500  1
  C  233  1  0.57529100  0.63410300  0.84869700  1
  C  234  1  0.56378700  0.64680600  0.82882900  1
  C  235  1  0.54504300  0.63090300  0.81325200  1
  C  236  1  0.53842000  0.60165700  0.81826200  1
  C  237  1  0.54981700  0.58814200  0.83746500  1
  C  238  1  0.56860000  0.60449600  0.85221800  1
  C  245  1  0.54401300  0.55905400  0.84113800  1
  C  246  1  0.59406100  0.66346100  0.92591000  1
  C  247  1  0.67553000  0.68770100  0.86976500  1
  C  248  1  0.53295600  0.64308800  0.79362100  1
  C  253  1  0.39091300  0.33538700  0.86457500  1
  C  254  1  0.36059900  0.32174100  0.85944600  1
  C  255  1  0.34098200  0.30781900  0.87552600  1
  C  256  1  0.35171400  0.30840200  0.89743700  1
  C  257  1  0.38141600  0.32213500  0.90360200  1
  C  258  1  0.40082900  0.33543300  0.88689400  1
  C  261  1  0.40911700  0.35107500  0.84795700  1
  C  262  1  0.42074700  0.33865800  0.82789700  1
  C  263  1  0.43886500  0.35499300  0.81201300  1
  C  264  1  0.44465000  0.38444700  0.81686500  1
  C  265  1  0.43301200  0.39758900  0.83627500  1
  C  266  1  0.41493300  0.38080100  0.85135500  1
  C  273  1  0.43617900  0.42699300  0.83959900  1
  C  274  1  0.39146000  0.32209500  0.92549500  1
  C  275  1  0.31017600  0.29635300  0.87041600  1
  C  276  1  0.45036300  0.34305600  0.79200600  1
  C  281  1  0.59000600  0.33453200  0.60657500  1
  C  282  1  0.62147700  0.32245100  0.61183600  1
  C  283  1  0.64232900  0.30914700  0.59591000  1
  C  284  1  0.63169200  0.30882700  0.57399200  1
  C  285  1  0.60079400  0.32096000  0.56768100  1
  C  286  1  0.58009800  0.33353200  0.58424900  1
  C  289  1  0.57054700  0.34971900  0.62308700  1
  C  290  1  0.56119000  0.33758900  0.64366700  1
  C  291  1  0.54131300  0.35329400  0.65920100  1
  C  292  1  0.53112500  0.38163900  0.65345800  1
  C  293  1  0.54037300  0.39472100  0.63350500  1
  C  294  1  0.56043400  0.37854600  0.61883500  1
  C  301  1  0.52897600  0.42218600  0.62769200  1
  C  302  1  0.59095200  0.32008900  0.54576500  1
  C  303  1  0.67416500  0.29920200  0.60085000  1
  C  304  1  0.53013900  0.34134600  0.67912300  1
  C  309  1  0.39313400  0.65182600  0.60939500  1
  C  310  1  0.36232300  0.66560300  0.61434800  1
  C  311  1  0.34283500  0.67904100  0.59804100  1
  C  312  1  0.35425300  0.67797100  0.57615900  1
  C  313  1  0.38449700  0.66405600  0.57017600  1
  C  314  1  0.40371300  0.65108600  0.58708200  1
  C  317  1  0.41100600  0.63651700  0.62628600  1
  C  318  1  0.42229900  0.64963800  0.64595000  1
  C  319  1  0.44020400  0.63366000  0.66212800  1
  C  320  1  0.44608700  0.60394000  0.65796900  1
  C  321  1  0.43473700  0.59016400  0.63896900  1
  C  322  1  0.41688600  0.60654700  0.62354300  1
  C  329  1  0.43987900  0.56084700  0.63602800  1
  C  330  1  0.39504800  0.66356600  0.54825200  1
  C  331  1  0.31153300  0.69047100  0.60290900  1
  C  332  1  0.45230900  0.64617200  0.68151900  1
  C  337  1  0.39292000  0.33656000  0.10763100  1
  C  338  1  0.36277200  0.32269000  0.11328000  1
  C  339  1  0.34322800  0.30840600  0.09759000  1
  C  340  1  0.35395200  0.30878600  0.07555500  1
  C  341  1  0.38316700  0.32306400  0.06878000  1
  C  342  1  0.40252500  0.33669900  0.08511300  1
  C  345  1  0.41137800  0.35208400  0.12402600  1
  C  346  1  0.42309400  0.33936200  0.14384000  1
  C  347  1  0.44174500  0.35531500  0.15944200  1
  C  348  1  0.44816400  0.38460900  0.15448100  1
  C  349  1  0.43656800  0.39813000  0.13533400  1
  C  350  1  0.41778700  0.38176000  0.12059400  1
  C  357  1  0.44220900  0.42724000  0.13169600  1
  C  358  1  0.39241400  0.32335000  0.04660300  1
  C  359  1  0.31243900  0.29681100  0.10307000  1
  C  360  1  0.45402700  0.34312200  0.17902400  1
  C  365  1  0.59544800  0.65080300  0.10791400  1
  C  366  1  0.62589900  0.66409900  0.11321400  1
  C  367  1  0.64582400  0.67809100  0.09730900  1
  C  368  1  0.63503000  0.67813200  0.07542000  1
  C  369  1  0.60531600  0.66457000  0.06904300  1
  C  370  1  0.58573000  0.65105600  0.08555500  1
  C  373  1  0.57703000  0.63510100  0.12442800  1
  C  374  1  0.56548400  0.64747700  0.14453100  1
  C  375  1  0.54738000  0.63113700  0.16042100  1
  C  376  1  0.54157300  0.60170200  0.15553900  1
  C  377  1  0.55310300  0.58860600  0.13608500  1
  C  378  1  0.57112300  0.60539600  0.12097600  1
  C  385  1  0.54988700  0.55920600  0.13283400  1
  C  386  1  0.59568300  0.66476300  0.04707300  1
  C  387  1  0.67711000  0.68884200  0.10225200  1
  C  388  1  0.53597300  0.64300100  0.18048400  1
  C  393  1  0.39680000  0.65107000  0.36610500  1
  C  394  1  0.36567200  0.66385400  0.36086100  1
  C  395  1  0.34549300  0.67784300  0.37677100  1
  C  396  1  0.35629500  0.67810400  0.39864000  1
  C  397  1  0.38646900  0.66475500  0.40503100  1
  C  398  1  0.40667200  0.65161400  0.38846500  1
  C  401  1  0.41591500  0.63576800  0.34948900  1
  C  402  1  0.42545500  0.64798400  0.32897100  1
  C  403  1  0.44504600  0.63219300  0.31333300  1
  C  404  1  0.45482600  0.60369300  0.31893000  1
  C  405  1  0.44542400  0.59054000  0.33883300  1
  C  406  1  0.42555800  0.60678800  0.35357000  1
  C  413  1  0.45642800  0.56291500  0.34455900  1
  C  414  1  0.39576500  0.66480600  0.42707400  1
  C  415  1  0.31411200  0.68854100  0.37169600  1
  C  416  1  0.45635000  0.64419800  0.29345600  1
  C  421  1  0.59348200  0.33340000  0.36341800  1
  C  422  1  0.62447400  0.32008700  0.35825800  1
  C  423  1  0.64437100  0.30660100  0.37436100  1
  C  424  1  0.63293000  0.30694300  0.39623400  1
  C  425  1  0.60265500  0.32063100  0.40247500  1
  C  426  1  0.58316500  0.33378300  0.38579000  1
  C  429  1  0.57535100  0.34877200  0.34666800  1
  C  430  1  0.56429900  0.33583900  0.32686500  1
  C  431  1  0.54641300  0.35190900  0.31072300  1
  C  432  1  0.54038100  0.38156400  0.31505200  1
  C  433  1  0.55147600  0.39518300  0.33419200  1
  C  434  1  0.56924300  0.37867800  0.34959200  1
  C  441  1  0.54621900  0.42447300  0.33730900  1
  C  442  1  0.59257400  0.32095600  0.42449200  1
  C  443  1  0.67618000  0.29601500  0.36962000  1
  C  444  1  0.53455400  0.33957600  0.29118500  1
  C  449  1  0.11608500  0.15953000  0.00933900  1
  C  451  1  0.08522900  0.16649700  0.97626100  1
  C  452  1  0.11355200  0.15981500  0.96335400  1
  C  454  1  0.14466600  0.15255900  0.99651100  1
  C  455  1  0.17488200  0.14482800  0.00564400  1
  C  459  1  0.19236400  0.12613900  0.03894600  1
  C  460  1  0.18341300  0.10199500  0.05508600  1
  C  468  1  0.87130100  0.82583700  0.00939000  1
  C  470  1  0.90147900  0.81863500  0.97570100  1
  C  471  1  0.87276500  0.82475800  0.96336700  1
  C  473  1  0.84233300  0.83229300  0.99714600  1
  C  474  1  0.81216000  0.83973200  0.00678800  1
  C  478  1  0.79388800  0.85694000  0.04064100  1
  C  479  1  0.80257000  0.88029200  0.05739200  1
  C  487  1  0.11274000  0.82544800  0.46205200  1
  C  489  1  0.08203600  0.81840800  0.49547400  1
  C  490  1  0.11028100  0.82464500  0.50805500  1
  C  492  1  0.14125800  0.83194800  0.47454100  1
  C  493  1  0.17138100  0.83941100  0.46509600  1
  C  497  1  0.19043200  0.85600800  0.43137700  1
  C  498  1  0.18173500  0.87910500  0.41427800  1
  C  506  1  0.87452200  0.16140200  0.46453400  1
  C  508  1  0.90466800  0.16773200  0.49788400  1
  C  509  1  0.87602500  0.16181900  0.51052000  1
  C  511  1  0.84561900  0.15520800  0.47709500  1
  C  512  1  0.81550300  0.14833100  0.46773000  1
  C  516  1  0.79726000  0.13009300  0.43455300  1
  C  517  1  0.80643400  0.10626900  0.41803400  1
  C  525  1  0.61484900  0.66027300  0.00947000  1
  C  527  1  0.58440900  0.66831300  0.97635000  1
  C  528  1  0.61241400  0.66056600  0.96347000  1
  C  530  1  0.64305700  0.65211800  0.99666900  1
  C  531  1  0.67285700  0.64327800  0.00577300  1
  C  535  1  0.68956200  0.62553500  0.03956800  1
  C  536  1  0.67976200  0.60228700  0.05624600  1
  C  544  1  0.37206100  0.32575500  0.00937800  1
  C  546  1  0.40253000  0.31973100  0.97567700  1
  C  547  1  0.37356500  0.32484500  0.96335300  1
  C  549  1  0.34280400  0.33118800  0.99715600  1
  C  550  1  0.31225700  0.33737100  0.00686500  1
  C  554  1  0.29279200  0.35449700  0.04044000  1
  C  555  1  0.30019000  0.37834400  0.05707000  1
  C  563  1  0.61148800  0.32464600  0.46198300  1
  C  565  1  0.58107200  0.31684600  0.49542100  1
  C  566  1  0.60904700  0.32394700  0.50799300  1
  C  568  1  0.63967700  0.33213600  0.47446900  1
  C  569  1  0.66951100  0.34039400  0.46506300  1
  C  573  1  0.68704200  0.35775700  0.43120500  1
  C  574  1  0.67717500  0.38079600  0.41433400  1
  C  582  1  0.37572200  0.66113100  0.46451900  1
  C  584  1  0.40612200  0.66700000  0.49782500  1
  C  585  1  0.37741400  0.66149800  0.51050300  1
  C  587  1  0.34675300  0.65529400  0.47712200  1
  C  588  1  0.31641200  0.64897300  0.46788800  1
  C  592  1  0.29681400  0.63271000  0.43440600  1
  C  593  1  0.30485000  0.60949200  0.41716900  1
  C  601  1  0.97536000  0.96659800  0.83918600  1
  C  603  1  0.02185700  0.99675400  0.83056800  1
  C  604  1  0.00510800  0.02107300  0.83927400  1
  C  606  1  0.95860200  0.99117900  0.84814900  1
  C  607  1  0.92785800  0.99179300  0.85794700  1
  C  611  1  0.90805900  0.98749700  0.89344000  1
  C  612  1  0.90613600  0.96531000  0.91204900  1
  C  620  1  0.97859700  0.02254900  0.63838900  1
  C  622  1  0.99796900  0.98267500  0.65963700  1
  C  623  1  0.00529600  0.96690500  0.64055500  1
  C  625  1  0.98577100  0.00681000  0.61899800  1
  C  626  1  0.98169100  0.01695800  0.59807200  1
  C  630  1  0.92854500  0.01243300  0.58438100  1
  C  631  1  0.89739900  0.03073100  0.57940400  1
  C  639  1  0.01175400  0.01894700  0.13294200  1
  C  641  1  0.96508200  0.98878700  0.14104800  1
  C  642  1  0.98230100  0.96436800  0.13290400  1
  C  644  1  0.02897900  0.99429900  0.12449000  1
  C  645  1  0.06004100  0.99379300  0.11515800  1
  C  649  1  0.08184200  0.99915300  0.08025200  1
  C  650  1  0.08625100  0.02230900  0.06252900  1
  C  658  1  0.00877300  0.96377500  0.33482500  1
  C  660  1  0.98730500  0.00287700  0.31361500  1
  C  661  1  0.98200000  0.01938500  0.33260100  1
  C  663  1  0.00379600  0.98029800  0.35412500  1
  C  664  1  0.01000600  0.97097600  0.37508700  1
  C  668  1  0.06437800  0.97349300  0.38685100  1
  C  669  1  0.09515600  0.95415000  0.39048500  1
  C  677  1  0.47463700  0.46701700  0.83929600  1
  C  679  1  0.52156800  0.49705300  0.83149200  1
  C  680  1  0.50431200  0.52153800  0.83948400  1
  C  682  1  0.45738400  0.49176000  0.84757200  1
  C  683  1  0.42611800  0.49254700  0.85652400  1
  C  687  1  0.40609200  0.49010800  0.89204500  1
  C  688  1  0.40202100  0.46839200  0.91081800  1
  C  696  1  0.47821100  0.52216100  0.63799300  1
  C  698  1  0.49948100  0.48290100  0.65913300  1
  C  699  1  0.50493800  0.46650000  0.64010700  1
  C  701  1  0.48342200  0.50576400  0.61865400  1
  C  702  1  0.47742600  0.51523100  0.59770900  1
  C  706  1  0.42312500  0.51125400  0.58602900  1
  C  707  1  0.39180000  0.52985800  0.58225700  1
  C  715  1  0.51126300  0.51939900  0.13285100  1
  C  717  1  0.46494800  0.48906900  0.14151300  1
  C  718  1  0.48182400  0.46479400  0.13283600  1
  C  720  1  0.52814200  0.49488900  0.12388600  1
  C  721  1  0.55880500  0.49450800  0.11402800  1
  C  725  1  0.57746900  0.49990900  0.07834900  1
  C  726  1  0.58081700  0.52318600  0.06061400  1
  C  734  1  0.50834100  0.46336800  0.33453300  1
  C  736  1  0.48907100  0.50325300  0.31325100  1
  C  737  1  0.48163500  0.51901200  0.33232000  1
  C  739  1  0.50101700  0.47907800  0.35391800  1
  C  740  1  0.50490900  0.46890000  0.37485900  1
  C  744  1  0.55798000  0.47196500  0.38890100  1
  C  745  1  0.58852700  0.45290800  0.39389100  1
  C  753  1  0.21229900  0.22764200  0.87517300  1
  C  755  1  0.27190900  0.22715500  0.87300000  1
  C  756  1  0.27271600  0.25740000  0.87476500  1
  C  758  1  0.21273300  0.25820400  0.87728500  1
  C  759  1  0.18512200  0.27602100  0.88050800  1
  C  763  1  0.14760200  0.26589200  0.90819800  1
  C  764  1  0.11199800  0.25506100  0.91170800  1
  C  772  1  0.77173500  0.75723100  0.87629400  1
  C  774  1  0.71357600  0.75722300  0.86785200  1
  C  775  1  0.71120300  0.72789100  0.87346500  1
  C  777  1  0.76973700  0.72761500  0.88229300  1
  C  778  1  0.79596400  0.71147200  0.89082500  1
  C  782  1  0.84695600  0.72489200  0.90442700  1
  C  783  1  0.88208500  0.73306400  0.89676800  1
  C  791  1  0.21168300  0.75814400  0.59651200  1
  C  793  1  0.27097200  0.75914700  0.60023700  1
  C  794  1  0.27312700  0.72902500  0.59781100  1
  C  796  1  0.21346100  0.72767500  0.59376400  1
  C  797  1  0.18675300  0.70992900  0.58923800  1
  C  801  1  0.14350600  0.72233700  0.56640700  1
  C  802  1  0.10687200  0.73211800  0.56724500  1
  C  810  1  0.77169600  0.22931300  0.59631600  1
  C  812  1  0.71357900  0.22968700  0.60550200  1
  C  813  1  0.71029700  0.25857600  0.59877200  1
  C  815  1  0.76878900  0.25845600  0.58918500  1
  C  816  1  0.79455600  0.27404200  0.57970400  1
  C  820  1  0.84687300  0.26068600  0.56702800  1
  C  821  1  0.88190600  0.25326400  0.57528200  1
  C  829  1  0.77363800  0.75812400  0.09683300  1
  C  831  1  0.71511900  0.75837800  0.10493400  1
  C  832  1  0.71277000  0.72910000  0.09918700  1
  C  834  1  0.77169100  0.72856100  0.09069800  1
  C  835  1  0.79802000  0.71215700  0.08224200  1
  C  839  1  0.84752300  0.72610800  0.06619700  1
  C  840  1  0.88326100  0.73420500  0.07209500  1
  C  848  1  0.21387600  0.22917700  0.09617100  1
  C  850  1  0.27233700  0.22967400  0.10371900  1
  C  851  1  0.27416900  0.25893000  0.09782500  1
  C  853  1  0.21537900  0.25870800  0.08984800  1
  C  854  1  0.18888700  0.27457300  0.08128700  1
  C  858  1  0.13913600  0.26005100  0.06651000  1
  C  859  1  0.10372800  0.25152200  0.07331300  1
  C  867  1  0.77383700  0.22708900  0.37709900  1
  C  869  1  0.71623600  0.22678800  0.36734900  1
  C  870  1  0.71237100  0.25585300  0.37354100  1
  C  872  1  0.77029200  0.25639900  0.38373100  1
  C  873  1  0.79547200  0.27232300  0.39316400  1
  C  877  1  0.84846100  0.26050900  0.40494400  1
  C  878  1  0.88341500  0.25330700  0.39601200  1
  C  886  1  0.21380500  0.75605500  0.37593200  1
  C  888  1  0.27289600  0.75683900  0.37034000  1
  C  889  1  0.27546800  0.72724600  0.37513600  1
  C  891  1  0.21601400  0.72616800  0.38113800  1
  C  892  1  0.18968800  0.70914100  0.38805000  1
  C  896  1  0.14261100  0.72380300  0.40710300  1
  C  897  1  0.10614000  0.73261400  0.40341400  1
  C  905  1  0.00709000  0.13007400  0.75836600  1
  C  907  1  0.98650800  0.15829200  0.72823400  1
  C  908  1  0.97747000  0.13311000  0.71687700  1
  C  910  1  0.99796400  0.10480900  0.74691400  1
  C  911  1  0.00209800  0.07696000  0.75437300  1
  C  915  1  0.95582200  0.05948100  0.77258500  1
  C  916  1  0.94397000  0.05163900  0.79573700  1
  C  924  1  0.98032500  0.85590500  0.75789900  1
  C  926  1  0.99336400  0.83006000  0.72478600  1
  C  927  1  0.00897300  0.85450500  0.71574400  1
  C  929  1  0.99627300  0.88038200  0.74888300  1
  C  930  1  0.99971100  0.90632000  0.75943500  1
  C  934  1  0.04157100  0.92157900  0.78227500  1
  C  935  1  0.05575500  0.91508400  0.80499500  1
  C  943  1  0.98020500  0.85581400  0.21407200  1
  C  945  1  0.00026600  0.82771600  0.24443700  1
  C  946  1  0.00957400  0.85291700  0.25567300  1
  C  948  1  0.98958900  0.88109200  0.22541400  1
  C  949  1  0.98598700  0.90887100  0.21775600  1
  C  953  1  0.03244900  0.92437800  0.19867000  1
  C  954  1  0.04329700  0.93290100  0.17545300  1
  C  962  1  0.00696300  0.13002800  0.21494200  1
  C  964  1  0.99382700  0.15599900  0.24798700  1
  C  965  1  0.97833400  0.13155100  0.25711700  1
  C  967  1  0.99121600  0.10551700  0.22406700  1
  C  968  1  0.98795100  0.07945400  0.21359000  1
  C  972  1  0.94829500  0.06106500  0.19032100  1
  C  973  1  0.93255000  0.06764700  0.16807200  1
  C  981  1  0.50659900  0.63010200  0.75863200  1
  C  983  1  0.48666800  0.65816400  0.72822600  1
  C  984  1  0.47715000  0.63295600  0.71708000  1
  C  986  1  0.49696500  0.60482400  0.74739100  1
  C  987  1  0.50043700  0.57708500  0.75510800  1
  C  991  1  0.45359300  0.56145400  0.77375500  1
  C  992  1  0.44199400  0.55362200  0.79696000  1
  C  1000  1  0.47968100  0.35603600  0.75765900  1
  C  1002  1  0.49301400  0.32996900  0.72469400  1
  C  1003  1  0.50841800  0.35443600  0.71553700  1
  C  1005  1  0.49536100  0.38056000  0.74850900  1
  C  1006  1  0.49854500  0.40667000  0.75893700  1
  C  1010  1  0.53944500  0.42373200  0.78178500  1
  C  1011  1  0.55466700  0.41725400  0.80421100  1
  C  1019  1  0.47985700  0.35606000  0.21419400  1
  C  1021  1  0.50063200  0.32782000  0.24427300  1
  C  1022  1  0.50933600  0.35300000  0.25575600  1
  C  1024  1  0.48864600  0.38131700  0.22577700  1
  C  1025  1  0.48422900  0.40914300  0.21843700  1
  C  1029  1  0.53026500  0.42636100  0.19973300  1
  C  1030  1  0.54122400  0.43512500  0.17658800  1
  C  1038  1  0.50637600  0.62995100  0.21474600  1
  C  1040  1  0.49347500  0.65572800  0.24792000  1
  C  1041  1  0.47773000  0.63132100  0.25691900  1
  C  1043  1  0.49036300  0.60549300  0.22374100  1
  C  1044  1  0.48687300  0.57957600  0.21316600  1
  C  1048  1  0.44524400  0.56418200  0.19019300  1
  C  1049  1  0.43114700  0.57067100  0.16745000  1
  C  1057  1  0.46724500  0.14882200  0.86481100  1
  C  1058  1  0.49747100  0.16252700  0.85916800  1
  C  1059  1  0.51749700  0.17612500  0.87494100  1
  C  1060  1  0.50725000  0.17507900  0.89707400  1
  C  1061  1  0.47746700  0.16160200  0.90374100  1
  C  1062  1  0.45767400  0.14862400  0.88732500  1
  C  1065  1  0.44859100  0.13354400  0.84840000  1
  C  1066  1  0.43689700  0.14641900  0.82864300  1
  C  1067  1  0.41816600  0.13059500  0.81301400  1
  C  1068  1  0.41169400  0.10127800  0.81787400  1
  C  1069  1  0.42329600  0.08761700  0.83695900  1
  C  1070  1  0.44211300  0.10386800  0.85174700  1
  C  1077  1  0.41760300  0.05850100  0.84050600  1
  C  1078  1  0.46768700  0.16184400  0.92582100  1
  C  1079  1  0.54778200  0.18843400  0.86914600  1
  C  1080  1  0.40590500  0.14292200  0.79348400  1
  C  1085  1  0.26363700  0.83516300  0.86463300  1
  C  1086  1  0.23339800  0.82152400  0.85933900  1
  C  1087  1  0.21322500  0.80794900  0.87531900  1
  C  1088  1  0.22352300  0.80887100  0.89733400  1
  C  1089  1  0.25340000  0.82220900  0.90362700  1
  C  1090  1  0.27321400  0.83524200  0.88701000  1
  C  1093  1  0.28213800  0.85075000  0.84809300  1
  C  1094  1  0.29380300  0.83836200  0.82802600  1
  C  1095  1  0.31204500  0.85469400  0.81219900  1
  C  1096  1  0.31791800  0.88411300  0.81711600  1
  C  1097  1  0.30628000  0.89723400  0.83653300  1
  C  1098  1  0.28808000  0.88044600  0.85155000  1
  C  1105  1  0.30963000  0.92660700  0.83995400  1
  C  1106  1  0.26336400  0.82185300  0.92553000  1
  C  1107  1  0.18306900  0.79551200  0.86961400  1
  C  1108  1  0.32354800  0.84282400  0.79216600  1
  C  1113  1  0.46339100  0.83520600  0.60674300  1
  C  1114  1  0.49452400  0.82252500  0.61206000  1
  C  1115  1  0.51531500  0.80926300  0.59611400  1
  C  1116  1  0.50508500  0.80975100  0.57409500  1
  C  1117  1  0.47441000  0.82225300  0.56775000  1
  C  1118  1  0.45371500  0.83472400  0.58435700  1
  C  1121  1  0.44395600  0.85027200  0.62332400  1
  C  1122  1  0.43434200  0.83796400  0.64379300  1
  C  1123  1  0.41456400  0.85365300  0.65939200  1
  C  1124  1  0.40466700  0.88212800  0.65380500  1
  C  1125  1  0.41414600  0.89536500  0.63395400  1
  C  1126  1  0.43419100  0.87922700  0.61925600  1
  C  1133  1  0.40308100  0.92297300  0.62824700  1
  C  1134  1  0.46465800  0.82157300  0.54580400  1
  C  1135  1  0.54609100  0.79758200  0.60173000  1
  C  1136  1  0.40322100  0.84159300  0.67923400  1
  C  1141  1  0.26545600  0.15209900  0.60938300  1
  C  1142  1  0.23476200  0.16592600  0.61453700  1
  C  1143  1  0.21463300  0.17898300  0.59836300  1
  C  1144  1  0.22552600  0.17746800  0.57635900  1
  C  1145  1  0.25592400  0.16394400  0.57020200  1
  C  1146  1  0.27560700  0.15127800  0.58699700  1
  C  1149  1  0.28369500  0.13691000  0.62618300  1
  C  1150  1  0.29496600  0.14999400  0.64587000  1
  C  1151  1  0.31305100  0.13403200  0.66197700  1
  C  1152  1  0.31915900  0.10437200  0.65770900  1
  C  1153  1  0.30788600  0.09061100  0.63868000  1
  C  1154  1  0.28983000  0.10698500  0.62335000  1
  C  1161  1  0.31327900  0.06132700  0.63558100  1
  C  1162  1  0.26635400  0.16374300  0.54825200  1
  C  1163  1  0.18403500  0.19158100  0.60391800  1
  C  1164  1  0.32507800  0.14647800  0.68141800  1
  C  1169  1  0.26544600  0.83642600  0.10763800  1
  C  1170  1  0.23537600  0.82254300  0.11342000  1
  C  1171  1  0.21530100  0.80865000  0.09780400  1
  C  1172  1  0.22555000  0.80949100  0.07566600  1
  C  1173  1  0.25500100  0.82332600  0.06880300  1
  C  1174  1  0.27476100  0.83662800  0.08507500  1
  C  1177  1  0.28417800  0.85180500  0.12397900  1
  C  1178  1  0.29585400  0.83907700  0.14380400  1
  C  1179  1  0.31460300  0.85499000  0.15938100  1
  C  1180  1  0.32114900  0.88425000  0.15438300  1
  C  1181  1  0.30961000  0.89777700  0.13522700  1
  C  1182  1  0.29073200  0.88144900  0.12051700  1
  C  1189  1  0.31534400  0.92686700  0.13156400  1
  C  1190  1  0.26426700  0.82328800  0.04662900  1
  C  1191  1  0.18524000  0.79599200  0.10386900  1
  C  1192  1  0.32678400  0.84282200  0.17900300  1
  C  1197  1  0.46872000  0.14987300  0.10793800  1
  C  1198  1  0.49874700  0.16383300  0.11328000  1
  C  1199  1  0.51873000  0.17766600  0.09734200  1
  C  1200  1  0.50845800  0.17669900  0.07533500  1
  C  1201  1  0.47896800  0.16282100  0.06894300  1
  C  1202  1  0.45932500  0.14952000  0.08552100  1
  C  1205  1  0.45024200  0.13440100  0.12455400  1
  C  1206  1  0.43853600  0.14702600  0.14453600  1
  C  1207  1  0.42042800  0.13084900  0.16052300  1
  C  1208  1  0.41468100  0.10134900  0.15583800  1
  C  1209  1  0.42635800  0.08803200  0.13651300  1
  C  1210  1  0.44447100  0.10462700  0.12133500  1
  C  1217  1  0.42323600  0.05859700  0.13350400  1
  C  1218  1  0.46943200  0.16280400  0.04694600  1
  C  1219  1  0.54871100  0.19039700  0.10303600  1
  C  1220  1  0.40895000  0.14292700  0.18049500  1
  C  1225  1  0.26943700  0.15116600  0.36613900  1
  C  1226  1  0.23839500  0.16392000  0.36067800  1
  C  1227  1  0.21749500  0.17745200  0.37645300  1
  C  1228  1  0.22777000  0.17727000  0.39846300  1
  C  1229  1  0.25815500  0.16445100  0.40502800  1
  C  1230  1  0.27887400  0.15168400  0.38857200  1
  C  1233  1  0.28900900  0.13607100  0.34962000  1
  C  1234  1  0.29853100  0.14828400  0.32909100  1
  C  1235  1  0.31839100  0.13259600  0.31352800  1
  C  1236  1  0.32852000  0.10422500  0.31922900  1
  C  1237  1  0.31916900  0.09108800  0.33914100  1
  C  1238  1  0.29900300  0.10719600  0.35378700  1
  C  1245  1  0.33057300  0.06363600  0.34495800  1
  C  1246  1  0.26734200  0.16486300  0.42708900  1
  C  1247  1  0.18685600  0.18935700  0.37056300  1
  C  1248  1  0.32960700  0.14456600  0.29362000  1
  C  1253  1  0.46663800  0.83433100  0.36336800  1
  C  1254  1  0.49719000  0.82031800  0.35813600  1
  C  1255  1  0.51709800  0.80691200  0.37423800  1
  C  1256  1  0.50618600  0.80822500  0.39622900  1
  C  1257  1  0.47620200  0.82231800  0.40252300  1
  C  1258  1  0.45667700  0.83533400  0.38580000  1
  C  1261  1  0.44847600  0.84950500  0.34653400  1
  C  1262  1  0.43712700  0.83632300  0.32689700  1
  C  1263  1  0.41927500  0.85226300  0.31066400  1
  C  1264  1  0.41350400  0.88201200  0.31474800  1
  C  1265  1  0.42490800  0.89583100  0.33371200  1
  C  1266  1  0.44269600  0.87949800  0.34919100  1
  C  1273  1  0.41988900  0.92516200  0.33653800  1
  C  1274  1  0.46627800  0.82285900  0.42457600  1
  C  1275  1  0.54771900  0.79442500  0.36874700  1
  C  1276  1  0.40718100  0.83972300  0.29127000  1
  C  1281  1  0.96669000  0.64953000  0.86503700  1
  C  1282  1  0.99717800  0.66280900  0.85940200  1
  C  1283  1  0.01720200  0.67657700  0.87512100  1
  C  1284  1  0.00658597  0.67629100  0.89718200  1
  C  1285  1  0.97668200  0.66298700  0.90386000  1
  C  1286  1  0.95693400  0.64979000  0.88751500  1
  C  1289  1  0.94803500  0.63410300  0.84869700  1
  C  1290  1  0.93653100  0.64680600  0.82882900  1
  C  1291  1  0.91778700  0.63090300  0.81325200  1
  C  1292  1  0.91116400  0.60165700  0.81826200  1
  C  1293  1  0.92256100  0.58814200  0.83746500  1
  C  1294  1  0.94134400  0.60449600  0.85221800  1
  C  1301  1  0.91675700  0.55905400  0.84113800  1
  C  1302  1  0.96680500  0.66346100  0.92591000  1
  C  1303  1  0.04827400  0.68770100  0.86976500  1
  C  1304  1  0.90570000  0.64308800  0.79362100  1
  C  1309  1  0.76365700  0.33538700  0.86457500  1
  C  1310  1  0.73334300  0.32174100  0.85944600  1
  C  1311  1  0.71372600  0.30781900  0.87552600  1
  C  1312  1  0.72445800  0.30840200  0.89743700  1
  C  1313  1  0.75416000  0.32213500  0.90360200  1
  C  1314  1  0.77357300  0.33543300  0.88689400  1
  C  1317  1  0.78186100  0.35107500  0.84795700  1
  C  1318  1  0.79349100  0.33865800  0.82789700  1
  C  1319  1  0.81160900  0.35499300  0.81201300  1
  C  1320  1  0.81739400  0.38444700  0.81686500  1
  C  1321  1  0.80575600  0.39758900  0.83627500  1
  C  1322  1  0.78767700  0.38080100  0.85135500  1
  C  1329  1  0.80892300  0.42699300  0.83959900  1
  C  1330  1  0.76420400  0.32209500  0.92549500  1
  C  1331  1  0.68292000  0.29635300  0.87041600  1
  C  1332  1  0.82310700  0.34305600  0.79200600  1
  C  1337  1  0.96275000  0.33453200  0.60657500  1
  C  1338  1  0.99422100  0.32245100  0.61183600  1
  C  1339  1  0.01507300  0.30914700  0.59591000  1
  C  1340  1  0.00443597  0.30882700  0.57399200  1
  C  1341  1  0.97353800  0.32096000  0.56768100  1
  C  1342  1  0.95284200  0.33353200  0.58424900  1
  C  1345  1  0.94329100  0.34971900  0.62308700  1
  C  1346  1  0.93393400  0.33758900  0.64366700  1
  C  1347  1  0.91405700  0.35329400  0.65920100  1
  C  1348  1  0.90386900  0.38163900  0.65345800  1
  C  1349  1  0.91311700  0.39472100  0.63350500  1
  C  1350  1  0.93317800  0.37854600  0.61883500  1
  C  1357  1  0.90172000  0.42218600  0.62769200  1
  C  1358  1  0.96369600  0.32008900  0.54576500  1
  C  1359  1  0.04690900  0.29920200  0.60085000  1
  C  1360  1  0.90288300  0.34134600  0.67912300  1
  C  1365  1  0.76587800  0.65182600  0.60939500  1
  C  1366  1  0.73506700  0.66560300  0.61434800  1
  C  1367  1  0.71557900  0.67904100  0.59804100  1
  C  1368  1  0.72699700  0.67797100  0.57615900  1
  C  1369  1  0.75724100  0.66405600  0.57017600  1
  C  1370  1  0.77645700  0.65108600  0.58708200  1
  C  1373  1  0.78375000  0.63651700  0.62628600  1
  C  1374  1  0.79504300  0.64963800  0.64595000  1
  C  1375  1  0.81294800  0.63366000  0.66212800  1
  C  1376  1  0.81883100  0.60394000  0.65796900  1
  C  1377  1  0.80748100  0.59016400  0.63896900  1
  C  1378  1  0.78963000  0.60654700  0.62354300  1
  C  1385  1  0.81262300  0.56084700  0.63602800  1
  C  1386  1  0.76779200  0.66356600  0.54825200  1
  C  1387  1  0.68427700  0.69047100  0.60290900  1
  C  1388  1  0.82505300  0.64617200  0.68151900  1
  C  1393  1  0.76566400  0.33656000  0.10763100  1
  C  1394  1  0.73551600  0.32269000  0.11328000  1
  C  1395  1  0.71597200  0.30840600  0.09759000  1
  C  1396  1  0.72669600  0.30878600  0.07555500  1
  C  1397  1  0.75591100  0.32306400  0.06878000  1
  C  1398  1  0.77526900  0.33669900  0.08511300  1
  C  1401  1  0.78412200  0.35208400  0.12402600  1
  C  1402  1  0.79583800  0.33936200  0.14384000  1
  C  1403  1  0.81448900  0.35531500  0.15944200  1
  C  1404  1  0.82090800  0.38460900  0.15448100  1
  C  1405  1  0.80931200  0.39813000  0.13533400  1
  C  1406  1  0.79053100  0.38176000  0.12059400  1
  C  1413  1  0.81495300  0.42724000  0.13169600  1
  C  1414  1  0.76515800  0.32335000  0.04660300  1
  C  1415  1  0.68518300  0.29681100  0.10307000  1
  C  1416  1  0.82677100  0.34312200  0.17902400  1
  C  1421  1  0.96819200  0.65080300  0.10791400  1
  C  1422  1  0.99864300  0.66409900  0.11321400  1
  C  1423  1  0.01856800  0.67809100  0.09730900  1
  C  1424  1  0.00777397  0.67813200  0.07542000  1
  C  1425  1  0.97806000  0.66457000  0.06904300  1
  C  1426  1  0.95847400  0.65105600  0.08555500  1
  C  1429  1  0.94977400  0.63510100  0.12442800  1
  C  1430  1  0.93822800  0.64747700  0.14453100  1
  C  1431  1  0.92012400  0.63113700  0.16042100  1
  C  1432  1  0.91431700  0.60170200  0.15553900  1
  C  1433  1  0.92584700  0.58860600  0.13608500  1
  C  1434  1  0.94386700  0.60539600  0.12097600  1
  C  1441  1  0.92263100  0.55920600  0.13283400  1
  C  1442  1  0.96842700  0.66476300  0.04707300  1
  C  1443  1  0.04985400  0.68884200  0.10225200  1
  C  1444  1  0.90871700  0.64300100  0.18048400  1
  C  1449  1  0.76954400  0.65107000  0.36610500  1
  C  1450  1  0.73841600  0.66385400  0.36086100  1
  C  1451  1  0.71823700  0.67784300  0.37677100  1
  C  1452  1  0.72903900  0.67810400  0.39864000  1
  C  1453  1  0.75921300  0.66475500  0.40503100  1
  C  1454  1  0.77941600  0.65161400  0.38846500  1
  C  1457  1  0.78865900  0.63576800  0.34948900  1
  C  1458  1  0.79819900  0.64798400  0.32897100  1
  C  1459  1  0.81779000  0.63219300  0.31333300  1
  C  1460  1  0.82757000  0.60369300  0.31893000  1
  C  1461  1  0.81816800  0.59054000  0.33883300  1
  C  1462  1  0.79830200  0.60678800  0.35357000  1
  C  1469  1  0.82917200  0.56291500  0.34455900  1
  C  1470  1  0.76850900  0.66480600  0.42707400  1
  C  1471  1  0.68685600  0.68854100  0.37169600  1
  C  1472  1  0.82909400  0.64419800  0.29345600  1
  C  1477  1  0.96622600  0.33340000  0.36341800  1
  C  1478  1  0.99721800  0.32008700  0.35825800  1
  C  1479  1  0.01711500  0.30660100  0.37436100  1
  C  1480  1  0.00567397  0.30694300  0.39623400  1
  C  1481  1  0.97539900  0.32063100  0.40247500  1
  C  1482  1  0.95590900  0.33378300  0.38579000  1
  C  1485  1  0.94809500  0.34877200  0.34666800  1
  C  1486  1  0.93704300  0.33583900  0.32686500  1
  C  1487  1  0.91915700  0.35190900  0.31072300  1
  C  1488  1  0.91312500  0.38156400  0.31505200  1
  C  1489  1  0.92422000  0.39518300  0.33419200  1
  C  1490  1  0.94198700  0.37867800  0.34959200  1
  C  1497  1  0.91896300  0.42447300  0.33730900  1
  C  1498  1  0.96531800  0.32095600  0.42449200  1
  C  1499  1  0.04892400  0.29601500  0.36962000  1
  C  1500  1  0.90729800  0.33957600  0.29118500  1
  C  1505  1  0.48882900  0.15953000  0.00933900  1
  C  1507  1  0.45797300  0.16649700  0.97626100  1
  C  1508  1  0.48629600  0.15981500  0.96335400  1
  C  1510  1  0.51741000  0.15255900  0.99651100  1
  C  1511  1  0.54762600  0.14482800  0.00564400  1
  C  1515  1  0.56510800  0.12613900  0.03894600  1
  C  1516  1  0.55615700  0.10199500  0.05508600  1
  C  1524  1  0.24404500  0.82583700  0.00939000  1
  C  1526  1  0.27422300  0.81863500  0.97570100  1
  C  1527  1  0.24550900  0.82475800  0.96336700  1
  C  1529  1  0.21507700  0.83229300  0.99714600  1
  C  1530  1  0.18490400  0.83973200  0.00678800  1
  C  1534  1  0.16663200  0.85694000  0.04064100  1
  C  1535  1  0.17531400  0.88029200  0.05739200  1
  C  1543  1  0.48548400  0.82544800  0.46205200  1
  C  1545  1  0.45478000  0.81840800  0.49547400  1
  C  1546  1  0.48302500  0.82464500  0.50805500  1
  C  1548  1  0.51400200  0.83194800  0.47454100  1
  C  1549  1  0.54412500  0.83941100  0.46509600  1
  C  1553  1  0.56317600  0.85600800  0.43137700  1
  C  1554  1  0.55447900  0.87910500  0.41427800  1
  C  1562  1  0.24726600  0.16140200  0.46453400  1
  C  1564  1  0.27741200  0.16773200  0.49788400  1
  C  1565  1  0.24876900  0.16181900  0.51052000  1
  C  1567  1  0.21836300  0.15520800  0.47709500  1
  C  1568  1  0.18824700  0.14833100  0.46773000  1
  C  1572  1  0.17000400  0.13009300  0.43455300  1
  C  1573  1  0.17917800  0.10626900  0.41803400  1
  C  1581  1  0.98759300  0.66027300  0.00947000  1
  C  1583  1  0.95715300  0.66831300  0.97635000  1
  C  1584  1  0.98515800  0.66056600  0.96347000  1
  C  1586  1  0.01580100  0.65211800  0.99666900  1
  C  1587  1  0.04560100  0.64327800  0.00577300  1
  C  1591  1  0.06230600  0.62553500  0.03956800  1
  C  1592  1  0.05250600  0.60228700  0.05624600  1
  C  1600  1  0.74480500  0.32575500  0.00937800  1
  C  1602  1  0.77527400  0.31973100  0.97567700  1
  C  1603  1  0.74630900  0.32484500  0.96335300  1
  C  1605  1  0.71554800  0.33118800  0.99715600  1
  C  1606  1  0.68500100  0.33737100  0.00686500  1
  C  1610  1  0.66553600  0.35449700  0.04044000  1
  C  1611  1  0.67293400  0.37834400  0.05707000  1
  C  1619  1  0.98423200  0.32464600  0.46198300  1
  C  1621  1  0.95381600  0.31684600  0.49542100  1
  C  1622  1  0.98179100  0.32394700  0.50799300  1
  C  1624  1  0.01242100  0.33213600  0.47446900  1
  C  1625  1  0.04225500  0.34039400  0.46506300  1
  C  1629  1  0.05978600  0.35775700  0.43120500  1
  C  1630  1  0.04991900  0.38079600  0.41433400  1
  C  1638  1  0.74846600  0.66113100  0.46451900  1
  C  1640  1  0.77886600  0.66700000  0.49782500  1
  C  1641  1  0.75015800  0.66149800  0.51050300  1
  C  1643  1  0.71949700  0.65529400  0.47712200  1
  C  1644  1  0.68915600  0.64897300  0.46788800  1
  C  1648  1  0.66955800  0.63271000  0.43440600  1
  C  1649  1  0.67759400  0.60949200  0.41716900  1
  C  1657  1  0.34810400  0.96659800  0.83918600  1
  C  1659  1  0.39460100  0.99675400  0.83056800  1
  C  1660  1  0.37785200  0.02107300  0.83927400  1
  C  1662  1  0.33134600  0.99117900  0.84814900  1
  C  1663  1  0.30060200  0.99179300  0.85794700  1
  C  1667  1  0.28080300  0.98749700  0.89344000  1
  C  1668  1  0.27888000  0.96531000  0.91204900  1
  C  1676  1  0.35134100  0.02254900  0.63838900  1
  C  1678  1  0.37071300  0.98267500  0.65963700  1
  C  1679  1  0.37804000  0.96690500  0.64055500  1
  C  1681  1  0.35851500  0.00681000  0.61899800  1
  C  1682  1  0.35443500  0.01695800  0.59807200  1
  C  1686  1  0.30128900  0.01243300  0.58438100  1
  C  1687  1  0.27014300  0.03073100  0.57940400  1
  C  1695  1  0.38449800  0.01894700  0.13294200  1
  C  1697  1  0.33782600  0.98878700  0.14104800  1
  C  1698  1  0.35504500  0.96436800  0.13290400  1
  C  1700  1  0.40172300  0.99429900  0.12449000  1
  C  1701  1  0.43278500  0.99379300  0.11515800  1
  C  1705  1  0.45458600  0.99915300  0.08025200  1
  C  1706  1  0.45899500  0.02230900  0.06252900  1
  C  1714  1  0.38151700  0.96377500  0.33482500  1
  C  1716  1  0.36004900  0.00287700  0.31361500  1
  C  1717  1  0.35474400  0.01938500  0.33260100  1
  C  1719  1  0.37654000  0.98029800  0.35412500  1
  C  1720  1  0.38275000  0.97097600  0.37508700  1
  C  1724  1  0.43712200  0.97349300  0.38685100  1
  C  1725  1  0.46790000  0.95415000  0.39048500  1
  C  1733  1  0.84738100  0.46701700  0.83929600  1
  C  1735  1  0.89431200  0.49705300  0.83149200  1
  C  1736  1  0.87705600  0.52153800  0.83948400  1
  C  1738  1  0.83012800  0.49176000  0.84757200  1
  C  1739  1  0.79886200  0.49254700  0.85652400  1
  C  1743  1  0.77883600  0.49010800  0.89204500  1
  C  1744  1  0.77476500  0.46839200  0.91081800  1
  C  1752  1  0.85095500  0.52216100  0.63799300  1
  C  1754  1  0.87222500  0.48290100  0.65913300  1
  C  1755  1  0.87768200  0.46650000  0.64010700  1
  C  1757  1  0.85616600  0.50576400  0.61865400  1
  C  1758  1  0.85017000  0.51523100  0.59770900  1
  C  1762  1  0.79586900  0.51125400  0.58602900  1
  C  1763  1  0.76454400  0.52985800  0.58225700  1
  C  1771  1  0.88400700  0.51939900  0.13285100  1
  C  1773  1  0.83769200  0.48906900  0.14151300  1
  C  1774  1  0.85456800  0.46479400  0.13283600  1
  C  1776  1  0.90088600  0.49488900  0.12388600  1
  C  1777  1  0.93154900  0.49450800  0.11402800  1
  C  1781  1  0.95021300  0.49990900  0.07834900  1
  C  1782  1  0.95356100  0.52318600  0.06061400  1
  C  1790  1  0.88108500  0.46336800  0.33453300  1
  C  1792  1  0.86181500  0.50325300  0.31325100  1
  C  1793  1  0.85437900  0.51901200  0.33232000  1
  C  1795  1  0.87376100  0.47907800  0.35391800  1
  C  1796  1  0.87765300  0.46890000  0.37485900  1
  C  1800  1  0.93072400  0.47196500  0.38890100  1
  C  1801  1  0.96127100  0.45290800  0.39389100  1
  C  1809  1  0.58504300  0.22764200  0.87517300  1
  C  1811  1  0.64465300  0.22715500  0.87300000  1
  C  1812  1  0.64546000  0.25740000  0.87476500  1
  C  1814  1  0.58547700  0.25820400  0.87728500  1
  C  1815  1  0.55786600  0.27602100  0.88050800  1
  C  1819  1  0.52034600  0.26589200  0.90819800  1
  C  1820  1  0.48474200  0.25506100  0.91170800  1
  C  1828  1  0.14447900  0.75723100  0.87629400  1
  C  1830  1  0.08632000  0.75722300  0.86785200  1
  C  1831  1  0.08394700  0.72789100  0.87346500  1
  C  1833  1  0.14248100  0.72761500  0.88229300  1
  C  1834  1  0.16870800  0.71147200  0.89082500  1
  C  1838  1  0.21970000  0.72489200  0.90442700  1
  C  1839  1  0.25482900  0.73306400  0.89676800  1
  C  1847  1  0.58442700  0.75814400  0.59651200  1
  C  1849  1  0.64371600  0.75914700  0.60023700  1
  C  1850  1  0.64587100  0.72902500  0.59781100  1
  C  1852  1  0.58620500  0.72767500  0.59376400  1
  C  1853  1  0.55949700  0.70992900  0.58923800  1
  C  1857  1  0.51625000  0.72233700  0.56640700  1
  C  1858  1  0.47961600  0.73211800  0.56724500  1
  C  1866  1  0.14444000  0.22931300  0.59631600  1
  C  1868  1  0.08632300  0.22968700  0.60550200  1
  C  1869  1  0.08304100  0.25857600  0.59877200  1
  C  1871  1  0.14153300  0.25845600  0.58918500  1
  C  1872  1  0.16730000  0.27404200  0.57970400  1
  C  1876  1  0.21961700  0.26068600  0.56702800  1
  C  1877  1  0.25465000  0.25326400  0.57528200  1
  C  1885  1  0.14638200  0.75812400  0.09683300  1
  C  1887  1  0.08786300  0.75837800  0.10493400  1
  C  1888  1  0.08551400  0.72910000  0.09918700  1
  C  1890  1  0.14443500  0.72856100  0.09069800  1
  C  1891  1  0.17076400  0.71215700  0.08224200  1
  C  1895  1  0.22026700  0.72610800  0.06619700  1
  C  1896  1  0.25600500  0.73420500  0.07209500  1
  C  1904  1  0.58662000  0.22917700  0.09617100  1
  C  1906  1  0.64508100  0.22967400  0.10371900  1
  C  1907  1  0.64691300  0.25893000  0.09782500  1
  C  1909  1  0.58812300  0.25870800  0.08984800  1
  C  1910  1  0.56163100  0.27457300  0.08128700  1
  C  1914  1  0.51188000  0.26005100  0.06651000  1
  C  1915  1  0.47647200  0.25152200  0.07331300  1
  C  1923  1  0.14658100  0.22708900  0.37709900  1
  C  1925  1  0.08898000  0.22678800  0.36734900  1
  C  1926  1  0.08511500  0.25585300  0.37354100  1
  C  1928  1  0.14303600  0.25639900  0.38373100  1
  C  1929  1  0.16821600  0.27232300  0.39316400  1
  C  1933  1  0.22120500  0.26050900  0.40494400  1
  C  1934  1  0.25615900  0.25330700  0.39601200  1
  C  1942  1  0.58654900  0.75605500  0.37593200  1
  C  1944  1  0.64564000  0.75683900  0.37034000  1
  C  1945  1  0.64821200  0.72724600  0.37513600  1
  C  1947  1  0.58875800  0.72616800  0.38113800  1
  C  1948  1  0.56243200  0.70914100  0.38805000  1
  C  1952  1  0.51535500  0.72380300  0.40710300  1
  C  1953  1  0.47888400  0.73261400  0.40341400  1
  C  1961  1  0.37983400  0.13007400  0.75836600  1
  C  1963  1  0.35925200  0.15829200  0.72823400  1
  C  1964  1  0.35021400  0.13311000  0.71687700  1
  C  1966  1  0.37070800  0.10480900  0.74691400  1
  C  1967  1  0.37484200  0.07696000  0.75437300  1
  C  1971  1  0.32856600  0.05948100  0.77258500  1
  C  1972  1  0.31671400  0.05163900  0.79573700  1
  C  1980  1  0.35306900  0.85590500  0.75789900  1
  C  1982  1  0.36610800  0.83006000  0.72478600  1
  C  1983  1  0.38171700  0.85450500  0.71574400  1
  C  1985  1  0.36901700  0.88038200  0.74888300  1
  C  1986  1  0.37245500  0.90632000  0.75943500  1
  C  1990  1  0.41431500  0.92157900  0.78227500  1
  C  1991  1  0.42849900  0.91508400  0.80499500  1
  C  1999  1  0.35294900  0.85581400  0.21407200  1
  C  2001  1  0.37301000  0.82771600  0.24443700  1
  C  2002  1  0.38231800  0.85291700  0.25567300  1
  C  2004  1  0.36233300  0.88109200  0.22541400  1
  C  2005  1  0.35873100  0.90887100  0.21775600  1
  C  2009  1  0.40519300  0.92437800  0.19867000  1
  C  2010  1  0.41604100  0.93290100  0.17545300  1
  C  2018  1  0.37970700  0.13002800  0.21494200  1
  C  2020  1  0.36657100  0.15599900  0.24798700  1
  C  2021  1  0.35107800  0.13155100  0.25711700  1
  C  2023  1  0.36396000  0.10551700  0.22406700  1
  C  2024  1  0.36069500  0.07945400  0.21359000  1
  C  2028  1  0.32103900  0.06106500  0.19032100  1
  C  2029  1  0.30529400  0.06764700  0.16807200  1
  C  2037  1  0.87934300  0.63010200  0.75863200  1
  C  2039  1  0.85941200  0.65816400  0.72822600  1
  C  2040  1  0.84989400  0.63295600  0.71708000  1
  C  2042  1  0.86970900  0.60482400  0.74739100  1
  C  2043  1  0.87318100  0.57708500  0.75510800  1
  C  2047  1  0.82633700  0.56145400  0.77375500  1
  C  2048  1  0.81473800  0.55362200  0.79696000  1
  C  2056  1  0.85242500  0.35603600  0.75765900  1
  C  2058  1  0.86575800  0.32996900  0.72469400  1
  C  2059  1  0.88116200  0.35443600  0.71553700  1
  C  2061  1  0.86810500  0.38056000  0.74850900  1
  C  2062  1  0.87128900  0.40667000  0.75893700  1
  C  2066  1  0.91218900  0.42373200  0.78178500  1
  C  2067  1  0.92741100  0.41725400  0.80421100  1
  C  2075  1  0.85260100  0.35606000  0.21419400  1
  C  2077  1  0.87337600  0.32782000  0.24427300  1
  C  2078  1  0.88208000  0.35300000  0.25575600  1
  C  2080  1  0.86139000  0.38131700  0.22577700  1
  C  2081  1  0.85697300  0.40914300  0.21843700  1
  C  2085  1  0.90300900  0.42636100  0.19973300  1
  C  2086  1  0.91396800  0.43512500  0.17658800  1
  C  2094  1  0.87912000  0.62995100  0.21474600  1
  C  2096  1  0.86621900  0.65572800  0.24792000  1
  C  2097  1  0.85047400  0.63132100  0.25691900  1
  C  2099  1  0.86310700  0.60549300  0.22374100  1
  C  2100  1  0.85961700  0.57957600  0.21316600  1
  C  2104  1  0.81798800  0.56418200  0.19019300  1
  C  2105  1  0.80389100  0.57067100  0.16745000  1
  N  450  1  0.08762000  0.16626100  0.99844400  1
  N  453  1  0.14175200  0.15322700  0.97433100  1
  N  466  1  0.11794800  0.16031500  0.03117000  1
  N  467  1  0.11589800  0.15999000  0.94157600  1
  N  469  1  0.89960200  0.81923200  0.99792600  1
  N  472  1  0.84475400  0.83125600  0.97491700  1
  N  485  1  0.86997100  0.82530400  0.03125300  1
  N  486  1  0.86993400  0.82436300  0.94164400  1
  N  488  1  0.08439000  0.81887700  0.47326400  1
  N  491  1  0.13835300  0.83108300  0.49675200  1
  N  504  1  0.11462400  0.82464100  0.44021000  1
  N  505  1  0.11266300  0.82440000  0.52979800  1
  N  507  1  0.90277600  0.16745200  0.47568100  1
  N  510  1  0.84804800  0.15592300  0.49929500  1
  N  523  1  0.87317600  0.16203600  0.44269200  1
  N  524  1  0.87311600  0.16220200  0.53225400  1
  N  526  1  0.58676100  0.66805900  0.99853700  1
  N  529  1  0.64023200  0.65290100  0.97448600  1
  N  542  1  0.61676500  0.66121900  0.03130100  1
  N  543  1  0.61486400  0.66077800  0.94169100  1
  N  545  1  0.40063300  0.32021100  0.99790000  1
  N  548  1  0.34527800  0.33028900  0.97492000  1
  N  561  1  0.37079500  0.32506500  0.03124300  1
  N  562  1  0.37075800  0.32429900  0.94162800  1
  N  564  1  0.58342700  0.31726400  0.47321000  1
  N  567  1  0.63682800  0.33121200  0.49667900  1
  N  580  1  0.61347600  0.32369200  0.44014800  1
  N  581  1  0.61150000  0.32365100  0.52973600  1
  N  583  1  0.40412500  0.66678400  0.47562700  1
  N  586  1  0.34928200  0.65600500  0.49931800  1
  N  599  1  0.37433600  0.66199500  0.44268200  1
  N  600  1  0.37457200  0.66206700  0.53223800  1
  N  602  1  0.00632200  0.97093500  0.83083300  1
  N  605  1  0.97411200  0.01704800  0.84744100  1
  N  618  1  0.96480800  0.93949300  0.83746300  1
  N  619  1  0.01582100  0.04790300  0.83777100  1
  N  621  1  0.98550000  0.00983000  0.65781200  1
  N  624  1  0.99880800  0.97973000  0.62105200  1
  N  637  1  0.96915100  0.04992500  0.63939500  1
  N  638  1  0.01771900  0.94049400  0.64241300  1
  N  640  1  0.98047700  0.01466300  0.14077000  1
  N  643  1  0.01356900  0.96837300  0.12518600  1
  N  656  1  0.02215900  0.04609200  0.13459300  1
  N  657  1  0.97158300  0.93753100  0.13442100  1
  N  659  1  0.99988500  0.97577500  0.31549500  1
  N  662  1  0.99056300  0.00731400  0.35202900  1
  N  675  1  0.01810100  0.93636600  0.33395800  1
  N  676  1  0.96945700  0.04574800  0.33070400  1
  N  678  1  0.50604800  0.47122500  0.83166700  1
  N  681  1  0.47290300  0.51762900  0.84696300  1
  N  694  1  0.46417500  0.43988200  0.83754100  1
  N  695  1  0.51511600  0.54835100  0.83800700  1
  N  697  1  0.48690300  0.51001800  0.65731200  1
  N  700  1  0.49659900  0.47872100  0.62069000  1
  N  713  1  0.46881600  0.54956400  0.63892700  1
  N  714  1  0.51743700  0.44010700  0.64195700  1
  N  716  1  0.48033300  0.51495500  0.14121800  1
  N  719  1  0.51279100  0.46894000  0.12464000  1
  N  732  1  0.52171300  0.54653400  0.13455700  1
  N  733  1  0.47121900  0.43792600  0.13439500  1
  N  735  1  0.50152700  0.47610100  0.31509900  1
  N  738  1  0.48798800  0.50616000  0.35183400  1
  N  751  1  0.51764000  0.43595900  0.33352200  1
  N  752  1  0.46920900  0.54541900  0.33043900  1
  N  754  1  0.24215000  0.21362100  0.87333900  1
  N  757  1  0.24295400  0.27128500  0.87713100  1
  N  770  1  0.18441800  0.21254800  0.87735700  1
  N  771  1  0.30145600  0.27106200  0.87685900  1
  N  773  1  0.74330900  0.77057000  0.86947900  1
  N  776  1  0.73944700  0.71477100  0.88064100  1
  N  789  1  0.79948500  0.77242100  0.87882900  1
  N  790  1  0.68191500  0.71472500  0.87332900  1
  N  792  1  0.24071800  0.77237700  0.59944800  1
  N  795  1  0.24424200  0.71496600  0.59435400  1
  N  808  1  0.18340800  0.77306600  0.59413300  1
  N  809  1  0.30244900  0.71562800  0.59612900  1
  N  811  1  0.74373800  0.21634200  0.60400800  1
  N  814  1  0.73809300  0.27128900  0.59074000  1
  N  827  1  0.79992000  0.21411600  0.59404700  1
  N  828  1  0.68070300  0.27178500  0.59897200  1
  N  830  1  0.74501100  0.77157900  0.10351000  1
  N  833  1  0.74124000  0.71589300  0.09213500  1
  N  846  1  0.80146000  0.77329400  0.09433400  1
  N  847  1  0.68342700  0.71599600  0.09920900  1
  N  849  1  0.24266300  0.21610900  0.10265100  1
  N  852  1  0.24566200  0.27168400  0.09079400  1
  N  865  1  0.18633300  0.21367500  0.09386600  1
  N  866  1  0.30320800  0.27213000  0.09577000  1
  N  868  1  0.74642200  0.21369900  0.36933900  1
  N  871  1  0.73960500  0.26900900  0.38165200  1
  N  884  1  0.80215400  0.21225600  0.37977900  1
  N  885  1  0.68270900  0.26885000  0.37281000  1
  N  887  1  0.24254500  0.76994200  0.37096900  1
  N  890  1  0.24690800  0.71363700  0.38065100  1
  N  903  1  0.18550800  0.77112500  0.37795500  1
  N  904  1  0.30492300  0.71428100  0.37711600  1
  N  906  1  0.00081400  0.15584700  0.74832500  1
  N  909  1  0.98386900  0.10763400  0.72695300  1
  N  922  1  0.02086200  0.12746400  0.77808500  1
  N  923  1  0.96403200  0.13099300  0.69715400  1
  N  925  1  0.97959600  0.83171100  0.74523800  1
  N  928  1  0.00939800  0.87850000  0.72839900  1
  N  941  1  0.96624700  0.85798500  0.77772400  1
  N  942  1  0.02151900  0.85743500  0.69564400  1
  N  944  1  0.98609100  0.83009600  0.22429600  1
  N  947  1  0.00356200  0.87833700  0.24542000  1
  N  960  1  0.96649000  0.85835100  0.19431500  1
  N  961  1  0.02296500  0.85512600  0.27541400  1
  N  963  1  0.00756800  0.15429700  0.22752600  1
  N  966  1  0.97808900  0.10746400  0.24454900  1
  N  979  1  0.02097800  0.12787000  0.19510000  1
  N  980  1  0.96589300  0.12866500  0.27725400  1
  N  982  1  0.50088800  0.65580700  0.74835100  1
  N  985  1  0.48298300  0.60755200  0.72739200  1
  N  998  1  0.52033700  0.62757800  0.77836900  1
  N  999  1  0.46374300  0.63072800  0.69735700  1
  N  1001  1  0.47922600  0.33170400  0.74513700  1
  N  1004  1  0.50855300  0.37857300  0.72804800  1
  N  1017  1  0.46564900  0.35820300  0.77748800  1
  N  1018  1  0.52093200  0.35728000  0.69542500  1
  N  1020  1  0.48639100  0.33027900  0.22416000  1
  N  1023  1  0.50268100  0.37848300  0.24575800  1
  N  1036  1  0.46614700  0.35866600  0.19443900  1
  N  1037  1  0.52269800  0.35509900  0.27551500  1
  N  1039  1  0.50721300  0.65410000  0.22745600  1
  N  1042  1  0.47725500  0.60735200  0.24423300  1
  N  1055  1  0.52043800  0.62788500  0.19491300  1
  N  1056  1  0.46525600  0.62834300  0.27703900  1
  N  1506  1  0.46036400  0.16626100  0.99844400  1
  N  1509  1  0.51449600  0.15322700  0.97433100  1
  N  1522  1  0.49069200  0.16031500  0.03117000  1
  N  1523  1  0.48864200  0.15999000  0.94157600  1
  N  1525  1  0.27234600  0.81923200  0.99792600  1
  N  1528  1  0.21749800  0.83125600  0.97491700  1
  N  1541  1  0.24271500  0.82530400  0.03125300  1
  N  1542  1  0.24267800  0.82436300  0.94164400  1
  N  1544  1  0.45713400  0.81887700  0.47326400  1
  N  1547  1  0.51109700  0.83108300  0.49675200  1
  N  1560  1  0.48736800  0.82464100  0.44021000  1
  N  1561  1  0.48540700  0.82440000  0.52979800  1
  N  1563  1  0.27552000  0.16745200  0.47568100  1
  N  1566  1  0.22079200  0.15592300  0.49929500  1
  N  1579  1  0.24592000  0.16203600  0.44269200  1
  N  1580  1  0.24586000  0.16220200  0.53225400  1
  N  1582  1  0.95950500  0.66805900  0.99853700  1
  N  1585  1  0.01297600  0.65290100  0.97448600  1
  N  1598  1  0.98950900  0.66121900  0.03130100  1
  N  1599  1  0.98760800  0.66077800  0.94169100  1
  N  1601  1  0.77337700  0.32021100  0.99790000  1
  N  1604  1  0.71802200  0.33028900  0.97492000  1
  N  1617  1  0.74353900  0.32506500  0.03124300  1
  N  1618  1  0.74350200  0.32429900  0.94162800  1
  N  1620  1  0.95617100  0.31726400  0.47321000  1
  N  1623  1  0.00957197  0.33121200  0.49667900  1
  N  1636  1  0.98622000  0.32369200  0.44014800  1
  N  1637  1  0.98424400  0.32365100  0.52973600  1
  N  1639  1  0.77686900  0.66678400  0.47562700  1
  N  1642  1  0.72202600  0.65600500  0.49931800  1
  N  1655  1  0.74708000  0.66199500  0.44268200  1
  N  1656  1  0.74731600  0.66206700  0.53223800  1
  N  1658  1  0.37906600  0.97093500  0.83083300  1
  N  1661  1  0.34685600  0.01704800  0.84744100  1
  N  1674  1  0.33755200  0.93949300  0.83746300  1
  N  1675  1  0.38856500  0.04790300  0.83777100  1
  N  1677  1  0.35824400  0.00983000  0.65781200  1
  N  1680  1  0.37155200  0.97973000  0.62105200  1
  N  1693  1  0.34189500  0.04992500  0.63939500  1
  N  1694  1  0.39046300  0.94049400  0.64241300  1
  N  1696  1  0.35322100  0.01466300  0.14077000  1
  N  1699  1  0.38631300  0.96837300  0.12518600  1
  N  1712  1  0.39490300  0.04609200  0.13459300  1
  N  1713  1  0.34432700  0.93753100  0.13442100  1
  N  1715  1  0.37262900  0.97577500  0.31549500  1
  N  1718  1  0.36330700  0.00731400  0.35202900  1
  N  1731  1  0.39084500  0.93636600  0.33395800  1
  N  1732  1  0.34220100  0.04574800  0.33070400  1
  N  1734  1  0.87879200  0.47122500  0.83166700  1
  N  1737  1  0.84564700  0.51762900  0.84696300  1
  N  1750  1  0.83691900  0.43988200  0.83754100  1
  N  1751  1  0.88786000  0.54835100  0.83800700  1
  N  1753  1  0.85964700  0.51001800  0.65731200  1
  N  1756  1  0.86934300  0.47872100  0.62069000  1
  N  1769  1  0.84156000  0.54956400  0.63892700  1
  N  1770  1  0.89018100  0.44010700  0.64195700  1
  N  1772  1  0.85307700  0.51495500  0.14121800  1
  N  1775  1  0.88553500  0.46894000  0.12464000  1
  N  1788  1  0.89445700  0.54653400  0.13455700  1
  N  1789  1  0.84396300  0.43792600  0.13439500  1
  N  1791  1  0.87427100  0.47610100  0.31509900  1
  N  1794  1  0.86073200  0.50616000  0.35183400  1
  N  1807  1  0.89038400  0.43595900  0.33352200  1
  N  1808  1  0.84195300  0.54541900  0.33043900  1
  N  1810  1  0.61489400  0.21362100  0.87333900  1
  N  1813  1  0.61569800  0.27128500  0.87713100  1
  N  1826  1  0.55716200  0.21254800  0.87735700  1
  N  1827  1  0.67420000  0.27106200  0.87685900  1
  N  1829  1  0.11605300  0.77057000  0.86947900  1
  N  1832  1  0.11219100  0.71477100  0.88064100  1
  N  1845  1  0.17222900  0.77242100  0.87882900  1
  N  1846  1  0.05465900  0.71472500  0.87332900  1
  N  1848  1  0.61346200  0.77237700  0.59944800  1
  N  1851  1  0.61698600  0.71496600  0.59435400  1
  N  1864  1  0.55615200  0.77306600  0.59413300  1
  N  1865  1  0.67519300  0.71562800  0.59612900  1
  N  1867  1  0.11648200  0.21634200  0.60400800  1
  N  1870  1  0.11083700  0.27128900  0.59074000  1
  N  1883  1  0.17266400  0.21411600  0.59404700  1
  N  1884  1  0.05344700  0.27178500  0.59897200  1
  N  1886  1  0.11775500  0.77157900  0.10351000  1
  N  1889  1  0.11398400  0.71589300  0.09213500  1
  N  1902  1  0.17420400  0.77329400  0.09433400  1
  N  1903  1  0.05617100  0.71599600  0.09920900  1
  N  1905  1  0.61540700  0.21610900  0.10265100  1
  N  1908  1  0.61840600  0.27168400  0.09079400  1
  N  1921  1  0.55907700  0.21367500  0.09386600  1
  N  1922  1  0.67595200  0.27213000  0.09577000  1
  N  1924  1  0.11916600  0.21369900  0.36933900  1
  N  1927  1  0.11234900  0.26900900  0.38165200  1
  N  1940  1  0.17489800  0.21225600  0.37977900  1
  N  1941  1  0.05545300  0.26885000  0.37281000  1
  N  1943  1  0.61528900  0.76994200  0.37096900  1
  N  1946  1  0.61965200  0.71363700  0.38065100  1
  N  1959  1  0.55825200  0.77112500  0.37795500  1
  N  1960  1  0.67766700  0.71428100  0.37711600  1
  N  1962  1  0.37355800  0.15584700  0.74832500  1
  N  1965  1  0.35661300  0.10763400  0.72695300  1
  N  1978  1  0.39360600  0.12746400  0.77808500  1
  N  1979  1  0.33677600  0.13099300  0.69715400  1
  N  1981  1  0.35234000  0.83171100  0.74523800  1
  N  1984  1  0.38214200  0.87850000  0.72839900  1
  N  1997  1  0.33899100  0.85798500  0.77772400  1
  N  1998  1  0.39426300  0.85743500  0.69564400  1
  N  2000  1  0.35883500  0.83009600  0.22429600  1
  N  2003  1  0.37630600  0.87833700  0.24542000  1
  N  2016  1  0.33923400  0.85835100  0.19431500  1
  N  2017  1  0.39570900  0.85512600  0.27541400  1
  N  2019  1  0.38031200  0.15429700  0.22752600  1
  N  2022  1  0.35083300  0.10746400  0.24454900  1
  N  2035  1  0.39372200  0.12787000  0.19510000  1
  N  2036  1  0.33863700  0.12866500  0.27725400  1
  N  2038  1  0.87363200  0.65580700  0.74835100  1
  N  2041  1  0.85572700  0.60755200  0.72739200  1
  N  2054  1  0.89308100  0.62757800  0.77836900  1
  N  2055  1  0.83648700  0.63072800  0.69735700  1
  N  2057  1  0.85197000  0.33170400  0.74513700  1
  N  2060  1  0.88129700  0.37857300  0.72804800  1
  N  2073  1  0.83839300  0.35820300  0.77748800  1
  N  2074  1  0.89367600  0.35728000  0.69542500  1
  N  2076  1  0.85913500  0.33027900  0.22416000  1
  N  2079  1  0.87542500  0.37848300  0.24575800  1
  N  2092  1  0.83889100  0.35866600  0.19443900  1
  N  2093  1  0.89544200  0.35509900  0.27551500  1
  N  2095  1  0.87995700  0.65410000  0.22745600  1
  N  2098  1  0.84999900  0.60735200  0.24423300  1
  N  2111  1  0.89318200  0.62788500  0.19491300  1
  N  2112  1  0.83800000  0.62834300  0.27703900  1
  O  17  1  0.05522900  0.13665400  0.89303200  1
  O  18  1  0.06970300  0.17505300  0.82534300  1
  O  45  1  0.93016500  0.84722300  0.89236500  1
  O  46  1  0.91585800  0.80971900  0.82458200  1
  O  73  1  0.05030700  0.84540300  0.57897900  1
  O  74  1  0.06995300  0.80987700  0.64781200  1
  O  101  1  0.93289700  0.13888600  0.58180100  1
  O  102  1  0.91683800  0.17886000  0.64865100  1
  O  129  1  0.93148000  0.84884900  0.07915900  1
  O  130  1  0.91753400  0.81047300  0.14723000  1
  O  157  1  0.05721100  0.13706100  0.08006700  1
  O  158  1  0.07082400  0.17574400  0.14775300  1
  O  185  1  0.93660900  0.14082200  0.39416900  1
  O  186  1  0.91728000  0.17631300  0.32496900  1
  O  213  1  0.05423300  0.84820800  0.39112800  1
  O  214  1  0.06948300  0.80739400  0.32427700  1
  O  241  1  0.55439400  0.63801400  0.89325300  1
  O  242  1  0.56956000  0.67536900  0.82535400  1
  O  269  1  0.43042600  0.34769600  0.89211200  1
  O  270  1  0.41562200  0.30999200  0.82450500  1
  O  297  1  0.54927800  0.34388700  0.57889300  1
  O  298  1  0.56992000  0.30963200  0.64786700  1
  O  325  1  0.43364800  0.63840000  0.58205400  1
  O  326  1  0.41709600  0.67854100  0.64864800  1
  O  353  1  0.43183800  0.34925100  0.07928500  1
  O  354  1  0.41765200  0.31073100  0.14723500  1
  O  381  1  0.55619800  0.63888100  0.08009600  1
  O  382  1  0.57070200  0.67611800  0.14797700  1
  O  409  1  0.43703200  0.64033500  0.39388800  1
  O  410  1  0.41720800  0.67608900  0.32493100  1
  O  437  1  0.55324400  0.34628600  0.39109500  1
  O  438  1  0.56974800  0.30699900  0.32397900  1
  O  457  1  0.19969600  0.14569500  0.99395300  1
  O  458  1  0.17337000  0.12244500  0.01938300  1
  O  476  1  0.78716600  0.83953400  0.99553900  1
  O  477  1  0.81327400  0.86150800  0.02111100  1
  O  495  1  0.19607900  0.83868000  0.47663900  1
  O  496  1  0.17020500  0.86090100  0.45054900  1
  O  514  1  0.79052900  0.14972200  0.47927600  1
  O  515  1  0.81708400  0.12614700  0.45377500  1
  O  533  1  0.69768900  0.64225300  0.99407300  1
  O  534  1  0.67051500  0.62152800  0.02006100  1
  O  552  1  0.28743300  0.33567800  0.99555000  1
  O  553  1  0.31245900  0.35929700  0.02106500  1
  O  571  1  0.69424900  0.34104100  0.47653600  1
  O  572  1  0.66720500  0.36201100  0.45063800  1
  O  590  1  0.29152500  0.64974800  0.47955700  1
  O  591  1  0.31710800  0.62750300  0.45325700  1
  O  609  1  0.90452100  0.99327600  0.84534300  1
  O  610  1  0.92456000  0.97420000  0.87506900  1
  O  628  1  0.00630500  0.02768600  0.58973700  1
  O  629  1  0.95346200  0.03091300  0.59326900  1
  O  647  1  0.08271200  0.99095000  0.12818400  1
  O  648  1  0.06523400  0.01212300  0.09871400  1
  O  666  1  0.98567600  0.96230400  0.38504800  1
  O  667  1  0.03799300  0.95603100  0.37864200  1
  O  685  1  0.40324400  0.49379100  0.84354300  1
  O  686  1  0.42124300  0.47543900  0.87377800  1
  O  704  1  0.50165000  0.52485400  0.58816800  1
  O  705  1  0.44899700  0.52945600  0.59402200  1
  O  723  1  0.58245000  0.49195700  0.12630200  1
  O  724  1  0.56292400  0.51296600  0.09749600  1
  O  742  1  0.47995200  0.45898400  0.38334900  1
  O  743  1  0.53265300  0.45421900  0.37966100  1
  O  761  1  0.18398300  0.29817300  0.86968700  1
  O  762  1  0.15539000  0.26499300  0.88523100  1
  O  780  1  0.79237800  0.68546200  0.89322000  1
  O  781  1  0.82715600  0.71858900  0.88559300  1
  O  799  1  0.18836400  0.68510600  0.59600300  1
  O  800  1  0.15571200  0.72035400  0.58837400  1
  O  818  1  0.78955900  0.29956000  0.57554900  1
  O  819  1  0.82579100  0.26772400  0.58544800  1
  O  837  1  0.79494000  0.68594100  0.08126900  1
  O  838  1  0.82928800  0.72009700  0.08598800  1
  O  856  1  0.19212100  0.30065200  0.07913800  1
  O  857  1  0.15777700  0.26654400  0.08581500  1
  O  875  1  0.79001100  0.29775600  0.39747500  1
  O  876  1  0.82688500  0.26691300  0.38690700  1
  O  894  1  0.19240600  0.68297000  0.38582700  1
  O  895  1  0.15832500  0.71861000  0.38623200  1
  O  913  1  0.02987800  0.06676300  0.75132800  1
  O  914  1  0.98875900  0.07099400  0.77386900  1
  O  932  1  0.97599600  0.92292200  0.75801600  1
  O  933  1  0.01234600  0.90459300  0.77948300  1
  O  951  1  0.95852500  0.91953100  0.22126000  1
  O  952  1  0.99852100  0.91504400  0.19808500  1
  O  970  1  0.01241100  0.06365800  0.21473700  1
  O  971  1  0.97419800  0.08147700  0.19389500  1
  O  989  1  0.52785400  0.56604000  0.75227300  1
  O  990  1  0.48728000  0.57133000  0.77471500  1
  O  1008  1  0.47418800  0.42254600  0.75758500  1
  O  1009  1  0.51195400  0.40478400  0.77873800  1
  O  1027  1  0.45654600  0.41950300  0.22159500  1
  O  1028  1  0.49690900  0.41567900  0.19884000  1
  O  1046  1  0.51053600  0.56292100  0.21460900  1
  O  1047  1  0.47429300  0.58135000  0.19310500  1
  O  1073  1  0.42797300  0.13665400  0.89303200  1
  O  1074  1  0.44244700  0.17505300  0.82534300  1
  O  1101  1  0.30290900  0.84722300  0.89236500  1
  O  1102  1  0.28860200  0.80971900  0.82458200  1
  O  1129  1  0.42305100  0.84540300  0.57897900  1
  O  1130  1  0.44269700  0.80987700  0.64781200  1
  O  1157  1  0.30564100  0.13888600  0.58180100  1
  O  1158  1  0.28958200  0.17886000  0.64865100  1
  O  1185  1  0.30422400  0.84884900  0.07915900  1
  O  1186  1  0.29027800  0.81047300  0.14723000  1
  O  1213  1  0.42995500  0.13706100  0.08006700  1
  O  1214  1  0.44356800  0.17574400  0.14775300  1
  O  1241  1  0.30935300  0.14082200  0.39416900  1
  O  1242  1  0.29002400  0.17631300  0.32496900  1
  O  1269  1  0.42697700  0.84820800  0.39112800  1
  O  1270  1  0.44222700  0.80739400  0.32427700  1
  O  1297  1  0.92713800  0.63801400  0.89325300  1
  O  1298  1  0.94230400  0.67536900  0.82535400  1
  O  1325  1  0.80317000  0.34769600  0.89211200  1
  O  1326  1  0.78836600  0.30999200  0.82450500  1
  O  1353  1  0.92202200  0.34388700  0.57889300  1
  O  1354  1  0.94266400  0.30963200  0.64786700  1
  O  1381  1  0.80639200  0.63840000  0.58205400  1
  O  1382  1  0.78984000  0.67854100  0.64864800  1
  O  1409  1  0.80458200  0.34925100  0.07928500  1
  O  1410  1  0.79039600  0.31073100  0.14723500  1
  O  1437  1  0.92894200  0.63888100  0.08009600  1
  O  1438  1  0.94344600  0.67611800  0.14797700  1
  O  1465  1  0.80977600  0.64033500  0.39388800  1
  O  1466  1  0.78995200  0.67608900  0.32493100  1
  O  1493  1  0.92598800  0.34628600  0.39109500  1
  O  1494  1  0.94249200  0.30699900  0.32397900  1
  O  1513  1  0.57244000  0.14569500  0.99395300  1
  O  1514  1  0.54611400  0.12244500  0.01938300  1
  O  1532  1  0.15991000  0.83953400  0.99553900  1
  O  1533  1  0.18601800  0.86150800  0.02111100  1
  O  1551  1  0.56882300  0.83868000  0.47663900  1
  O  1552  1  0.54294900  0.86090100  0.45054900  1
  O  1570  1  0.16327300  0.14972200  0.47927600  1
  O  1571  1  0.18982800  0.12614700  0.45377500  1
  O  1589  1  0.07043300  0.64225300  0.99407300  1
  O  1590  1  0.04325900  0.62152800  0.02006100  1
  O  1608  1  0.66017700  0.33567800  0.99555000  1
  O  1609  1  0.68520300  0.35929700  0.02106500  1
  O  1627  1  0.06699300  0.34104100  0.47653600  1
  O  1628  1  0.03994900  0.36201100  0.45063800  1
  O  1646  1  0.66426900  0.64974800  0.47955700  1
  O  1647  1  0.68985200  0.62750300  0.45325700  1
  O  1665  1  0.27726500  0.99327600  0.84534300  1
  O  1666  1  0.29730400  0.97420000  0.87506900  1
  O  1684  1  0.37904900  0.02768600  0.58973700  1
  O  1685  1  0.32620600  0.03091300  0.59326900  1
  O  1703  1  0.45545600  0.99095000  0.12818400  1
  O  1704  1  0.43797800  0.01212300  0.09871400  1
  O  1722  1  0.35842000  0.96230400  0.38504800  1
  O  1723  1  0.41073700  0.95603100  0.37864200  1
  O  1741  1  0.77598800  0.49379100  0.84354300  1
  O  1742  1  0.79398700  0.47543900  0.87377800  1
  O  1760  1  0.87439400  0.52485400  0.58816800  1
  O  1761  1  0.82174100  0.52945600  0.59402200  1
  O  1779  1  0.95519400  0.49195700  0.12630200  1
  O  1780  1  0.93566800  0.51296600  0.09749600  1
  O  1798  1  0.85269600  0.45898400  0.38334900  1
  O  1799  1  0.90539700  0.45421900  0.37966100  1
  O  1817  1  0.55672700  0.29817300  0.86968700  1
  O  1818  1  0.52813400  0.26499300  0.88523100  1
  O  1836  1  0.16512200  0.68546200  0.89322000  1
  O  1837  1  0.19990000  0.71858900  0.88559300  1
  O  1855  1  0.56110800  0.68510600  0.59600300  1
  O  1856  1  0.52845600  0.72035400  0.58837400  1
  O  1874  1  0.16230300  0.29956000  0.57554900  1
  O  1875  1  0.19853500  0.26772400  0.58544800  1
  O  1893  1  0.16768400  0.68594100  0.08126900  1
  O  1894  1  0.20203200  0.72009700  0.08598800  1
  O  1912  1  0.56486500  0.30065200  0.07913800  1
  O  1913  1  0.53052100  0.26654400  0.08581500  1
  O  1931  1  0.16275500  0.29775600  0.39747500  1
  O  1932  1  0.19962900  0.26691300  0.38690700  1
  O  1950  1  0.56515000  0.68297000  0.38582700  1
  O  1951  1  0.53106900  0.71861000  0.38623200  1
  O  1969  1  0.40262200  0.06676300  0.75132800  1
  O  1970  1  0.36150300  0.07099400  0.77386900  1
  O  1988  1  0.34874000  0.92292200  0.75801600  1
  O  1989  1  0.38509000  0.90459300  0.77948300  1
  O  2007  1  0.33126900  0.91953100  0.22126000  1
  O  2008  1  0.37126500  0.91504400  0.19808500  1
  O  2026  1  0.38515500  0.06365800  0.21473700  1
  O  2027  1  0.34694200  0.08147700  0.19389500  1
  O  2045  1  0.90059800  0.56604000  0.75227300  1
  O  2046  1  0.86002400  0.57133000  0.77471500  1
  O  2064  1  0.84693200  0.42254600  0.75758500  1
  O  2065  1  0.88469800  0.40478400  0.77873800  1
  O  2083  1  0.82929000  0.41950300  0.22159500  1
  O  2084  1  0.86965300  0.41567900  0.19884000  1
  O  2102  1  0.88328000  0.56292100  0.21460900  1
  O  2103  1  0.84703700  0.58135000  0.19310500  1
