# generated using pymatgen
data_H36C51N8
_symmetry_space_group_name_H-M   'P 1'
_cell_length_a   30.68600000
_cell_length_b   33.82110000
_cell_length_c   63.20510000
_cell_angle_alpha   90.00000000
_cell_angle_beta   90.00000000
_cell_angle_gamma   89.99970000
_symmetry_Int_Tables_number   1
_chemical_formula_structural   H36C51N8
_chemical_formula_sum   'H576 C816 N128'
_cell_volume   65596.41910862
_cell_formula_units_Z   16
loop_
 _symmetry_equiv_pos_site_id
 _symmetry_equiv_pos_as_xyz
  1  'x, y, z'
loop_
 _atom_site_type_symbol
 _atom_site_label
 _atom_site_symmetry_multiplicity
 _atom_site_fract_x
 _atom_site_fract_y
 _atom_site_fract_z
 _atom_site_occupancy
  H  25  1  0.91245000  0.60975600  0.83945300  1
  H  26  1  0.94531300  0.67195900  0.83189300  1
  H  27  1  0.94520500  0.81806000  0.83199100  1
  H  28  1  0.91365800  0.87954900  0.84055900  1
  H  29  1  0.80303200  0.82202400  0.86455500  1
  H  30  1  0.80300800  0.66859200  0.86425000  1
  H  31  1  0.81851400  0.74551400  0.81520900  1
  H  32  1  0.68206100  0.73948400  0.81181600  1
  H  33  1  0.67769800  0.74349400  0.84915300  1
  H  34  1  0.89006500  0.74532000  0.88978000  1
  H  35  1  0.74487900  0.74557100  0.91959200  1
  H  36  1  0.80546300  0.74553500  0.94225200  1
  H  39  1  0.94739600  0.74525900  0.84658000  1
  H  40  1  0.92259300  0.74498900  0.82124200  1
  H  42  1  0.72156000  0.77177700  0.88220100  1
  H  43  1  0.72156200  0.71931200  0.88223000  1
  H  47  1  0.80103000  0.59850900  0.85824100  1
  H  48  1  0.80574200  0.89361600  0.86458100  1
  H  49  1  0.92040100  0.74544000  0.92654200  1
  H  51  1  0.78396100  0.73773700  0.78134800  1
  H  76  1  0.91241200  0.88124800  0.15157300  1
  H  77  1  0.94529600  0.81905300  0.15913200  1
  H  78  1  0.94517600  0.67291100  0.15904200  1
  H  79  1  0.91360200  0.61143200  0.15048400  1
  H  80  1  0.80314800  0.66898900  0.12632200  1
  H  81  1  0.80312300  0.82238900  0.12662900  1
  H  82  1  0.81846600  0.74553200  0.17559900  1
  H  83  1  0.68203600  0.75123400  0.17876400  1
  H  84  1  0.67804000  0.74741100  0.14136600  1
  H  85  1  0.89108000  0.74567500  0.10169100  1
  H  86  1  0.74755400  0.74542300  0.07052600  1
  H  87  1  0.80943700  0.74545000  0.04854500  1
  H  90  1  0.94744900  0.74573300  0.14441500  1
  H  91  1  0.92259200  0.74600200  0.16974100  1
  H  93  1  0.72252500  0.71925300  0.10816200  1
  H  94  1  0.72252200  0.77166300  0.10813000  1
  H  98  1  0.80103400  0.89248700  0.13275200  1
  H  99  1  0.80573100  0.59737900  0.12641800  1
  H  100  1  0.92352100  0.74554900  0.06688200  1
  H  102  1  0.78382000  0.75324500  0.20943100  1
  H  127  1  0.89212100  0.11152200  0.15039100  1
  H  128  1  0.86056800  0.17299600  0.15896900  1
  H  129  1  0.86037400  0.31909700  0.15913100  1
  H  130  1  0.89323900  0.38132100  0.15159000  1
  H  131  1  0.00260600  0.32255200  0.12668700  1
  H  132  1  0.00282400  0.16911800  0.12649600  1
  H  133  1  0.98723500  0.24626000  0.17579400  1
  H  134  1  0.12364500  0.23926900  0.17917700  1
  H  135  1  0.12802100  0.24334300  0.14184300  1
  H  136  1  0.91566800  0.24568400  0.10121900  1
  H  137  1  0.06085100  0.24546300  0.07140500  1
  H  138  1  0.00026600  0.24537200  0.04874600  1
  H  141  1  0.85834000  0.24574300  0.14441500  1
  H  142  1  0.88313700  0.24606900  0.16975300  1
  H  144  1  0.08432100  0.27183700  0.10874400  1
  H  145  1  0.08402400  0.21937300  0.10881800  1
  H  149  1  0.99999200  0.09743500  0.12638000  1
  H  150  1  0.00471100  0.39252300  0.13283100  1
  H  151  1  0.88532800  0.24555100  0.06445800  1
  H  153  1  0.02177700  0.23768400  0.20962700  1
  H  178  1  0.89218000  0.37948800  0.84055700  1
  H  179  1  0.86060000  0.31802400  0.83198700  1
  H  180  1  0.86039200  0.17187800  0.83183900  1
  H  181  1  0.89327900  0.10966200  0.83938000  1
  H  182  1  0.00249200  0.16845500  0.86442600  1
  H  183  1  0.00270700  0.32186300  0.86462000  1
  H  184  1  0.98728400  0.24477000  0.81539100  1
  H  185  1  0.12366400  0.25145600  0.81223300  1
  H  186  1  0.12767900  0.24759500  0.84963300  1
  H  187  1  0.91465300  0.24531100  0.88930400  1
  H  188  1  0.05817800  0.24553700  0.92047000  1
  H  189  1  0.99629700  0.24563800  0.94245200  1
  H  192  1  0.85828700  0.24525300  0.84658300  1
  H  193  1  0.88314100  0.24492700  0.82125800  1
  H  195  1  0.08335300  0.21919000  0.88288600  1
  H  196  1  0.08306600  0.27160100  0.88281500  1
  H  200  1  0.00001200  0.39357200  0.86460500  1
  H  201  1  0.00470800  0.09848400  0.85819200  1
  H  202  1  0.88221300  0.24545400  0.92411600  1
  H  204  1  0.02191100  0.25329000  0.78159000  1
  H  229  1  0.41251300  0.10971800  0.33946400  1
  H  230  1  0.44535900  0.17193600  0.33190800  1
  H  231  1  0.44518000  0.31801100  0.33203900  1
  H  232  1  0.41364700  0.37949000  0.34062600  1
  H  233  1  0.30286400  0.32193200  0.36445300  1
  H  234  1  0.30302300  0.16849800  0.36423600  1
  H  235  1  0.31828100  0.24564500  0.31494400  1
  H  236  1  0.18150500  0.24677300  0.31132600  1
  H  237  1  0.17750300  0.24558400  0.34887500  1
  H  238  1  0.38992600  0.24532000  0.38970600  1
  H  239  1  0.24474300  0.24554200  0.41946000  1
  H  240  1  0.30531100  0.24558900  0.44215700  1
  H  243  1  0.44732700  0.24526000  0.34659200  1
  H  244  1  0.42260900  0.24495300  0.32123500  1
  H  246  1  0.22151400  0.27162400  0.38195500  1
  H  247  1  0.22134400  0.21917700  0.38208000  1
  H  251  1  0.30105200  0.09847700  0.35824300  1
  H  252  1  0.30574800  0.39359800  0.36461100  1
  H  253  1  0.42026600  0.24545300  0.42649700  1
  H  255  1  0.28307000  0.25269200  0.28078400  1
  H  280  1  0.41245800  0.38128800  0.65157700  1
  H  281  1  0.44532600  0.31907800  0.65913000  1
  H  282  1  0.44515000  0.17296500  0.65899600  1
  H  283  1  0.41358200  0.11149200  0.65043000  1
  H  284  1  0.30297100  0.16908400  0.62643200  1
  H  285  1  0.30313400  0.32248800  0.62664700  1
  H  286  1  0.31822900  0.24534400  0.67586500  1
  H  287  1  0.18151500  0.24426500  0.67924300  1
  H  288  1  0.17784900  0.24541000  0.64164300  1
  H  289  1  0.39094300  0.24567800  0.60176000  1
  H  290  1  0.24740800  0.24545700  0.57065500  1
  H  291  1  0.30927400  0.24539700  0.54862800  1
  H  294  1  0.44738200  0.24573600  0.64440700  1
  H  295  1  0.42260200  0.24604100  0.66975000  1
  H  297  1  0.22247200  0.21940500  0.60840500  1
  H  298  1  0.22230900  0.27179800  0.60828100  1
  H  302  1  0.30105200  0.39251800  0.63276500  1
  H  303  1  0.30573800  0.09739500  0.62638900  1
  H  304  1  0.42338500  0.24554100  0.56692600  1
  H  306  1  0.28291600  0.23831000  0.70999500  1
  H  331  1  0.39208400  0.61148800  0.65038200  1
  H  332  1  0.36055400  0.67297300  0.65896400  1
  H  333  1  0.36042400  0.81904500  0.65908400  1
  H  334  1  0.39327600  0.88125700  0.65152800  1
  H  335  1  0.50280200  0.82245700  0.62679600  1
  H  336  1  0.50283800  0.66902200  0.62651900  1
  H  337  1  0.48746600  0.74638900  0.67604500  1
  H  338  1  0.62424800  0.74648600  0.67967600  1
  H  339  1  0.62825300  0.74539500  0.64212500  1
  H  340  1  0.41583100  0.74568600  0.60129100  1
  H  341  1  0.56101400  0.74543500  0.57153600  1
  H  342  1  0.50044300  0.74543000  0.54883800  1
  H  345  1  0.35842600  0.74574500  0.64440700  1
  H  346  1  0.38315100  0.74603100  0.66976200  1
  H  348  1  0.58439300  0.77168300  0.60898900  1
  H  349  1  0.58426900  0.71923600  0.60896600  1
  H  353  1  0.49999900  0.59740400  0.62638300  1
  H  354  1  0.50474400  0.89251700  0.63278700  1
  H  355  1  0.38548800  0.74556300  0.56450000  1
  H  357  1  0.52266800  0.75262000  0.71023100  1
  H  382  1  0.39214200  0.87952600  0.34056400  1
  H  383  1  0.36058400  0.81804900  0.33199700  1
  H  384  1  0.36045300  0.67193300  0.33187500  1
  H  385  1  0.39333200  0.60973200  0.33942500  1
  H  386  1  0.50269100  0.66855500  0.36431400  1
  H  387  1  0.50272700  0.82196200  0.36459400  1
  H  388  1  0.48751500  0.74459800  0.31513900  1
  H  389  1  0.62423900  0.74456500  0.31174800  1
  H  390  1  0.62790500  0.74562600  0.34935100  1
  H  391  1  0.41481400  0.74531300  0.38923900  1
  H  392  1  0.55834900  0.74557400  0.42034400  1
  H  393  1  0.49648300  0.74558500  0.44236900  1
  H  396  1  0.35837400  0.74525800  0.34659200  1
  H  397  1  0.38315400  0.74496900  0.32125100  1
  H  399  1  0.58343200  0.71934600  0.38264600  1
  H  400  1  0.58330500  0.77173900  0.38266500  1
  H  404  1  0.50001600  0.89360800  0.36460500  1
  H  405  1  0.50475100  0.59848400  0.35818000  1
  H  406  1  0.38237200  0.74543900  0.42407300  1
  H  408  1  0.52282100  0.73841100  0.28098600  1
  H  419  1  0.82789100  0.74551500  0.01595100  1
  H  420  1  0.82276700  0.74549100  0.97893500  1
  H  422  1  0.03443800  0.74547600  0.94802900  1
  H  423  1  0.06567400  0.71915300  0.96684500  1
  H  424  1  0.06567700  0.77181200  0.96683900  1
  H  426  1  0.08298500  0.74550400  0.00296900  1
  H  427  1  0.05641900  0.71926400  0.02337300  1
  H  428  1  0.05641500  0.77175000  0.02336900  1
  H  441  1  0.97784200  0.24546800  0.97504900  1
  H  442  1  0.98296300  0.24550000  0.01206500  1
  H  444  1  0.77129300  0.24552200  0.04296600  1
  H  445  1  0.74005500  0.21918400  0.02415600  1
  H  446  1  0.74005700  0.27184300  0.02414900  1
  H  448  1  0.72275100  0.24549300  0.98802600  1
  H  449  1  0.74931800  0.21924600  0.96762500  1
  H  450  1  0.74931500  0.27173400  0.96762200  1
  H  463  1  0.32789100  0.24552100  0.51597100  1
  H  464  1  0.32275500  0.24549500  0.47893900  1
  H  466  1  0.53443500  0.24547900  0.44803000  1
  H  467  1  0.56566800  0.21915500  0.46684800  1
  H  468  1  0.56567100  0.27181400  0.46684200  1
  H  470  1  0.58297500  0.24550500  0.50296700  1
  H  471  1  0.55641600  0.21926700  0.52337100  1
  H  472  1  0.55641300  0.27175200  0.52336900  1
  H  485  1  0.47786900  0.74547600  0.47502600  1
  H  486  1  0.48299800  0.74550500  0.51206000  1
  H  488  1  0.27132200  0.74552300  0.54296700  1
  H  489  1  0.24008600  0.71918600  0.52415500  1
  H  490  1  0.24008600  0.77184500  0.52414900  1
  H  492  1  0.22278100  0.74549400  0.48802800  1
  H  493  1  0.24934400  0.71924800  0.46762800  1
  H  494  1  0.24934100  0.77173400  0.46762500  1
  H  507  1  0.91852600  0.94265100  0.83263700  1
  H  508  1  0.96418700  0.99939400  0.83190000  1
  H  510  1  0.87109000  0.11965600  0.90437100  1
  H  511  1  0.84927100  0.09045300  0.92501800  1
  H  512  1  0.81435300  0.11071500  0.90528900  1
  H  514  1  0.78155600  0.04926900  0.92097500  1
  H  515  1  0.79236700  0.99801100  0.92159800  1
  H  516  1  0.75758000  0.01802200  0.90187500  1
  H  529  1  0.91852200  0.54833800  0.15836300  1
  H  530  1  0.96418000  0.49159800  0.15910200  1
  H  532  1  0.87109000  0.37134000  0.08662500  1
  H  533  1  0.84927100  0.40054600  0.06598000  1
  H  534  1  0.81435300  0.38028100  0.08570600  1
  H  536  1  0.78155400  0.44172800  0.07002400  1
  H  537  1  0.79236600  0.49298300  0.06939900  1
  H  538  1  0.75757900  0.47297500  0.08912200  1
  H  551  1  0.88720800  0.04837500  0.15834600  1
  H  552  1  0.84157600  0.99160600  0.15910400  1
  H  554  1  0.93463800  0.87134200  0.08662900  1
  H  555  1  0.95645200  0.90054500  0.06598000  1
  H  556  1  0.99137400  0.88028400  0.08570600  1
  H  558  1  0.02417300  0.94172600  0.07002100  1
  H  559  1  0.01336300  0.99298400  0.06939400  1
  H  560  1  0.04814800  0.97297500  0.08911900  1
  H  573  1  0.88716300  0.44262600  0.83267200  1
  H  574  1  0.84156300  0.49940200  0.83191500  1
  H  576  1  0.93464400  0.61965200  0.90437100  1
  H  577  1  0.95645600  0.59045100  0.92502000  1
  H  578  1  0.99138000  0.61071000  0.90529400  1
  H  580  1  0.02417600  0.54926800  0.92098000  1
  H  581  1  0.01337000  0.49801000  0.92160500  1
  H  582  1  0.04815400  0.51801800  0.90188100  1
  H  595  1  0.41856100  0.44263200  0.33265200  1
  H  596  1  0.46419800  0.49939800  0.33190300  1
  H  598  1  0.37110300  0.61965700  0.40436900  1
  H  599  1  0.34928500  0.59045400  0.42501600  1
  H  600  1  0.31436700  0.61071400  0.40528800  1
  H  602  1  0.28157000  0.54927000  0.42097400  1
  H  603  1  0.29238000  0.49801200  0.42159900  1
  H  604  1  0.25759200  0.51802300  0.40187600  1
  H  617  1  0.41855800  0.04835700  0.65835000  1
  H  618  1  0.46419500  0.99159400  0.65909500  1
  H  620  1  0.37110000  0.87134500  0.58662700  1
  H  621  1  0.34928200  0.90055000  0.56597900  1
  H  622  1  0.31436400  0.88028600  0.58570700  1
  H  624  1  0.28156700  0.94173200  0.57002300  1
  H  625  1  0.29237700  0.99298900  0.56939800  1
  H  626  1  0.25758900  0.97298100  0.58912200  1
  H  639  1  0.38723800  0.54837000  0.65835300  1
  H  640  1  0.34159100  0.49161600  0.65910600  1
  H  642  1  0.43465000  0.37134200  0.58662800  1
  H  643  1  0.45646500  0.40054500  0.56597900  1
  H  644  1  0.49138600  0.38028500  0.58570700  1
  H  646  1  0.52418300  0.44172600  0.57001900  1
  H  647  1  0.51337700  0.49298400  0.56939400  1
  H  648  1  0.54815800  0.47297600  0.58911800  1
  H  661  1  0.38719200  0.94263600  0.33266400  1
  H  662  1  0.34157500  0.99939700  0.33191300  1
  H  664  1  0.43465700  0.11965500  0.40437200  1
  H  665  1  0.45646800  0.09045500  0.42502100  1
  H  666  1  0.49139300  0.11071400  0.40529500  1
  H  668  1  0.52419000  0.04927000  0.42098200  1
  H  669  1  0.51338000  0.99801200  0.42160700  1
  H  670  1  0.54816500  0.01802300  0.40188200  1
  H  683  1  0.65642600  0.71336800  0.71199000  1
  H  684  1  0.71784400  0.71029300  0.73535500  1
  H  686  1  0.65447100  0.81867100  0.81895600  1
  H  687  1  0.59809300  0.81165600  0.82329900  1
  H  688  1  0.61736600  0.85573100  0.81103700  1
  H  690  1  0.54079000  0.84181900  0.79970900  1
  H  691  1  0.51200200  0.80645700  0.78467400  1
  H  692  1  0.53202700  0.85011300  0.77246800  1
  H  705  1  0.65655600  0.77756900  0.27901200  1
  H  706  1  0.71788300  0.78068700  0.25558800  1
  H  708  1  0.65445800  0.67234500  0.17204300  1
  H  709  1  0.59807700  0.67933500  0.16769700  1
  H  710  1  0.61736900  0.63528300  0.17997200  1
  H  712  1  0.54079300  0.64919100  0.19129400  1
  H  713  1  0.51200200  0.68454500  0.20633400  1
  H  714  1  0.53203400  0.64088600  0.21853400  1
  H  727  1  0.14931100  0.21338200  0.27901400  1
  H  728  1  0.08789200  0.21029600  0.25564700  1
  H  730  1  0.15125700  0.31866600  0.17204000  1
  H  731  1  0.20763800  0.31165800  0.16769700  1
  H  732  1  0.18835800  0.35572500  0.17996300  1
  H  734  1  0.26493700  0.34181600  0.19128800  1
  H  735  1  0.29372600  0.30645700  0.20632500  1
  H  736  1  0.27369700  0.35011300  0.21852800  1
  H  749  1  0.14918400  0.27754900  0.71198000  1
  H  750  1  0.08785600  0.28068100  0.73540300  1
  H  752  1  0.15127000  0.17234900  0.81895600  1
  H  753  1  0.20765400  0.17932900  0.82330100  1
  H  754  1  0.18835200  0.13528000  0.81102100  1
  H  756  1  0.26493100  0.14918200  0.79970100  1
  H  757  1  0.29372600  0.18453300  0.78466100  1
  H  758  1  0.27368700  0.14088000  0.77246000  1
  H  785  1  0.42362800  0.60975600  0.83945300  1
  H  786  1  0.45649100  0.67195900  0.83189300  1
  H  787  1  0.45638300  0.81806000  0.83199100  1
  H  788  1  0.42483600  0.87954900  0.84055900  1
  H  789  1  0.31421000  0.82202400  0.86455500  1
  H  790  1  0.31418600  0.66859200  0.86425000  1
  H  791  1  0.32969200  0.74551400  0.81520900  1
  H  792  1  0.19323900  0.73948400  0.81181600  1
  H  793  1  0.18887600  0.74349400  0.84915300  1
  H  794  1  0.40124300  0.74532000  0.88978000  1
  H  795  1  0.25605700  0.74557100  0.91959200  1
  H  796  1  0.31664100  0.74553500  0.94225200  1
  H  799  1  0.45857400  0.74525900  0.84658000  1
  H  800  1  0.43377100  0.74498900  0.82124200  1
  H  802  1  0.23273800  0.77177700  0.88220100  1
  H  803  1  0.23274000  0.71931200  0.88223000  1
  H  807  1  0.31220800  0.59850900  0.85824100  1
  H  808  1  0.31692000  0.89361600  0.86458100  1
  H  809  1  0.43157900  0.74544000  0.92654200  1
  H  811  1  0.29513900  0.73773700  0.78134800  1
  H  836  1  0.42359000  0.88124800  0.15157300  1
  H  837  1  0.45647400  0.81905300  0.15913200  1
  H  838  1  0.45635400  0.67291100  0.15904200  1
  H  839  1  0.42478000  0.61143200  0.15048400  1
  H  840  1  0.31432600  0.66898900  0.12632200  1
  H  841  1  0.31430100  0.82238900  0.12662900  1
  H  842  1  0.32964400  0.74553200  0.17559900  1
  H  843  1  0.19321400  0.75123400  0.17876400  1
  H  844  1  0.18921800  0.74741100  0.14136600  1
  H  845  1  0.40225800  0.74567500  0.10169100  1
  H  846  1  0.25873200  0.74542300  0.07052600  1
  H  847  1  0.32061500  0.74545000  0.04854500  1
  H  850  1  0.45862700  0.74573300  0.14441500  1
  H  851  1  0.43377000  0.74600200  0.16974100  1
  H  853  1  0.23370300  0.71925300  0.10816200  1
  H  854  1  0.23370000  0.77166300  0.10813000  1
  H  858  1  0.31221200  0.89248700  0.13275200  1
  H  859  1  0.31690900  0.59737900  0.12641800  1
  H  860  1  0.43469900  0.74554900  0.06688200  1
  H  862  1  0.29499800  0.75324500  0.20943100  1
  H  887  1  0.40329900  0.11152200  0.15039100  1
  H  888  1  0.37174600  0.17299600  0.15896900  1
  H  889  1  0.37155200  0.31909700  0.15913100  1
  H  890  1  0.40441700  0.38132100  0.15159000  1
  H  891  1  0.51378400  0.32255200  0.12668700  1
  H  892  1  0.51400200  0.16911800  0.12649600  1
  H  893  1  0.49841300  0.24626000  0.17579400  1
  H  894  1  0.63482300  0.23926900  0.17917700  1
  H  895  1  0.63919900  0.24334300  0.14184300  1
  H  896  1  0.42684600  0.24568400  0.10121900  1
  H  897  1  0.57202900  0.24546300  0.07140500  1
  H  898  1  0.51144400  0.24537200  0.04874600  1
  H  901  1  0.36951800  0.24574300  0.14441500  1
  H  902  1  0.39431500  0.24606900  0.16975300  1
  H  904  1  0.59549900  0.27183700  0.10874400  1
  H  905  1  0.59520200  0.21937300  0.10881800  1
  H  909  1  0.51117000  0.09743500  0.12638000  1
  H  910  1  0.51588900  0.39252300  0.13283100  1
  H  911  1  0.39650600  0.24555100  0.06445800  1
  H  913  1  0.53295500  0.23768400  0.20962700  1
  H  938  1  0.40335800  0.37948800  0.84055700  1
  H  939  1  0.37177800  0.31802400  0.83198700  1
  H  940  1  0.37157000  0.17187800  0.83183900  1
  H  941  1  0.40445700  0.10966200  0.83938000  1
  H  942  1  0.51367000  0.16845500  0.86442600  1
  H  943  1  0.51388500  0.32186300  0.86462000  1
  H  944  1  0.49846200  0.24477000  0.81539100  1
  H  945  1  0.63484200  0.25145600  0.81223300  1
  H  946  1  0.63885700  0.24759500  0.84963300  1
  H  947  1  0.42583100  0.24531100  0.88930400  1
  H  948  1  0.56935600  0.24553700  0.92047000  1
  H  949  1  0.50747500  0.24563800  0.94245200  1
  H  952  1  0.36946500  0.24525300  0.84658300  1
  H  953  1  0.39431900  0.24492700  0.82125800  1
  H  955  1  0.59453100  0.21919000  0.88288600  1
  H  956  1  0.59424400  0.27160100  0.88281500  1
  H  960  1  0.51119000  0.39357200  0.86460500  1
  H  961  1  0.51588600  0.09848400  0.85819200  1
  H  962  1  0.39339100  0.24545400  0.92411600  1
  H  964  1  0.53308900  0.25329000  0.78159000  1
  H  989  1  0.92369070  0.10971800  0.33946400  1
  H  990  1  0.95653670  0.17193600  0.33190800  1
  H  991  1  0.95635770  0.31801100  0.33203900  1
  H  992  1  0.92482470  0.37949000  0.34062600  1
  H  993  1  0.81404200  0.32193200  0.36445300  1
  H  994  1  0.81420100  0.16849800  0.36423600  1
  H  995  1  0.82945900  0.24564500  0.31494400  1
  H  996  1  0.69268300  0.24677300  0.31132600  1
  H  997  1  0.68868100  0.24558400  0.34887500  1
  H  998  1  0.90110370  0.24532000  0.38970600  1
  H  999  1  0.75592100  0.24554200  0.41946000  1
  H  1000  1  0.81648900  0.24558900  0.44215700  1
  H  1003  1  0.95850470  0.24526000  0.34659200  1
  H  1004  1  0.93378670  0.24495300  0.32123500  1
  H  1006  1  0.73269200  0.27162400  0.38195500  1
  H  1007  1  0.73252200  0.21917700  0.38208000  1
  H  1011  1  0.81223000  0.09847700  0.35824300  1
  H  1012  1  0.81692600  0.39359800  0.36461100  1
  H  1013  1  0.93144370  0.24545300  0.42649700  1
  H  1015  1  0.79424800  0.25269200  0.28078400  1
  H  1040  1  0.92363570  0.38128800  0.65157700  1
  H  1041  1  0.95650370  0.31907800  0.65913000  1
  H  1042  1  0.95632770  0.17296500  0.65899600  1
  H  1043  1  0.92475970  0.11149200  0.65043000  1
  H  1044  1  0.81414900  0.16908400  0.62643200  1
  H  1045  1  0.81431200  0.32248800  0.62664700  1
  H  1046  1  0.82940700  0.24534400  0.67586500  1
  H  1047  1  0.69269300  0.24426500  0.67924300  1
  H  1048  1  0.68902700  0.24541000  0.64164300  1
  H  1049  1  0.90212070  0.24567800  0.60176000  1
  H  1050  1  0.75858600  0.24545700  0.57065500  1
  H  1051  1  0.82045200  0.24539700  0.54862800  1
  H  1054  1  0.95855970  0.24573600  0.64440700  1
  H  1055  1  0.93377970  0.24604100  0.66975000  1
  H  1057  1  0.73365000  0.21940500  0.60840500  1
  H  1058  1  0.73348700  0.27179800  0.60828100  1
  H  1062  1  0.81223000  0.39251800  0.63276500  1
  H  1063  1  0.81691600  0.09739500  0.62638900  1
  H  1064  1  0.93456270  0.24554100  0.56692600  1
  H  1066  1  0.79409400  0.23831000  0.70999500  1
  H  1091  1  0.90326170  0.61148800  0.65038200  1
  H  1092  1  0.87173200  0.67297300  0.65896400  1
  H  1093  1  0.87160200  0.81904500  0.65908400  1
  H  1094  1  0.90445370  0.88125700  0.65152800  1
  H  1095  1  0.01398000  0.82245700  0.62679600  1
  H  1096  1  0.01401600  0.66902200  0.62651900  1
  H  1097  1  0.99864374  0.74638900  0.67604500  1
  H  1098  1  0.13542600  0.74648600  0.67967600  1
  H  1099  1  0.13943100  0.74539500  0.64212500  1
  H  1100  1  0.92700870  0.74568600  0.60129100  1
  H  1101  1  0.07219200  0.74543500  0.57153600  1
  H  1102  1  0.01162100  0.74543000  0.54883800  1
  H  1105  1  0.86960400  0.74574500  0.64440700  1
  H  1106  1  0.89432900  0.74603100  0.66976200  1
  H  1108  1  0.09557100  0.77168300  0.60898900  1
  H  1109  1  0.09544700  0.71923600  0.60896600  1
  H  1113  1  0.01117700  0.59740400  0.62638300  1
  H  1114  1  0.01592200  0.89251700  0.63278700  1
  H  1115  1  0.89666600  0.74556300  0.56450000  1
  H  1117  1  0.03384600  0.75262000  0.71023100  1
  H  1142  1  0.90331970  0.87952600  0.34056400  1
  H  1143  1  0.87176200  0.81804900  0.33199700  1
  H  1144  1  0.87163100  0.67193300  0.33187500  1
  H  1145  1  0.90450970  0.60973200  0.33942500  1
  H  1146  1  0.01386900  0.66855500  0.36431400  1
  H  1147  1  0.01390500  0.82196200  0.36459400  1
  H  1148  1  0.99869274  0.74459800  0.31513900  1
  H  1149  1  0.13541700  0.74456500  0.31174800  1
  H  1150  1  0.13908300  0.74562600  0.34935100  1
  H  1151  1  0.92599170  0.74531300  0.38923900  1
  H  1152  1  0.06952700  0.74557400  0.42034400  1
  H  1153  1  0.00766100  0.74558500  0.44236900  1
  H  1156  1  0.86955200  0.74525800  0.34659200  1
  H  1157  1  0.89433200  0.74496900  0.32125100  1
  H  1159  1  0.09461000  0.71934600  0.38264600  1
  H  1160  1  0.09448300  0.77173900  0.38266500  1
  H  1164  1  0.01119400  0.89360800  0.36460500  1
  H  1165  1  0.01592900  0.59848400  0.35818000  1
  H  1166  1  0.89355000  0.74543900  0.42407300  1
  H  1168  1  0.03399900  0.73841100  0.28098600  1
  H  1179  1  0.33906900  0.74551500  0.01595100  1
  H  1180  1  0.33394500  0.74549100  0.97893500  1
  H  1182  1  0.54561600  0.74547600  0.94802900  1
  H  1183  1  0.57685200  0.71915300  0.96684500  1
  H  1184  1  0.57685500  0.77181200  0.96683900  1
  H  1186  1  0.59416300  0.74550400  0.00296900  1
  H  1187  1  0.56759700  0.71926400  0.02337300  1
  H  1188  1  0.56759300  0.77175000  0.02336900  1
  H  1201  1  0.48902000  0.24546800  0.97504900  1
  H  1202  1  0.49414100  0.24550000  0.01206500  1
  H  1204  1  0.28247100  0.24552200  0.04296600  1
  H  1205  1  0.25123300  0.21918400  0.02415600  1
  H  1206  1  0.25123500  0.27184300  0.02414900  1
  H  1208  1  0.23392900  0.24549300  0.98802600  1
  H  1209  1  0.26049600  0.21924600  0.96762500  1
  H  1210  1  0.26049300  0.27173400  0.96762200  1
  H  1223  1  0.83906900  0.24552100  0.51597100  1
  H  1224  1  0.83393300  0.24549500  0.47893900  1
  H  1226  1  0.04561300  0.24547900  0.44803000  1
  H  1227  1  0.07684600  0.21915500  0.46684800  1
  H  1228  1  0.07684900  0.27181400  0.46684200  1
  H  1230  1  0.09415300  0.24550500  0.50296700  1
  H  1231  1  0.06759400  0.21926700  0.52337100  1
  H  1232  1  0.06759100  0.27175200  0.52336900  1
  H  1245  1  0.98904670  0.74547600  0.47502600  1
  H  1246  1  0.99417574  0.74550500  0.51206000  1
  H  1248  1  0.78250000  0.74552300  0.54296700  1
  H  1249  1  0.75126400  0.71918600  0.52415500  1
  H  1250  1  0.75126400  0.77184500  0.52414900  1
  H  1252  1  0.73395900  0.74549400  0.48802800  1
  H  1253  1  0.76052200  0.71924800  0.46762800  1
  H  1254  1  0.76051900  0.77173400  0.46762500  1
  H  1267  1  0.42970400  0.94265100  0.83263700  1
  H  1268  1  0.47536500  0.99939400  0.83190000  1
  H  1270  1  0.38226800  0.11965600  0.90437100  1
  H  1271  1  0.36044900  0.09045300  0.92501800  1
  H  1272  1  0.32553100  0.11071500  0.90528900  1
  H  1274  1  0.29273400  0.04926900  0.92097500  1
  H  1275  1  0.30354500  0.99801100  0.92159800  1
  H  1276  1  0.26875800  0.01802200  0.90187500  1
  H  1289  1  0.42970000  0.54833800  0.15836300  1
  H  1290  1  0.47535800  0.49159800  0.15910200  1
  H  1292  1  0.38226800  0.37134000  0.08662500  1
  H  1293  1  0.36044900  0.40054600  0.06598000  1
  H  1294  1  0.32553100  0.38028100  0.08570600  1
  H  1296  1  0.29273200  0.44172800  0.07002400  1
  H  1297  1  0.30354400  0.49298300  0.06939900  1
  H  1298  1  0.26875700  0.47297500  0.08912200  1
  H  1311  1  0.39838600  0.04837500  0.15834600  1
  H  1312  1  0.35275400  0.99160600  0.15910400  1
  H  1314  1  0.44581600  0.87134200  0.08662900  1
  H  1315  1  0.46763000  0.90054500  0.06598000  1
  H  1316  1  0.50255200  0.88028400  0.08570600  1
  H  1318  1  0.53535100  0.94172600  0.07002100  1
  H  1319  1  0.52454100  0.99298400  0.06939400  1
  H  1320  1  0.55932600  0.97297500  0.08911900  1
  H  1333  1  0.39834100  0.44262600  0.83267200  1
  H  1334  1  0.35274100  0.49940200  0.83191500  1
  H  1336  1  0.44582200  0.61965200  0.90437100  1
  H  1337  1  0.46763400  0.59045100  0.92502000  1
  H  1338  1  0.50255800  0.61071000  0.90529400  1
  H  1340  1  0.53535400  0.54926800  0.92098000  1
  H  1341  1  0.52454800  0.49801000  0.92160500  1
  H  1342  1  0.55933200  0.51801800  0.90188100  1
  H  1355  1  0.92973870  0.44263200  0.33265200  1
  H  1356  1  0.97537570  0.49939800  0.33190300  1
  H  1358  1  0.88228100  0.61965700  0.40436900  1
  H  1359  1  0.86046300  0.59045400  0.42501600  1
  H  1360  1  0.82554500  0.61071400  0.40528800  1
  H  1362  1  0.79274800  0.54927000  0.42097400  1
  H  1363  1  0.80355800  0.49801200  0.42159900  1
  H  1364  1  0.76877000  0.51802300  0.40187600  1
  H  1377  1  0.92973570  0.04835700  0.65835000  1
  H  1378  1  0.97537270  0.99159400  0.65909500  1
  H  1380  1  0.88227800  0.87134500  0.58662700  1
  H  1381  1  0.86046000  0.90055000  0.56597900  1
  H  1382  1  0.82554200  0.88028600  0.58570700  1
  H  1384  1  0.79274500  0.94173200  0.57002300  1
  H  1385  1  0.80355500  0.99298900  0.56939800  1
  H  1386  1  0.76876700  0.97298100  0.58912200  1
  H  1399  1  0.89841600  0.54837000  0.65835300  1
  H  1400  1  0.85276900  0.49161600  0.65910600  1
  H  1402  1  0.94582770  0.37134200  0.58662800  1
  H  1403  1  0.96764270  0.40054500  0.56597900  1
  H  1404  1  0.00256400  0.38028500  0.58570700  1
  H  1406  1  0.03536100  0.44172600  0.57001900  1
  H  1407  1  0.02455500  0.49298400  0.56939400  1
  H  1408  1  0.05933600  0.47297600  0.58911800  1
  H  1421  1  0.89837000  0.94263600  0.33266400  1
  H  1422  1  0.85275300  0.99939700  0.33191300  1
  H  1424  1  0.94583470  0.11965500  0.40437200  1
  H  1425  1  0.96764570  0.09045500  0.42502100  1
  H  1426  1  0.00257100  0.11071400  0.40529500  1
  H  1428  1  0.03536800  0.04927000  0.42098200  1
  H  1429  1  0.02455800  0.99801200  0.42160700  1
  H  1430  1  0.05934300  0.01802300  0.40188200  1
  H  1443  1  0.16760400  0.71336800  0.71199000  1
  H  1444  1  0.22902200  0.71029300  0.73535500  1
  H  1446  1  0.16564900  0.81867100  0.81895600  1
  H  1447  1  0.10927100  0.81165600  0.82329900  1
  H  1448  1  0.12854400  0.85573100  0.81103700  1
  H  1450  1  0.05196800  0.84181900  0.79970900  1
  H  1451  1  0.02318000  0.80645700  0.78467400  1
  H  1452  1  0.04320500  0.85011300  0.77246800  1
  H  1465  1  0.16773400  0.77756900  0.27901200  1
  H  1466  1  0.22906100  0.78068700  0.25558800  1
  H  1468  1  0.16563600  0.67234500  0.17204300  1
  H  1469  1  0.10925500  0.67933500  0.16769700  1
  H  1470  1  0.12854700  0.63528300  0.17997200  1
  H  1472  1  0.05197100  0.64919100  0.19129400  1
  H  1473  1  0.02318000  0.68454500  0.20633400  1
  H  1474  1  0.04321200  0.64088600  0.21853400  1
  H  1487  1  0.66048900  0.21338200  0.27901400  1
  H  1488  1  0.59907000  0.21029600  0.25564700  1
  H  1490  1  0.66243500  0.31866600  0.17204000  1
  H  1491  1  0.71881600  0.31165800  0.16769700  1
  H  1492  1  0.69953600  0.35572500  0.17996300  1
  H  1494  1  0.77611500  0.34181600  0.19128800  1
  H  1495  1  0.80490400  0.30645700  0.20632500  1
  H  1496  1  0.78487500  0.35011300  0.21852800  1
  H  1509  1  0.66036200  0.27754900  0.71198000  1
  H  1510  1  0.59903400  0.28068100  0.73540300  1
  H  1512  1  0.66244800  0.17234900  0.81895600  1
  H  1513  1  0.71883200  0.17932900  0.82330100  1
  H  1514  1  0.69953000  0.13528000  0.81102100  1
  H  1516  1  0.77610900  0.14918200  0.79970100  1
  H  1517  1  0.80490400  0.18453300  0.78466100  1
  H  1518  1  0.78486500  0.14088000  0.77246000  1
  C  1  1  0.82286800  0.74534400  0.88197800  1
  C  2  1  0.78056200  0.74547700  0.89088600  1
  C  3  1  0.74577900  0.74553500  0.85470800  1
  C  4  1  0.78722600  0.74547400  0.84493200  1
  C  5  1  0.78862000  0.74553800  0.82238000  1
  C  6  1  0.75071300  0.74451800  0.80943000  1
  C  7  1  0.71030300  0.74315600  0.82002200  1
  C  8  1  0.70777300  0.74461300  0.84216900  1
  C  9  1  0.77534500  0.74551000  0.91299000  1
  C  10  1  0.81148400  0.74548900  0.92638500  1
  C  11  1  0.85445500  0.74544100  0.91835200  1
  C  12  1  0.85930300  0.74536600  0.89603100  1
  C  13  1  0.85206900  0.70696700  0.85305000  1
  C  14  1  0.89381500  0.70758900  0.84358800  1
  C  15  1  0.89343300  0.78256700  0.84341000  1
  C  16  1  0.85177300  0.78350300  0.85294900  1
  C  17  1  0.91490200  0.81836000  0.83875700  1
  C  18  1  0.89600700  0.85492600  0.84372300  1
  C  19  1  0.85460700  0.85758700  0.85324000  1
  C  20  1  0.83306500  0.82122000  0.85753200  1
  C  21  1  0.83341400  0.66932000  0.85760400  1
  C  22  1  0.85474300  0.63291300  0.85312900  1
  C  23  1  0.89613000  0.63495900  0.84357700  1
  C  24  1  0.91529900  0.67165800  0.83894500  1
  C  37  1  0.82847200  0.74525800  0.85818100  1
  C  38  1  0.91613600  0.74510400  0.83826000  1
  C  41  1  0.74047600  0.74553900  0.87793600  1
  C  44  1  0.83582000  0.89406700  0.85881800  1
  C  45  1  0.89017100  0.74545500  0.93211800  1
  C  46  1  0.83304400  0.59694500  0.85617600  1
  C  50  1  0.75435800  0.74178100  0.78727300  1
  C  52  1  0.82376100  0.74565200  0.10881700  1
  C  53  1  0.78177300  0.74552300  0.09962300  1
  C  54  1  0.74611800  0.74548000  0.13586700  1
  C  55  1  0.78738500  0.74553500  0.14580700  1
  C  56  1  0.78861600  0.74548500  0.16838500  1
  C  57  1  0.75066200  0.74650000  0.18130800  1
  C  58  1  0.71036700  0.74773800  0.17060000  1
  C  59  1  0.70805400  0.74638400  0.14840700  1
  C  60  1  0.77774400  0.74548600  0.07741300  1
  C  61  1  0.81463700  0.74550500  0.06431600  1
  C  62  1  0.85728000  0.74555600  0.07260400  1
  C  63  1  0.86068200  0.74563000  0.09503900  1
  C  64  1  0.85217900  0.78404300  0.13787500  1
  C  65  1  0.89386700  0.78341300  0.14738600  1
  C  66  1  0.89348200  0.70841900  0.14756400  1
  C  67  1  0.85187900  0.70747900  0.13797700  1
  C  68  1  0.91490500  0.67262200  0.15224500  1
  C  69  1  0.89598900  0.63605900  0.14728400  1
  C  70  1  0.85461900  0.63340400  0.13773500  1
  C  71  1  0.83313300  0.66977800  0.13339500  1
  C  72  1  0.83348900  0.82167400  0.13332000  1
  C  73  1  0.85476600  0.85808100  0.13784300  1
  C  74  1  0.89612000  0.85604100  0.14742800  1
  C  75  1  0.91530200  0.81934700  0.15206000  1
  C  88  1  0.82873300  0.74573900  0.13265700  1
  C  89  1  0.91617300  0.74588900  0.15272000  1
  C  92  1  0.74137400  0.74546600  0.11251400  1
  C  95  1  0.83581500  0.59692400  0.13217400  1
  C  96  1  0.89477400  0.74554000  0.05969300  1
  C  97  1  0.83305000  0.89404200  0.13481100  1
  C  101  1  0.75421000  0.74920600  0.20351000  1
  C  103  1  0.98286500  0.24579000  0.10902100  1
  C  104  1  0.02517300  0.24572700  0.10011200  1
  C  105  1  0.05996100  0.24590400  0.13629100  1
  C  106  1  0.01851500  0.24623500  0.14606900  1
  C  107  1  0.01712700  0.24615800  0.16862200  1
  C  108  1  0.05502700  0.24473300  0.18156700  1
  C  109  1  0.09542700  0.24318100  0.17097600  1
  C  110  1  0.09795900  0.24464700  0.14882800  1
  C  111  1  0.03038700  0.24553400  0.07800800  1
  C  112  1  0.99424500  0.24547400  0.06461300  1
  C  113  1  0.95127400  0.24553900  0.07264700  1
  C  114  1  0.94643000  0.24564800  0.09496800  1
  C  115  1  0.95408600  0.20764500  0.13810100  1
  C  116  1  0.91237700  0.20851500  0.14760200  1
  C  117  1  0.91184500  0.28349500  0.14739600  1
  C  118  1  0.95354600  0.28418300  0.13789800  1
  C  119  1  0.89036700  0.31941300  0.15206000  1
  C  120  1  0.90953200  0.35612100  0.14743400  1
  C  121  1  0.95090200  0.35818800  0.13786800  1
  C  122  1  0.97220300  0.32181400  0.13334200  1
  C  123  1  0.97279300  0.16991100  0.13352000  1
  C  124  1  0.95121100  0.13351400  0.13775700  1
  C  125  1  0.90979600  0.13615200  0.14726000  1
  C  126  1  0.89090400  0.17270900  0.15223900  1
  C  139  1  0.97726600  0.24598800  0.13281800  1
  C  140  1  0.88959800  0.24595000  0.15273600  1
  C  143  1  0.06525700  0.24572100  0.11306200  1
  C  146  1  0.97268100  0.39410600  0.13484600  1
  C  147  1  0.91555800  0.24552700  0.05888100  1
  C  148  1  0.96993300  0.09699500  0.13216500  1
  C  152  1  0.05137700  0.24181500  0.20371700  1
  C  154  1  0.98197100  0.24520500  0.88217900  1
  C  155  1  0.02396100  0.24527100  0.89137300  1
  C  156  1  0.05962200  0.24511400  0.85512900  1
  C  157  1  0.01835600  0.24477200  0.84518500  1
  C  158  1  0.01713400  0.24484600  0.82260600  1
  C  159  1  0.05508300  0.24625300  0.80968800  1
  C  160  1  0.09536200  0.24774300  0.82039900  1
  C  161  1  0.09767900  0.24632100  0.84259100  1
  C  162  1  0.02798900  0.24546100  0.91358300  1
  C  163  1  0.99109500  0.24551800  0.92668000  1
  C  164  1  0.94845200  0.24545000  0.91839200  1
  C  165  1  0.94505100  0.24534400  0.89595600  1
  C  166  1  0.95397600  0.28336400  0.85296900  1
  C  167  1  0.91232500  0.28248900  0.84342000  1
  C  168  1  0.91179500  0.20749200  0.84362400  1
  C  169  1  0.95343900  0.20679700  0.85316900  1
  C  170  1  0.89036300  0.17157100  0.83893200  1
  C  171  1  0.90954800  0.13486600  0.84355200  1
  C  172  1  0.95088400  0.13280200  0.85315400  1
  C  173  1  0.97212900  0.16918100  0.85772700  1
  C  174  1  0.97271600  0.32108600  0.85755300  1
  C  175  1  0.95119400  0.35748700  0.85326500  1
  C  176  1  0.90981400  0.35485300  0.84372600  1
  C  177  1  0.89089800  0.31830200  0.83875700  1
  C  190  1  0.97700400  0.24501000  0.85833700  1
  C  191  1  0.88956200  0.24504500  0.83827900  1
  C  194  1  0.06436000  0.24528600  0.87848200  1
  C  197  1  0.97268600  0.09688900  0.85615500  1
  C  198  1  0.91096000  0.24546800  0.93130400  1
  C  199  1  0.96993500  0.39400500  0.85884000  1
  C  203  1  0.05152400  0.24917100  0.78749300  1
  C  205  1  0.32273300  0.24525500  0.38186600  1
  C  206  1  0.28041400  0.24534100  0.39075100  1
  C  207  1  0.24560600  0.24508700  0.35447600  1
  C  208  1  0.28707500  0.24496300  0.34471100  1
  C  209  1  0.28841100  0.24527900  0.32212600  1
  C  210  1  0.25046500  0.24587000  0.30913800  1
  C  211  1  0.20996400  0.24571700  0.31969200  1
  C  212  1  0.20759200  0.24527300  0.34188800  1
  C  213  1  0.27521300  0.24548300  0.41286700  1
  C  214  1  0.31134000  0.24551200  0.42628800  1
  C  215  1  0.35433000  0.24545600  0.41827900  1
  C  216  1  0.35916000  0.24535800  0.39594700  1
  C  217  1  0.35203900  0.20688000  0.35299800  1
  C  218  1  0.39380700  0.20754200  0.34356800  1
  C  219  1  0.39332500  0.28251000  0.34337400  1
  C  220  1  0.35158000  0.28340300  0.35283400  1
  C  221  1  0.41484000  0.31830400  0.33876800  1
  C  222  1  0.39594200  0.35486700  0.34373100  1
  C  223  1  0.35452600  0.35751600  0.35323200  1
  C  224  1  0.33290700  0.32113100  0.35744200  1
  C  225  1  0.33343100  0.16923700  0.35759300  1
  C  226  1  0.35479000  0.13285200  0.35313100  1
  C  227  1  0.39617300  0.13491500  0.34357600  1
  C  228  1  0.41532900  0.17162300  0.33894500  1
  C  241  1  0.32830200  0.24509800  0.35804700  1
  C  242  1  0.41609800  0.24507100  0.33824800  1
  C  245  1  0.24035600  0.24531200  0.37774000  1
  C  248  1  0.33581000  0.39402900  0.35883100  1
  C  249  1  0.39004000  0.24546800  0.43207600  1
  C  250  1  0.33306600  0.09690400  0.35617800  1
  C  254  1  0.25361600  0.24881800  0.28691200  1
  C  256  1  0.32362600  0.24574300  0.60892500  1
  C  257  1  0.28162600  0.24566000  0.59975400  1
  C  258  1  0.24594800  0.24590600  0.63609600  1
  C  259  1  0.28723400  0.24603000  0.64602800  1
  C  260  1  0.28840100  0.24571400  0.66863900  1
  C  261  1  0.25041000  0.24514300  0.68160500  1
  C  262  1  0.21003900  0.24528500  0.67092200  1
  C  263  1  0.20787600  0.24572600  0.64868500  1
  C  264  1  0.27760800  0.24551900  0.57753200  1
  C  265  1  0.31448800  0.24548900  0.56440700  1
  C  266  1  0.35714900  0.24555100  0.57267200  1
  C  267  1  0.36053800  0.24564200  0.59511800  1
  C  268  1  0.35214700  0.28413300  0.63792800  1
  C  269  1  0.39386000  0.28346500  0.64740600  1
  C  270  1  0.39337700  0.20847900  0.64759800  1
  C  271  1  0.35169100  0.20758000  0.63808900  1
  C  272  1  0.41484000  0.17267900  0.65223800  1
  C  273  1  0.39593500  0.13612200  0.64726900  1
  C  274  1  0.35454200  0.13347900  0.63774300  1
  C  275  1  0.33298500  0.16986700  0.63347700  1
  C  276  1  0.33351000  0.32175800  0.63333000  1
  C  277  1  0.35480900  0.35814300  0.63784100  1
  C  278  1  0.39617300  0.35608800  0.64741800  1
  C  279  1  0.41533500  0.31938600  0.65205600  1
  C  292  1  0.32856600  0.24590000  0.63278900  1
  C  293  1  0.41613400  0.24592600  0.65273400  1
  C  296  1  0.24125200  0.24568700  0.61270800  1
  C  299  1  0.33580000  0.09696600  0.63216700  1
  C  300  1  0.39464500  0.24553000  0.55973300  1
  C  301  1  0.33307300  0.39408500  0.63481100  1
  C  305  1  0.25344700  0.24216900  0.70387300  1
  C  307  1  0.48302400  0.74570100  0.60912900  1
  C  308  1  0.52534300  0.74559000  0.60024400  1
  C  309  1  0.56015100  0.74545200  0.63651800  1
  C  310  1  0.51868200  0.74572400  0.64628200  1
  C  311  1  0.51734000  0.74589000  0.66886700  1
  C  312  1  0.55528200  0.74606300  0.68185900  1
  C  313  1  0.59578300  0.74572800  0.67130500  1
  C  314  1  0.59816200  0.74533400  0.64910900  1
  C  315  1  0.53054400  0.74550700  0.57812700  1
  C  316  1  0.49441400  0.74549800  0.56470700  1
  C  317  1  0.45142700  0.74555200  0.57271800  1
  C  318  1  0.44659700  0.74564200  0.59504800  1
  C  319  1  0.45413500  0.70755500  0.63814900  1
  C  320  1  0.41240200  0.70846700  0.64761800  1
  C  321  1  0.41197500  0.78343300  0.64743000  1
  C  322  1  0.45376000  0.78407900  0.63800800  1
  C  323  1  0.39045700  0.81935300  0.65205200  1
  C  324  1  0.40961900  0.85605600  0.64742100  1
  C  325  1  0.45100300  0.85811600  0.63787100  1
  C  326  1  0.47238100  0.82172200  0.63342800  1
  C  327  1  0.47279500  0.66982700  0.63353100  1
  C  328  1  0.45119200  0.63345300  0.63776000  1
  C  329  1  0.40977200  0.63610900  0.64725800  1
  C  330  1  0.39088400  0.67267500  0.65222700  1
  C  343  1  0.47745500  0.74582700  0.63294700  1
  C  344  1  0.38966200  0.74591500  0.65274900  1
  C  347  1  0.56540400  0.74549000  0.61325400  1
  C  350  1  0.47273000  0.89407300  0.63484600  1
  C  351  1  0.41571700  0.74554100  0.55892100  1
  C  352  1  0.46994000  0.59695800  0.63216400  1
  C  356  1  0.55212700  0.74884200  0.70408900  1
  C  358  1  0.48213100  0.74529900  0.38207300  1
  C  359  1  0.52413400  0.74541100  0.39124500  1
  C  360  1  0.55980500  0.74554200  0.35490300  1
  C  361  1  0.51851900  0.74526900  0.34497300  1
  C  362  1  0.51734300  0.74509000  0.32236300  1
  C  363  1  0.55533400  0.74490900  0.30939600  1
  C  364  1  0.59570400  0.74527800  0.32007400  1
  C  365  1  0.59787500  0.74566300  0.34231100  1
  C  366  1  0.52814900  0.74549500  0.41346600  1
  C  367  1  0.49127200  0.74550200  0.42659200  1
  C  368  1  0.44860800  0.74544200  0.41832500  1
  C  369  1  0.44521900  0.74535500  0.39588100  1
  C  370  1  0.45402700  0.78345800  0.35292100  1
  C  371  1  0.41235300  0.78254200  0.34340100  1
  C  372  1  0.41192300  0.70755700  0.34359100  1
  C  373  1  0.45364600  0.70690500  0.35306100  1
  C  374  1  0.39045100  0.67163100  0.33894200  1
  C  375  1  0.40962600  0.63493500  0.34357600  1
  C  376  1  0.45098700  0.63288000  0.35315500  1
  C  377  1  0.47230300  0.66927700  0.35764500  1
  C  378  1  0.47271700  0.82117200  0.35754500  1
  C  379  1  0.45117600  0.85755200  0.35326200  1
  C  380  1  0.40979200  0.85490000  0.34372800  1
  C  381  1  0.39088400  0.81834000  0.33876300  1
  C  394  1  0.47719100  0.74517200  0.35821100  1
  C  395  1  0.38962300  0.74508500  0.33826700  1
  C  398  1  0.56450400  0.74551100  0.37829000  1
  C  401  1  0.47272600  0.59692600  0.35615800  1
  C  402  1  0.41111200  0.74545600  0.43126600  1
  C  403  1  0.46994300  0.89404800  0.35883600  1
  C  407  1  0.55229700  0.74214900  0.28711900  1
  C  409  1  0.89680300  0.74550800  0.01817800  1
  C  410  1  0.93490400  0.74550200  0.00538800  1
  C  411  1  0.93147300  0.74549100  0.98290900  1
  C  412  1  0.89057000  0.74548700  0.97290100  1
  C  413  1  0.85308900  0.74549400  0.98562600  1
  C  414  1  0.85624200  0.74550500  0.00773800  1
  C  416  1  0.00892500  0.74549000  0.97942600  1
  C  417  1  0.01295600  0.74550000  0.00178300  1
  C  421  1  0.04575600  0.74548200  0.96441800  1
  C  425  1  0.05467200  0.74550500  0.01337000  1
  C  431  1  0.90893100  0.24548600  0.97281800  1
  C  432  1  0.87082900  0.24549500  0.98560800  1
  C  433  1  0.87425900  0.24550400  0.00808700  1
  C  434  1  0.91516000  0.24551000  0.01809800  1
  C  435  1  0.95264200  0.24550100  0.00537300  1
  C  436  1  0.94949100  0.24548900  0.98326000  1
  C  438  1  0.79680700  0.24550700  0.01157000  1
  C  439  1  0.79277900  0.24549500  0.98921300  1
  C  443  1  0.75997700  0.24551300  0.02657700  1
  C  447  1  0.75106000  0.24549300  0.97762500  1
  C  453  1  0.39678900  0.24550900  0.51819500  1
  C  454  1  0.43488500  0.24550300  0.50539100  1
  C  455  1  0.43145000  0.24549400  0.48290500  1
  C  456  1  0.39054500  0.24548800  0.47288600  1
  C  457  1  0.35308200  0.24549400  0.48563000  1
  C  458  1  0.35623700  0.24550600  0.50774700  1
  C  460  1  0.50891200  0.24549100  0.47942600  1
  C  461  1  0.51294300  0.24550300  0.50178200  1
  C  465  1  0.54575000  0.24548500  0.46442000  1
  C  469  1  0.55466600  0.24550800  0.51336800  1
  C  475  1  0.40896800  0.74548900  0.47280200  1
  C  476  1  0.37087200  0.74549600  0.48560600  1
  C  477  1  0.37430700  0.74550700  0.50809000  1
  C  478  1  0.41521100  0.74551100  0.51811100  1
  C  479  1  0.45267500  0.74550300  0.50536900  1
  C  480  1  0.44952000  0.74549100  0.48325200  1
  C  482  1  0.29684500  0.74550900  0.51156900  1
  C  483  1  0.29281300  0.74549800  0.48921500  1
  C  487  1  0.26000700  0.74551600  0.52657600  1
  C  491  1  0.25109100  0.74549300  0.47762700  1
  C  497  1  0.87607700  0.96233100  0.85688300  1
  C  498  1  0.86678800  0.99581600  0.86961600  1
  C  499  1  0.89319500  0.03033300  0.86832600  1
  C  500  1  0.92885200  0.03260700  0.85441500  1
  C  501  1  0.93777700  0.99929900  0.84178000  1
  C  502  1  0.91131300  0.96530300  0.84262700  1
  C  504  1  0.85142900  0.06150300  0.89546100  1
  C  505  1  0.82451500  0.02751900  0.89678200  1
  C  509  1  0.84627200  0.09764900  0.90825800  1
  C  513  1  0.78698500  0.02324300  0.91116700  1
  C  519  1  0.87607600  0.52866400  0.13411500  1
  C  520  1  0.86679200  0.49518200  0.12137900  1
  C  521  1  0.89319500  0.46066200  0.12267200  1
  C  522  1  0.92885000  0.45839100  0.13658400  1
  C  523  1  0.93778100  0.49170200  0.14921500  1
  C  524  1  0.91131100  0.52569300  0.14837100  1
  C  526  1  0.85142800  0.42949300  0.09553600  1
  C  527  1  0.82451400  0.46347800  0.09421500  1
  C  531  1  0.84627200  0.39334700  0.08274000  1
  C  535  1  0.78698400  0.46775300  0.07983200  1
  C  541  1  0.92967100  0.02869500  0.13410900  1
  C  542  1  0.93894700  0.99519400  0.12138100  1
  C  543  1  0.91254400  0.96067000  0.12267800  1
  C  544  1  0.87688400  0.95837900  0.13659300  1
  C  545  1  0.86798100  0.99170300  0.14922000  1
  C  546  1  0.89443300  0.02571200  0.14836400  1
  C  548  1  0.95430100  0.92949600  0.09553600  1
  C  549  1  0.98121000  0.96348400  0.09421200  1
  C  553  1  0.95945500  0.89335000  0.08274000  1
  C  557  1  0.01874300  0.96775400  0.07982700  1
  C  563  1  0.92967000  0.46230600  0.85689100  1
  C  564  1  0.93895800  0.49580600  0.86961600  1
  C  565  1  0.91255800  0.53033200  0.86831700  1
  C  566  1  0.87694200  0.53268600  0.85437900  1
  C  567  1  0.86798000  0.49931300  0.84179200  1
  C  568  1  0.89442200  0.46529900  0.84264300  1
  C  570  1  0.95430600  0.56149900  0.89546400  1
  C  571  1  0.98121600  0.52751100  0.89678800  1
  C  575  1  0.95946000  0.59764500  0.90826000  1
  C  579  1  0.01874700  0.52324000  0.91117300  1
  C  585  1  0.37608600  0.46231500  0.35688500  1
  C  586  1  0.36679800  0.49580900  0.36961500  1
  C  587  1  0.39320500  0.53032800  0.36832400  1
  C  588  1  0.42886600  0.53261400  0.35441600  1
  C  589  1  0.43778900  0.49930000  0.34178200  1
  C  590  1  0.41133000  0.46529500  0.34263300  1
  C  592  1  0.35144000  0.56150100  0.39546000  1
  C  593  1  0.32452800  0.52751700  0.39678100  1
  C  597  1  0.34628400  0.59764800  0.40825600  1
  C  601  1  0.28700000  0.52324200  0.41116700  1
  C  607  1  0.37608300  0.02868300  0.63411300  1
  C  608  1  0.36680200  0.99519500  0.62137800  1
  C  609  1  0.39320100  0.96067100  0.62267100  1
  C  610  1  0.42886300  0.95838300  0.63658100  1
  C  611  1  0.43779500  0.99170000  0.64921000  1
  C  612  1  0.41132700  0.02569900  0.64836500  1
  C  614  1  0.35143600  0.92949800  0.59553700  1
  C  615  1  0.32452500  0.96348600  0.59421600  1
  C  619  1  0.34628100  0.89335300  0.58273900  1
  C  623  1  0.28699600  0.96775900  0.57983000  1
  C  629  1  0.42968100  0.52868100  0.63410800  1
  C  630  1  0.43895800  0.49519000  0.62137800  1
  C  631  1  0.41255500  0.46067100  0.62267700  1
  C  632  1  0.37690100  0.45839100  0.63659600  1
  C  633  1  0.36799400  0.49171100  0.64922300  1
  C  634  1  0.39444900  0.52571300  0.64836700  1
  C  636  1  0.45431100  0.42949500  0.59553600  1
  C  637  1  0.48122200  0.46348200  0.59421100  1
  C  641  1  0.45946600  0.39334800  0.58273900  1
  C  645  1  0.51875400  0.46775400  0.57982600  1
  C  651  1  0.42968100  0.96232400  0.35689000  1
  C  652  1  0.43897100  0.99581600  0.36961700  1
  C  653  1  0.41257200  0.03033800  0.36831800  1
  C  654  1  0.37695900  0.03267700  0.35437800  1
  C  655  1  0.36799400  0.99931100  0.34178900  1
  C  656  1  0.39444000  0.96530200  0.34264000  1
  C  658  1  0.45431700  0.06150200  0.39546500  1
  C  659  1  0.48122900  0.02751400  0.39678900  1
  C  663  1  0.45947300  0.09764800  0.40826100  1
  C  667  1  0.51876000  0.02324200  0.41117400  1
  C  673  1  0.61607900  0.74799900  0.73183000  1
  C  674  1  0.61507500  0.76678700  0.75196100  1
  C  675  1  0.65219300  0.76505700  0.76542900  1
  C  676  1  0.69004500  0.74410300  0.75998600  1
  C  677  1  0.69077900  0.72563400  0.74000200  1
  C  678  1  0.65455500  0.72759100  0.72623700  1
  C  680  1  0.61704000  0.80525900  0.79137400  1
  C  681  1  0.57931600  0.80654900  0.77847700  1
  C  685  1  0.62206500  0.82386600  0.81235700  1
  C  689  1  0.53894200  0.82748300  0.78429600  1
  C  695  1  0.61609500  0.74297600  0.25921800  1
  C  696  1  0.61507200  0.72421700  0.23906400  1
  C  697  1  0.65216000  0.72597900  0.22556200  1
  C  698  1  0.69004800  0.74692100  0.23095300  1
  C  699  1  0.69080500  0.76535700  0.25095200  1
  C  700  1  0.65462100  0.76337700  0.26475500  1
  C  702  1  0.61701400  0.68577500  0.19962100  1
  C  703  1  0.57931300  0.68445900  0.21253200  1
  C  707  1  0.62205200  0.66714700  0.17864200  1
  C  711  1  0.53894600  0.66352300  0.20671100  1
  C  717  1  0.18966200  0.24800000  0.25916900  1
  C  718  1  0.19065600  0.26678400  0.23903600  1
  C  719  1  0.15354100  0.26504500  0.22556700  1
  C  720  1  0.11569300  0.24408200  0.23100800  1
  C  721  1  0.11496300  0.22562600  0.25099700  1
  C  722  1  0.15118500  0.22758700  0.26476000  1
  C  724  1  0.18869100  0.30524500  0.19962000  1
  C  725  1  0.22641200  0.30654600  0.21251900  1
  C  729  1  0.18366300  0.32386100  0.17863900  1
  C  733  1  0.26678500  0.32748200  0.20670100  1
  C  739  1  0.18965200  0.24298200  0.73178100  1
  C  740  1  0.19066600  0.22422700  0.75193600  1
  C  741  1  0.15357400  0.22599300  0.76544000  1
  C  742  1  0.11569300  0.24694700  0.76004900  1
  C  743  1  0.11493700  0.26535900  0.74004300  1
  C  744  1  0.15112600  0.26337800  0.72624200  1
  C  746  1  0.18871400  0.18578100  0.79137700  1
  C  747  1  0.22641500  0.18445900  0.77846600  1
  C  751  1  0.18367600  0.16714800  0.81235400  1
  C  755  1  0.26678200  0.16351300  0.78428500  1
  C  761  1  0.33404600  0.74534400  0.88197800  1
  C  762  1  0.29174000  0.74547700  0.89088600  1
  C  763  1  0.25695700  0.74553500  0.85470800  1
  C  764  1  0.29840400  0.74547400  0.84493200  1
  C  765  1  0.29979800  0.74553800  0.82238000  1
  C  766  1  0.26189100  0.74451800  0.80943000  1
  C  767  1  0.22148100  0.74315600  0.82002200  1
  C  768  1  0.21895100  0.74461300  0.84216900  1
  C  769  1  0.28652300  0.74551000  0.91299000  1
  C  770  1  0.32266200  0.74548900  0.92638500  1
  C  771  1  0.36563300  0.74544100  0.91835200  1
  C  772  1  0.37048100  0.74536600  0.89603100  1
  C  773  1  0.36324700  0.70696700  0.85305000  1
  C  774  1  0.40499300  0.70758900  0.84358800  1
  C  775  1  0.40461100  0.78256700  0.84341000  1
  C  776  1  0.36295100  0.78350300  0.85294900  1
  C  777  1  0.42608000  0.81836000  0.83875700  1
  C  778  1  0.40718500  0.85492600  0.84372300  1
  C  779  1  0.36578500  0.85758700  0.85324000  1
  C  780  1  0.34424300  0.82122000  0.85753200  1
  C  781  1  0.34459200  0.66932000  0.85760400  1
  C  782  1  0.36592100  0.63291300  0.85312900  1
  C  783  1  0.40730800  0.63495900  0.84357700  1
  C  784  1  0.42647700  0.67165800  0.83894500  1
  C  797  1  0.33965000  0.74525800  0.85818100  1
  C  798  1  0.42731400  0.74510400  0.83826000  1
  C  801  1  0.25165400  0.74553900  0.87793600  1
  C  804  1  0.34699800  0.89406700  0.85881800  1
  C  805  1  0.40134900  0.74545500  0.93211800  1
  C  806  1  0.34422200  0.59694500  0.85617600  1
  C  810  1  0.26553600  0.74178100  0.78727300  1
  C  812  1  0.33493900  0.74565200  0.10881700  1
  C  813  1  0.29295100  0.74552300  0.09962300  1
  C  814  1  0.25729600  0.74548000  0.13586700  1
  C  815  1  0.29856300  0.74553500  0.14580700  1
  C  816  1  0.29979400  0.74548500  0.16838500  1
  C  817  1  0.26184000  0.74650000  0.18130800  1
  C  818  1  0.22154500  0.74773800  0.17060000  1
  C  819  1  0.21923200  0.74638400  0.14840700  1
  C  820  1  0.28892200  0.74548600  0.07741300  1
  C  821  1  0.32581500  0.74550500  0.06431600  1
  C  822  1  0.36845800  0.74555600  0.07260400  1
  C  823  1  0.37186000  0.74563000  0.09503900  1
  C  824  1  0.36335700  0.78404300  0.13787500  1
  C  825  1  0.40504500  0.78341300  0.14738600  1
  C  826  1  0.40466000  0.70841900  0.14756400  1
  C  827  1  0.36305700  0.70747900  0.13797700  1
  C  828  1  0.42608300  0.67262200  0.15224500  1
  C  829  1  0.40716700  0.63605900  0.14728400  1
  C  830  1  0.36579700  0.63340400  0.13773500  1
  C  831  1  0.34431100  0.66977800  0.13339500  1
  C  832  1  0.34466700  0.82167400  0.13332000  1
  C  833  1  0.36594400  0.85808100  0.13784300  1
  C  834  1  0.40729800  0.85604100  0.14742800  1
  C  835  1  0.42648000  0.81934700  0.15206000  1
  C  848  1  0.33991100  0.74573900  0.13265700  1
  C  849  1  0.42735100  0.74588900  0.15272000  1
  C  852  1  0.25255200  0.74546600  0.11251400  1
  C  855  1  0.34699300  0.59692400  0.13217400  1
  C  856  1  0.40595200  0.74554000  0.05969300  1
  C  857  1  0.34422800  0.89404200  0.13481100  1
  C  861  1  0.26538800  0.74920600  0.20351000  1
  C  863  1  0.49404300  0.24579000  0.10902100  1
  C  864  1  0.53635100  0.24572700  0.10011200  1
  C  865  1  0.57113900  0.24590400  0.13629100  1
  C  866  1  0.52969300  0.24623500  0.14606900  1
  C  867  1  0.52830500  0.24615800  0.16862200  1
  C  868  1  0.56620500  0.24473300  0.18156700  1
  C  869  1  0.60660500  0.24318100  0.17097600  1
  C  870  1  0.60913700  0.24464700  0.14882800  1
  C  871  1  0.54156500  0.24553400  0.07800800  1
  C  872  1  0.50542300  0.24547400  0.06461300  1
  C  873  1  0.46245200  0.24553900  0.07264700  1
  C  874  1  0.45760800  0.24564800  0.09496800  1
  C  875  1  0.46526400  0.20764500  0.13810100  1
  C  876  1  0.42355500  0.20851500  0.14760200  1
  C  877  1  0.42302300  0.28349500  0.14739600  1
  C  878  1  0.46472400  0.28418300  0.13789800  1
  C  879  1  0.40154500  0.31941300  0.15206000  1
  C  880  1  0.42071000  0.35612100  0.14743400  1
  C  881  1  0.46208000  0.35818800  0.13786800  1
  C  882  1  0.48338100  0.32181400  0.13334200  1
  C  883  1  0.48397100  0.16991100  0.13352000  1
  C  884  1  0.46238900  0.13351400  0.13775700  1
  C  885  1  0.42097400  0.13615200  0.14726000  1
  C  886  1  0.40208200  0.17270900  0.15223900  1
  C  899  1  0.48844400  0.24598800  0.13281800  1
  C  900  1  0.40077600  0.24595000  0.15273600  1
  C  903  1  0.57643500  0.24572100  0.11306200  1
  C  906  1  0.48385900  0.39410600  0.13484600  1
  C  907  1  0.42673600  0.24552700  0.05888100  1
  C  908  1  0.48111100  0.09699500  0.13216500  1
  C  912  1  0.56255500  0.24181500  0.20371700  1
  C  914  1  0.49314900  0.24520500  0.88217900  1
  C  915  1  0.53513900  0.24527100  0.89137300  1
  C  916  1  0.57080000  0.24511400  0.85512900  1
  C  917  1  0.52953400  0.24477200  0.84518500  1
  C  918  1  0.52831200  0.24484600  0.82260600  1
  C  919  1  0.56626100  0.24625300  0.80968800  1
  C  920  1  0.60654000  0.24774300  0.82039900  1
  C  921  1  0.60885700  0.24632100  0.84259100  1
  C  922  1  0.53916700  0.24546100  0.91358300  1
  C  923  1  0.50227300  0.24551800  0.92668000  1
  C  924  1  0.45963000  0.24545000  0.91839200  1
  C  925  1  0.45622900  0.24534400  0.89595600  1
  C  926  1  0.46515400  0.28336400  0.85296900  1
  C  927  1  0.42350300  0.28248900  0.84342000  1
  C  928  1  0.42297300  0.20749200  0.84362400  1
  C  929  1  0.46461700  0.20679700  0.85316900  1
  C  930  1  0.40154100  0.17157100  0.83893200  1
  C  931  1  0.42072600  0.13486600  0.84355200  1
  C  932  1  0.46206200  0.13280200  0.85315400  1
  C  933  1  0.48330700  0.16918100  0.85772700  1
  C  934  1  0.48389400  0.32108600  0.85755300  1
  C  935  1  0.46237200  0.35748700  0.85326500  1
  C  936  1  0.42099200  0.35485300  0.84372600  1
  C  937  1  0.40207600  0.31830200  0.83875700  1
  C  950  1  0.48818200  0.24501000  0.85833700  1
  C  951  1  0.40074000  0.24504500  0.83827900  1
  C  954  1  0.57553800  0.24528600  0.87848200  1
  C  957  1  0.48386400  0.09688900  0.85615500  1
  C  958  1  0.42213800  0.24546800  0.93130400  1
  C  959  1  0.48111300  0.39400500  0.85884000  1
  C  963  1  0.56270200  0.24917100  0.78749300  1
  C  965  1  0.83391100  0.24525500  0.38186600  1
  C  966  1  0.79159200  0.24534100  0.39075100  1
  C  967  1  0.75678400  0.24508700  0.35447600  1
  C  968  1  0.79825300  0.24496300  0.34471100  1
  C  969  1  0.79958900  0.24527900  0.32212600  1
  C  970  1  0.76164300  0.24587000  0.30913800  1
  C  971  1  0.72114200  0.24571700  0.31969200  1
  C  972  1  0.71877000  0.24527300  0.34188800  1
  C  973  1  0.78639100  0.24548300  0.41286700  1
  C  974  1  0.82251800  0.24551200  0.42628800  1
  C  975  1  0.86550800  0.24545600  0.41827900  1
  C  976  1  0.87033800  0.24535800  0.39594700  1
  C  977  1  0.86321700  0.20688000  0.35299800  1
  C  978  1  0.90498470  0.20754200  0.34356800  1
  C  979  1  0.90450270  0.28251000  0.34337400  1
  C  980  1  0.86275800  0.28340300  0.35283400  1
  C  981  1  0.92601770  0.31830400  0.33876800  1
  C  982  1  0.90711970  0.35486700  0.34373100  1
  C  983  1  0.86570400  0.35751600  0.35323200  1
  C  984  1  0.84408500  0.32113100  0.35744200  1
  C  985  1  0.84460900  0.16923700  0.35759300  1
  C  986  1  0.86596800  0.13285200  0.35313100  1
  C  987  1  0.90735070  0.13491500  0.34357600  1
  C  988  1  0.92650670  0.17162300  0.33894500  1
  C  1001  1  0.83948000  0.24509800  0.35804700  1
  C  1002  1  0.92727570  0.24507100  0.33824800  1
  C  1005  1  0.75153400  0.24531200  0.37774000  1
  C  1008  1  0.84698800  0.39402900  0.35883100  1
  C  1009  1  0.90121770  0.24546800  0.43207600  1
  C  1010  1  0.84424400  0.09690400  0.35617800  1
  C  1014  1  0.76479400  0.24881800  0.28691200  1
  C  1016  1  0.83480400  0.24574300  0.60892500  1
  C  1017  1  0.79280400  0.24566000  0.59975400  1
  C  1018  1  0.75712600  0.24590600  0.63609600  1
  C  1019  1  0.79841200  0.24603000  0.64602800  1
  C  1020  1  0.79957900  0.24571400  0.66863900  1
  C  1021  1  0.76158800  0.24514300  0.68160500  1
  C  1022  1  0.72121700  0.24528500  0.67092200  1
  C  1023  1  0.71905400  0.24572600  0.64868500  1
  C  1024  1  0.78878600  0.24551900  0.57753200  1
  C  1025  1  0.82566600  0.24548900  0.56440700  1
  C  1026  1  0.86832700  0.24555100  0.57267200  1
  C  1027  1  0.87171600  0.24564200  0.59511800  1
  C  1028  1  0.86332500  0.28413300  0.63792800  1
  C  1029  1  0.90503770  0.28346500  0.64740600  1
  C  1030  1  0.90455470  0.20847900  0.64759800  1
  C  1031  1  0.86286900  0.20758000  0.63808900  1
  C  1032  1  0.92601770  0.17267900  0.65223800  1
  C  1033  1  0.90711270  0.13612200  0.64726900  1
  C  1034  1  0.86572000  0.13347900  0.63774300  1
  C  1035  1  0.84416300  0.16986700  0.63347700  1
  C  1036  1  0.84468800  0.32175800  0.63333000  1
  C  1037  1  0.86598700  0.35814300  0.63784100  1
  C  1038  1  0.90735070  0.35608800  0.64741800  1
  C  1039  1  0.92651270  0.31938600  0.65205600  1
  C  1052  1  0.83974400  0.24590000  0.63278900  1
  C  1053  1  0.92731170  0.24592600  0.65273400  1
  C  1056  1  0.75243000  0.24568700  0.61270800  1
  C  1059  1  0.84697800  0.09696600  0.63216700  1
  C  1060  1  0.90582270  0.24553000  0.55973300  1
  C  1061  1  0.84425100  0.39408500  0.63481100  1
  C  1065  1  0.76462500  0.24216900  0.70387300  1
  C  1067  1  0.99420174  0.74570100  0.60912900  1
  C  1068  1  0.03652100  0.74559000  0.60024400  1
  C  1069  1  0.07132900  0.74545200  0.63651800  1
  C  1070  1  0.02986000  0.74572400  0.64628200  1
  C  1071  1  0.02851800  0.74589000  0.66886700  1
  C  1072  1  0.06646000  0.74606300  0.68185900  1
  C  1073  1  0.10696100  0.74572800  0.67130500  1
  C  1074  1  0.10934000  0.74533400  0.64910900  1
  C  1075  1  0.04172200  0.74550700  0.57812700  1
  C  1076  1  0.00559200  0.74549800  0.56470700  1
  C  1077  1  0.96260470  0.74555200  0.57271800  1
  C  1078  1  0.95777470  0.74564200  0.59504800  1
  C  1079  1  0.96531270  0.70755500  0.63814900  1
  C  1080  1  0.92357970  0.70846700  0.64761800  1
  C  1081  1  0.92315270  0.78343300  0.64743000  1
  C  1082  1  0.96493770  0.78407900  0.63800800  1
  C  1083  1  0.90163470  0.81935300  0.65205200  1
  C  1084  1  0.92079670  0.85605600  0.64742100  1
  C  1085  1  0.96218070  0.85811600  0.63787100  1
  C  1086  1  0.98355870  0.82172200  0.63342800  1
  C  1087  1  0.98397270  0.66982700  0.63353100  1
  C  1088  1  0.96236970  0.63345300  0.63776000  1
  C  1089  1  0.92094970  0.63610900  0.64725800  1
  C  1090  1  0.90206170  0.67267500  0.65222700  1
  C  1103  1  0.98863270  0.74582700  0.63294700  1
  C  1104  1  0.90083970  0.74591500  0.65274900  1
  C  1107  1  0.07658200  0.74549000  0.61325400  1
  C  1110  1  0.98390770  0.89407300  0.63484600  1
  C  1111  1  0.92689470  0.74554100  0.55892100  1
  C  1112  1  0.98111770  0.59695800  0.63216400  1
  C  1116  1  0.06330500  0.74884200  0.70408900  1
  C  1118  1  0.99330874  0.74529900  0.38207300  1
  C  1119  1  0.03531200  0.74541100  0.39124500  1
  C  1120  1  0.07098300  0.74554200  0.35490300  1
  C  1121  1  0.02969700  0.74526900  0.34497300  1
  C  1122  1  0.02852100  0.74509000  0.32236300  1
  C  1123  1  0.06651200  0.74490900  0.30939600  1
  C  1124  1  0.10688200  0.74527800  0.32007400  1
  C  1125  1  0.10905300  0.74566300  0.34231100  1
  C  1126  1  0.03932700  0.74549500  0.41346600  1
  C  1127  1  0.00245000  0.74550200  0.42659200  1
  C  1128  1  0.95978570  0.74544200  0.41832500  1
  C  1129  1  0.95639670  0.74535500  0.39588100  1
  C  1130  1  0.96520470  0.78345800  0.35292100  1
  C  1131  1  0.92353070  0.78254200  0.34340100  1
  C  1132  1  0.92310070  0.70755700  0.34359100  1
  C  1133  1  0.96482370  0.70690500  0.35306100  1
  C  1134  1  0.90162870  0.67163100  0.33894200  1
  C  1135  1  0.92080370  0.63493500  0.34357600  1
  C  1136  1  0.96216470  0.63288000  0.35315500  1
  C  1137  1  0.98348070  0.66927700  0.35764500  1
  C  1138  1  0.98389470  0.82117200  0.35754500  1
  C  1139  1  0.96235370  0.85755200  0.35326200  1
  C  1140  1  0.92096970  0.85490000  0.34372800  1
  C  1141  1  0.90206170  0.81834000  0.33876300  1
  C  1154  1  0.98836870  0.74517200  0.35821100  1
  C  1155  1  0.90080070  0.74508500  0.33826700  1
  C  1158  1  0.07568200  0.74551100  0.37829000  1
  C  1161  1  0.98390370  0.59692600  0.35615800  1
  C  1162  1  0.92228970  0.74545600  0.43126600  1
  C  1163  1  0.98112070  0.89404800  0.35883600  1
  C  1167  1  0.06347500  0.74214900  0.28711900  1
  C  1169  1  0.40798100  0.74550800  0.01817800  1
  C  1170  1  0.44608200  0.74550200  0.00538800  1
  C  1171  1  0.44265100  0.74549100  0.98290900  1
  C  1172  1  0.40174800  0.74548700  0.97290100  1
  C  1173  1  0.36426700  0.74549400  0.98562600  1
  C  1174  1  0.36742000  0.74550500  0.00773800  1
  C  1176  1  0.52010300  0.74549000  0.97942600  1
  C  1177  1  0.52413400  0.74550000  0.00178300  1
  C  1181  1  0.55693400  0.74548200  0.96441800  1
  C  1185  1  0.56585000  0.74550500  0.01337000  1
  C  1191  1  0.42010900  0.24548600  0.97281800  1
  C  1192  1  0.38200700  0.24549500  0.98560800  1
  C  1193  1  0.38543700  0.24550400  0.00808700  1
  C  1194  1  0.42633800  0.24551000  0.01809800  1
  C  1195  1  0.46382000  0.24550100  0.00537300  1
  C  1196  1  0.46066900  0.24548900  0.98326000  1
  C  1198  1  0.30798500  0.24550700  0.01157000  1
  C  1199  1  0.30395700  0.24549500  0.98921300  1
  C  1203  1  0.27115500  0.24551300  0.02657700  1
  C  1207  1  0.26223800  0.24549300  0.97762500  1
  C  1213  1  0.90796670  0.24550900  0.51819500  1
  C  1214  1  0.94606270  0.24550300  0.50539100  1
  C  1215  1  0.94262770  0.24549400  0.48290500  1
  C  1216  1  0.90172270  0.24548800  0.47288600  1
  C  1217  1  0.86426000  0.24549400  0.48563000  1
  C  1218  1  0.86741500  0.24550600  0.50774700  1
  C  1220  1  0.02009000  0.24549100  0.47942600  1
  C  1221  1  0.02412100  0.24550300  0.50178200  1
  C  1225  1  0.05692800  0.24548500  0.46442000  1
  C  1229  1  0.06584400  0.24550800  0.51336800  1
  C  1235  1  0.92014570  0.74548900  0.47280200  1
  C  1236  1  0.88205000  0.74549600  0.48560600  1
  C  1237  1  0.88548500  0.74550700  0.50809000  1
  C  1238  1  0.92638870  0.74551100  0.51811100  1
  C  1239  1  0.96385270  0.74550300  0.50536900  1
  C  1240  1  0.96069770  0.74549100  0.48325200  1
  C  1242  1  0.80802300  0.74550900  0.51156900  1
  C  1243  1  0.80399100  0.74549800  0.48921500  1
  C  1247  1  0.77118500  0.74551600  0.52657600  1
  C  1251  1  0.76226900  0.74549300  0.47762700  1
  C  1257  1  0.38725500  0.96233100  0.85688300  1
  C  1258  1  0.37796600  0.99581600  0.86961600  1
  C  1259  1  0.40437300  0.03033300  0.86832600  1
  C  1260  1  0.44003000  0.03260700  0.85441500  1
  C  1261  1  0.44895500  0.99929900  0.84178000  1
  C  1262  1  0.42249100  0.96530300  0.84262700  1
  C  1264  1  0.36260700  0.06150300  0.89546100  1
  C  1265  1  0.33569300  0.02751900  0.89678200  1
  C  1269  1  0.35745000  0.09764900  0.90825800  1
  C  1273  1  0.29816300  0.02324300  0.91116700  1
  C  1279  1  0.38725400  0.52866400  0.13411500  1
  C  1280  1  0.37797000  0.49518200  0.12137900  1
  C  1281  1  0.40437300  0.46066200  0.12267200  1
  C  1282  1  0.44002800  0.45839100  0.13658400  1
  C  1283  1  0.44895900  0.49170200  0.14921500  1
  C  1284  1  0.42248900  0.52569300  0.14837100  1
  C  1286  1  0.36260600  0.42949300  0.09553600  1
  C  1287  1  0.33569200  0.46347800  0.09421500  1
  C  1291  1  0.35745000  0.39334700  0.08274000  1
  C  1295  1  0.29816200  0.46775300  0.07983200  1
  C  1301  1  0.44084900  0.02869500  0.13410900  1
  C  1302  1  0.45012500  0.99519400  0.12138100  1
  C  1303  1  0.42372200  0.96067000  0.12267800  1
  C  1304  1  0.38806200  0.95837900  0.13659300  1
  C  1305  1  0.37915900  0.99170300  0.14922000  1
  C  1306  1  0.40561100  0.02571200  0.14836400  1
  C  1308  1  0.46547900  0.92949600  0.09553600  1
  C  1309  1  0.49238800  0.96348400  0.09421200  1
  C  1313  1  0.47063300  0.89335000  0.08274000  1
  C  1317  1  0.52992100  0.96775400  0.07982700  1
  C  1323  1  0.44084800  0.46230600  0.85689100  1
  C  1324  1  0.45013600  0.49580600  0.86961600  1
  C  1325  1  0.42373600  0.53033200  0.86831700  1
  C  1326  1  0.38812000  0.53268600  0.85437900  1
  C  1327  1  0.37915800  0.49931300  0.84179200  1
  C  1328  1  0.40560000  0.46529900  0.84264300  1
  C  1330  1  0.46548400  0.56149900  0.89546400  1
  C  1331  1  0.49239400  0.52751100  0.89678800  1
  C  1335  1  0.47063800  0.59764500  0.90826000  1
  C  1339  1  0.52992500  0.52324000  0.91117300  1
  C  1345  1  0.88726400  0.46231500  0.35688500  1
  C  1346  1  0.87797600  0.49580900  0.36961500  1
  C  1347  1  0.90438270  0.53032800  0.36832400  1
  C  1348  1  0.94004370  0.53261400  0.35441600  1
  C  1349  1  0.94896670  0.49930000  0.34178200  1
  C  1350  1  0.92250770  0.46529500  0.34263300  1
  C  1352  1  0.86261800  0.56150100  0.39546000  1
  C  1353  1  0.83570600  0.52751700  0.39678100  1
  C  1357  1  0.85746200  0.59764800  0.40825600  1
  C  1361  1  0.79817800  0.52324200  0.41116700  1
  C  1367  1  0.88726100  0.02868300  0.63411300  1
  C  1368  1  0.87798000  0.99519500  0.62137800  1
  C  1369  1  0.90437870  0.96067100  0.62267100  1
  C  1370  1  0.94004070  0.95838300  0.63658100  1
  C  1371  1  0.94897270  0.99170000  0.64921000  1
  C  1372  1  0.92250470  0.02569900  0.64836500  1
  C  1374  1  0.86261400  0.92949800  0.59553700  1
  C  1375  1  0.83570300  0.96348600  0.59421600  1
  C  1379  1  0.85745900  0.89335300  0.58273900  1
  C  1383  1  0.79817400  0.96775900  0.57983000  1
  C  1389  1  0.94085870  0.52868100  0.63410800  1
  C  1390  1  0.95013570  0.49519000  0.62137800  1
  C  1391  1  0.92373270  0.46067100  0.62267700  1
  C  1392  1  0.88807900  0.45839100  0.63659600  1
  C  1393  1  0.87917200  0.49171100  0.64922300  1
  C  1394  1  0.90562670  0.52571300  0.64836700  1
  C  1396  1  0.96548870  0.42949500  0.59553600  1
  C  1397  1  0.99239974  0.46348200  0.59421100  1
  C  1401  1  0.97064370  0.39334800  0.58273900  1
  C  1405  1  0.02993200  0.46775400  0.57982600  1
  C  1411  1  0.94085870  0.96232400  0.35689000  1
  C  1412  1  0.95014870  0.99581600  0.36961700  1
  C  1413  1  0.92374970  0.03033800  0.36831800  1
  C  1414  1  0.88813700  0.03267700  0.35437800  1
  C  1415  1  0.87917200  0.99931100  0.34178900  1
  C  1416  1  0.90561770  0.96530200  0.34264000  1
  C  1418  1  0.96549470  0.06150200  0.39546500  1
  C  1419  1  0.99240674  0.02751400  0.39678900  1
  C  1423  1  0.97065070  0.09764800  0.40826100  1
  C  1427  1  0.02993800  0.02324200  0.41117400  1
  C  1433  1  0.12725700  0.74799900  0.73183000  1
  C  1434  1  0.12625300  0.76678700  0.75196100  1
  C  1435  1  0.16337100  0.76505700  0.76542900  1
  C  1436  1  0.20122300  0.74410300  0.75998600  1
  C  1437  1  0.20195700  0.72563400  0.74000200  1
  C  1438  1  0.16573300  0.72759100  0.72623700  1
  C  1440  1  0.12821800  0.80525900  0.79137400  1
  C  1441  1  0.09049400  0.80654900  0.77847700  1
  C  1445  1  0.13324300  0.82386600  0.81235700  1
  C  1449  1  0.05012000  0.82748300  0.78429600  1
  C  1455  1  0.12727300  0.74297600  0.25921800  1
  C  1456  1  0.12625000  0.72421700  0.23906400  1
  C  1457  1  0.16333800  0.72597900  0.22556200  1
  C  1458  1  0.20122600  0.74692100  0.23095300  1
  C  1459  1  0.20198300  0.76535700  0.25095200  1
  C  1460  1  0.16579900  0.76337700  0.26475500  1
  C  1462  1  0.12819200  0.68577500  0.19962100  1
  C  1463  1  0.09049100  0.68445900  0.21253200  1
  C  1467  1  0.13323000  0.66714700  0.17864200  1
  C  1471  1  0.05012400  0.66352300  0.20671100  1
  C  1477  1  0.70084000  0.24800000  0.25916900  1
  C  1478  1  0.70183400  0.26678400  0.23903600  1
  C  1479  1  0.66471900  0.26504500  0.22556700  1
  C  1480  1  0.62687100  0.24408200  0.23100800  1
  C  1481  1  0.62614100  0.22562600  0.25099700  1
  C  1482  1  0.66236300  0.22758700  0.26476000  1
  C  1484  1  0.69986900  0.30524500  0.19962000  1
  C  1485  1  0.73759000  0.30654600  0.21251900  1
  C  1489  1  0.69484100  0.32386100  0.17863900  1
  C  1493  1  0.77796300  0.32748200  0.20670100  1
  C  1499  1  0.70083000  0.24298200  0.73178100  1
  C  1500  1  0.70184400  0.22422700  0.75193600  1
  C  1501  1  0.66475200  0.22599300  0.76544000  1
  C  1502  1  0.62687100  0.24694700  0.76004900  1
  C  1503  1  0.62611500  0.26535900  0.74004300  1
  C  1504  1  0.66230400  0.26337800  0.72624200  1
  C  1506  1  0.69989200  0.18578100  0.79137700  1
  C  1507  1  0.73759300  0.18445900  0.77846600  1
  C  1511  1  0.69485400  0.16714800  0.81235400  1
  C  1515  1  0.77796000  0.16351300  0.78428500  1
  N  415  1  0.96825300  0.74548600  0.97114700  1
  N  418  1  0.97579700  0.74550600  0.01360800  1
  N  429  1  0.89709700  0.74552400  0.03931100  1
  N  430  1  0.88457200  0.74547200  0.95223800  1
  N  437  1  0.83747700  0.24551000  0.01984900  1
  N  440  1  0.82993700  0.24548900  0.97738800  1
  N  451  1  0.90863700  0.24547700  0.95168600  1
  N  452  1  0.92115200  0.24551500  0.03876100  1
  N  459  1  0.46823900  0.24548800  0.47114700  1
  N  462  1  0.47578300  0.24550900  0.51360700  1
  N  473  1  0.39702700  0.24552100  0.53934400  1
  N  474  1  0.38449100  0.24548000  0.45220900  1
  N  481  1  0.33751800  0.74551300  0.51984900  1
  N  484  1  0.32997400  0.74549200  0.47738800  1
  N  495  1  0.40873000  0.74547200  0.45165500  1
  N  496  1  0.42126000  0.74552400  0.53878900  1
  N  503  1  0.88447500  0.06100600  0.88132400  1
  N  506  1  0.83371300  0.99632500  0.88389300  1
  N  517  1  0.85333700  0.92874500  0.85840800  1
  N  518  1  0.95874700  0.06097900  0.85575300  1
  N  525  1  0.88447400  0.42998900  0.10967400  1
  N  528  1  0.83371300  0.49467100  0.10710300  1
  N  539  1  0.85333300  0.56224700  0.13258700  1
  N  540  1  0.95874100  0.43001600  0.13524800  1
  N  547  1  0.92126600  0.92999500  0.10967900  1
  N  550  1  0.97201400  0.99467900  0.10709900  1
  N  561  1  0.95239500  0.06231000  0.13258200  1
  N  562  1  0.84705100  0.92994100  0.13523100  1
  N  569  1  0.92127900  0.56100500  0.88131700  1
  N  572  1  0.97202100  0.49631400  0.88390100  1
  N  583  1  0.95238700  0.42868500  0.85841700  1
  N  584  1  0.84700800  0.56103200  0.85575800  1
  N  591  1  0.38448400  0.56100500  0.38132200  1
  N  594  1  0.33372500  0.49632000  0.38389400  1
  N  605  1  0.35336900  0.42869700  0.35841100  1
  N  606  1  0.45873600  0.56102500  0.35574900  1
  N  613  1  0.38448100  0.92999600  0.60967500  1
  N  616  1  0.33372100  0.99468100  0.60710300  1
  N  627  1  0.35335900  0.06229500  0.63259000  1
  N  628  1  0.45873000  0.92997200  0.63524300  1
  N  635  1  0.42127600  0.42999400  0.60967800  1
  N  638  1  0.47202600  0.49467600  0.60709800  1
  N  649  1  0.45241400  0.56227900  0.63257900  1
  N  650  1  0.34705000  0.42998300  0.63523200  1
  N  657  1  0.42128900  0.06100900  0.38131900  1
  N  660  1  0.47203500  0.99632100  0.38390100  1
  N  671  1  0.45240800  0.92872400  0.35841700  1
  N  672  1  0.34700800  0.06099100  0.35576100  1
  N  679  1  0.65134500  0.78462100  0.78400000  1
  N  682  1  0.58031600  0.78758000  0.75938500  1
  N  693  1  0.58329200  0.74847600  0.71782600  1
  N  694  1  0.72404400  0.74263100  0.77316100  1
  N  701  1  0.65130300  0.70644200  0.20698300  1
  N  704  1  0.58032300  0.70341500  0.23163300  1
  N  715  1  0.58337300  0.74250800  0.27331100  1
  N  716  1  0.72396800  0.74836900  0.21768000  1
  N  723  1  0.15438900  0.28459800  0.20699200  1
  N  726  1  0.22541100  0.28758100  0.23161200  1
  N  737  1  0.22245900  0.24846700  0.27316900  1
  N  738  1  0.08167500  0.24262800  0.21784100  1
  N  745  1  0.15442800  0.20646100  0.78402000  1
  N  748  1  0.22540800  0.20341500  0.75936600  1
  N  759  1  0.22237400  0.24251800  0.71768600  1
  N  760  1  0.08174600  0.24837600  0.77331100  1
  N  1175  1  0.47943100  0.74548600  0.97114700  1
  N  1178  1  0.48697500  0.74550600  0.01360800  1
  N  1189  1  0.40827500  0.74552400  0.03931100  1
  N  1190  1  0.39575000  0.74547200  0.95223800  1
  N  1197  1  0.34865500  0.24551000  0.01984900  1
  N  1200  1  0.34111500  0.24548900  0.97738800  1
  N  1211  1  0.41981500  0.24547700  0.95168600  1
  N  1212  1  0.43233000  0.24551500  0.03876100  1
  N  1219  1  0.97941670  0.24548800  0.47114700  1
  N  1222  1  0.98696070  0.24550900  0.51360700  1
  N  1233  1  0.90820470  0.24552100  0.53934400  1
  N  1234  1  0.89566900  0.24548000  0.45220900  1
  N  1241  1  0.84869600  0.74551300  0.51984900  1
  N  1244  1  0.84115200  0.74549200  0.47738800  1
  N  1255  1  0.91990770  0.74547200  0.45165500  1
  N  1256  1  0.93243770  0.74552400  0.53878900  1
  N  1263  1  0.39565300  0.06100600  0.88132400  1
  N  1266  1  0.34489100  0.99632500  0.88389300  1
  N  1277  1  0.36451500  0.92874500  0.85840800  1
  N  1278  1  0.46992500  0.06097900  0.85575300  1
  N  1285  1  0.39565200  0.42998900  0.10967400  1
  N  1288  1  0.34489100  0.49467100  0.10710300  1
  N  1299  1  0.36451100  0.56224700  0.13258700  1
  N  1300  1  0.46991900  0.43001600  0.13524800  1
  N  1307  1  0.43244400  0.92999500  0.10967900  1
  N  1310  1  0.48319200  0.99467900  0.10709900  1
  N  1321  1  0.46357300  0.06231000  0.13258200  1
  N  1322  1  0.35822900  0.92994100  0.13523100  1
  N  1329  1  0.43245700  0.56100500  0.88131700  1
  N  1332  1  0.48319900  0.49631400  0.88390100  1
  N  1343  1  0.46356500  0.42868500  0.85841700  1
  N  1344  1  0.35818600  0.56103200  0.85575800  1
  N  1351  1  0.89566200  0.56100500  0.38132200  1
  N  1354  1  0.84490300  0.49632000  0.38389400  1
  N  1365  1  0.86454700  0.42869700  0.35841100  1
  N  1366  1  0.96991370  0.56102500  0.35574900  1
  N  1373  1  0.89565900  0.92999600  0.60967500  1
  N  1376  1  0.84489900  0.99468100  0.60710300  1
  N  1387  1  0.86453700  0.06229500  0.63259000  1
  N  1388  1  0.96990770  0.92997200  0.63524300  1
  N  1395  1  0.93245370  0.42999400  0.60967800  1
  N  1398  1  0.98320370  0.49467600  0.60709800  1
  N  1409  1  0.96359170  0.56227900  0.63257900  1
  N  1410  1  0.85822800  0.42998300  0.63523200  1
  N  1417  1  0.93246670  0.06100900  0.38131900  1
  N  1420  1  0.98321270  0.99632100  0.38390100  1
  N  1431  1  0.96358570  0.92872400  0.35841700  1
  N  1432  1  0.85818600  0.06099100  0.35576100  1
  N  1439  1  0.16252300  0.78462100  0.78400000  1
  N  1442  1  0.09149400  0.78758000  0.75938500  1
  N  1453  1  0.09447000  0.74847600  0.71782600  1
  N  1454  1  0.23522200  0.74263100  0.77316100  1
  N  1461  1  0.16248100  0.70644200  0.20698300  1
  N  1464  1  0.09150100  0.70341500  0.23163300  1
  N  1475  1  0.09455100  0.74250800  0.27331100  1
  N  1476  1  0.23514600  0.74836900  0.21768000  1
  N  1483  1  0.66556700  0.28459800  0.20699200  1
  N  1486  1  0.73658900  0.28758100  0.23161200  1
  N  1497  1  0.73363700  0.24846700  0.27316900  1
  N  1498  1  0.59285300  0.24262800  0.21784100  1
  N  1505  1  0.66560600  0.20646100  0.78402000  1
  N  1508  1  0.73658600  0.20341500  0.75936600  1
  N  1519  1  0.73355200  0.24251800  0.71768600  1
  N  1520  1  0.59292400  0.24837600  0.77331100  1
