# generated using pymatgen
data_H28C45N8
_symmetry_space_group_name_H-M   'P 1'
_cell_length_a   58.57120000
_cell_length_b   61.55950000
_cell_length_c   61.55940000
_cell_angle_alpha   90.00000000
_cell_angle_beta   90.00000000
_cell_angle_gamma   90.00000000
_symmetry_Int_Tables_number   1
_chemical_formula_structural   H28C45N8
_chemical_formula_sum   'H448 C720 N128'
_cell_volume   221959.42132251
_cell_formula_units_Z   16
loop_
 _symmetry_equiv_pos_site_id
 _symmetry_equiv_pos_as_xyz
  1  'x, y, z'
loop_
 _atom_site_type_symbol
 _atom_site_label
 _atom_site_symmetry_multiplicity
 _atom_site_fract_x
 _atom_site_fract_y
 _atom_site_fract_z
 _atom_site_occupancy
  H  26  1  0.84491200  0.22633900  0.40697300  1
  H  27  1  0.87804200  0.20393900  0.40777400  1
  H  28  1  0.80586700  0.17286400  0.38624200  1
  H  29  1  0.83872400  0.15063900  0.38719700  1
  H  30  1  0.86633400  0.14407100  0.35774900  1
  H  31  1  0.87443800  0.15119900  0.32087600  1
  H  32  1  0.92052400  0.20036400  0.33973400  1
  H  33  1  0.91190700  0.19348500  0.37688800  1
  H  34  1  0.93245600  0.16112100  0.39299000  1
  H  35  1  0.96053500  0.16474800  0.42055200  1
  H  36  1  0.90848900  0.17211200  0.46715100  1
  H  37  1  0.88055000  0.16841100  0.43962300  1
  H  38  1  0.85621600  0.13311700  0.42039300  1
  H  39  1  0.91216200  0.12984200  0.37747300  1
  H  40  1  0.91068000  0.09170600  0.37815200  1
  H  41  1  0.85440600  0.09432700  0.42083100  1
  H  44  1  0.92046300  0.18506300  0.30161300  1
  H  45  1  0.79261600  0.21187500  0.38091700  1
  H  47  1  0.94824400  0.17860000  0.47746100  1
  H  49  1  0.88725500  0.05957100  0.38411400  1
  H  75  1  0.34488800  0.29264600  0.58123300  1
  H  76  1  0.37801000  0.31504200  0.58040900  1
  H  77  1  0.30587600  0.34610600  0.60205100  1
  H  78  1  0.33873000  0.36832400  0.60106900  1
  H  79  1  0.36637300  0.37495500  0.63046300  1
  H  80  1  0.37446400  0.36781800  0.66733500  1
  H  81  1  0.42045200  0.31856700  0.64848300  1
  H  82  1  0.41184700  0.32545600  0.61132900  1
  H  83  1  0.43245800  0.35780500  0.59522900  1
  H  84  1  0.46054200  0.35420600  0.56767200  1
  H  85  1  0.40850300  0.34695100  0.52105200  1
  H  86  1  0.38056600  0.35062700  0.54858000  1
  H  87  1  0.35617800  0.38586100  0.56785400  1
  H  88  1  0.41219400  0.38913000  0.61069400  1
  H  89  1  0.41072400  0.42726700  0.61000600  1
  H  90  1  0.35437900  0.42465100  0.56740900  1
  H  93  1  0.42043500  0.33389800  0.68659900  1
  H  94  1  0.29260500  0.30709800  0.60732900  1
  H  96  1  0.44825600  0.34042900  0.51074100  1
  H  98  1  0.38727700  0.45940000  0.60408500  1
  H  124  1  0.09494100  0.84704900  0.96142700  1
  H  125  1  0.12804800  0.84624200  0.93900800  1
  H  126  1  0.05585300  0.86772700  0.90796100  1
  H  127  1  0.08868600  0.86676200  0.88572600  1
  H  128  1  0.11624200  0.89612400  0.87902200  1
  H  129  1  0.12410200  0.93301000  0.88613300  1
  H  130  1  0.17018100  0.91444000  0.93541900  1
  H  131  1  0.16183800  0.87723500  0.92850600  1
  H  132  1  0.18244300  0.86098900  0.89621000  1
  H  133  1  0.21052300  0.83342000  0.89981500  1
  H  134  1  0.15846900  0.78682300  0.90713600  1
  H  135  1  0.13054400  0.81435300  0.90344500  1
  H  136  1  0.10612200  0.83359900  0.86818300  1
  H  137  1  0.16214100  0.87643100  0.86484500  1
  H  138  1  0.16034700  0.87606000  0.82670100  1
  H  139  1  0.10403900  0.83343500  0.82939100  1
  H  142  1  0.16930600  0.95270300  0.92126200  1
  H  143  1  0.04270000  0.87311700  0.94704200  1
  H  145  1  0.19821000  0.77650000  0.91362900  1
  H  147  1  0.13579900  0.87080400  0.79480400  1
  H  173  1  0.59494100  0.67195200  0.02679600  1
  H  174  1  0.62804900  0.67275300  0.04921500  1
  H  175  1  0.55585300  0.65126500  0.08025700  1
  H  176  1  0.58868500  0.65222000  0.10249100  1
  H  177  1  0.61623600  0.62286600  0.10921400  1
  H  178  1  0.62409300  0.58597800  0.10210600  1
  H  179  1  0.67016500  0.60453800  0.05281100  1
  H  180  1  0.66182700  0.64174400  0.05971900  1
  H  181  1  0.68245600  0.65798700  0.09198800  1
  H  182  1  0.71053000  0.68556700  0.08837800  1
  H  183  1  0.65845800  0.73215700  0.08112000  1
  H  184  1  0.63054200  0.70462000  0.08481400  1
  H  185  1  0.60611900  0.68538500  0.12004700  1
  H  186  1  0.66214800  0.64256100  0.12336800  1
  H  187  1  0.66036200  0.64292800  0.16151400  1
  H  188  1  0.60404400  0.68554200  0.15884000  1
  H  191  1  0.66929000  0.56627700  0.06697500  1
  H  192  1  0.54269700  0.64587300  0.04118300  1
  H  194  1  0.69819500  0.74249000  0.07460500  1
  H  196  1  0.63582900  0.64817800  0.19341800  1
  H  222  1  0.67363600  0.29161600  0.40646100  1
  H  223  1  0.63998500  0.31320000  0.40349700  1
  H  224  1  0.71371600  0.34748200  0.39634300  1
  H  225  1  0.68036300  0.36869700  0.39297500  1
  H  226  1  0.65611800  0.36967700  0.35816500  1
  H  227  1  0.64844800  0.36317400  0.32105300  1
  H  228  1  0.59434000  0.32152200  0.33869900  1
  H  229  1  0.60246500  0.32766400  0.37602100  1
  H  230  1  0.58629700  0.36146400  0.39332600  1
  H  231  1  0.55795500  0.35802600  0.42070500  1
  H  232  1  0.60903800  0.34183500  0.46601000  1
  H  233  1  0.63715100  0.34542700  0.43879400  1
  H  234  1  0.65749500  0.38481200  0.42358100  1
  H  235  1  0.60974800  0.38830600  0.37254800  1
  H  236  1  0.61128800  0.42632300  0.37339200  1
  H  237  1  0.65929800  0.42358400  0.42438200  1
  H  240  1  0.59851400  0.33468600  0.30056700  1
  H  241  1  0.73182500  0.31366600  0.40826800  1
  H  243  1  0.56936500  0.33954300  0.47680800  1
  H  245  1  0.63041200  0.45885700  0.38422100  1
  H  271  1  0.17362600  0.22735700  0.58173500  1
  H  272  1  0.13997400  0.20577300  0.58469300  1
  H  273  1  0.21370100  0.17150300  0.59193000  1
  H  274  1  0.18034500  0.15028700  0.59528900  1
  H  275  1  0.15607500  0.14925800  0.63004600  1
  H  276  1  0.14840700  0.15575500  0.66716300  1
  H  277  1  0.09436500  0.19748700  0.64951800  1
  H  278  1  0.10249500  0.19135200  0.61219600  1
  H  279  1  0.08627400  0.15757200  0.59489900  1
  H  280  1  0.05793400  0.16101600  0.56751900  1
  H  281  1  0.10903400  0.17711000  0.52219500  1
  H  282  1  0.13714400  0.17351200  0.54941300  1
  H  283  1  0.15754600  0.13417400  0.56467500  1
  H  284  1  0.10968900  0.13066800  0.61562100  1
  H  285  1  0.11125400  0.09264800  0.61478700  1
  H  286  1  0.15937600  0.09540200  0.56389200  1
  H  289  1  0.09851300  0.18430200  0.68764900  1
  H  290  1  0.23182200  0.20531000  0.57999300  1
  H  292  1  0.06935700  0.17944600  0.51140400  1
  H  294  1  0.13050000  0.06013200  0.60404100  1
  H  320  1  0.42344900  0.67182900  0.96188000  1
  H  321  1  0.38974600  0.66892900  0.94036100  1
  H  322  1  0.46339000  0.66166800  0.90593200  1
  H  323  1  0.42998600  0.65836400  0.88478000  1
  H  324  1  0.40569600  0.62363900  0.88381400  1
  H  325  1  0.39813100  0.58655000  0.89037000  1
  H  326  1  0.34420700  0.60413500  0.93227300  1
  H  327  1  0.35221400  0.64146100  0.92602700  1
  H  328  1  0.33593000  0.65884100  0.89228200  1
  H  329  1  0.30764300  0.68626200  0.89583300  1
  H  330  1  0.35886400  0.73149000  0.91185700  1
  H  331  1  0.38691900  0.70424000  0.90813700  1
  H  332  1  0.40718300  0.68890600  0.86862800  1
  H  333  1  0.35922400  0.63803500  0.86535000  1
  H  334  1  0.36091600  0.63858100  0.82732200  1
  H  335  1  0.40910400  0.68942300  0.82984000  1
  H  338  1  0.34901300  0.56587400  0.92060400  1
  H  339  1  0.48158300  0.67358300  0.93972600  1
  H  341  1  0.31920500  0.74232500  0.91432600  1
  H  343  1  0.38113900  0.64863800  0.79486100  1
  H  369  1  0.92345500  0.84720700  0.02633600  1
  H  370  1  0.88975300  0.85010500  0.04785600  1
  H  371  1  0.96339700  0.85724800  0.08230600  1
  H  372  1  0.92999500  0.86055200  0.10345800  1
  H  373  1  0.90573500  0.89534600  0.10432800  1
  H  374  1  0.89816300  0.93242700  0.09776500  1
  H  375  1  0.84412600  0.91482800  0.05600000  1
  H  376  1  0.85213900  0.87750500  0.06225200  1
  H  377  1  0.83596500  0.86011500  0.09605400  1
  H  378  1  0.80766500  0.83270700  0.09248700  1
  H  379  1  0.85883300  0.78751800  0.07620000  1
  H  380  1  0.88690700  0.81474900  0.07994200  1
  H  381  1  0.90710400  0.83002400  0.11959300  1
  H  382  1  0.85930800  0.88103100  0.12288000  1
  H  383  1  0.86101200  0.88048500  0.16090600  1
  H  384  1  0.90903200  0.82950200  0.15838200  1
  H  387  1  0.84898400  0.95309700  0.06760500  1
  H  388  1  0.98159000  0.84538600  0.04850000  1
  H  390  1  0.81918100  0.77668000  0.07384200  1
  H  392  1  0.88116700  0.87035200  0.19337100  1
  H  418  1  0.17395900  0.79245500  0.58166000  1
  H  419  1  0.14080400  0.81482500  0.58083600  1
  H  420  1  0.21302800  0.84607800  0.60197000  1
  H  421  1  0.18014700  0.86827000  0.60099900  1
  H  422  1  0.15267300  0.87461100  0.63060300  1
  H  423  1  0.14459500  0.86752400  0.66748800  1
  H  424  1  0.09814500  0.81864100  0.64869900  1
  H  425  1  0.10674100  0.82547000  0.61153200  1
  H  426  1  0.08639000  0.85788100  0.59531700  1
  H  427  1  0.05833700  0.85422100  0.56773200  1
  H  428  1  0.11042800  0.84643400  0.52124700  1
  H  429  1  0.13833500  0.85017500  0.54879100  1
  H  430  1  0.16246700  0.88566400  0.56782300  1
  H  431  1  0.10678900  0.88899800  0.61105100  1
  H  432  1  0.10828400  0.92713100  0.61033300  1
  H  433  1  0.16428900  0.92445300  0.56733700  1
  H  436  1  0.09841300  0.83386100  0.68682700  1
  H  437  1  0.22626800  0.80705100  0.60752600  1
  H  439  1  0.07068500  0.84009700  0.51088300  1
  H  441  1  0.13156200  0.95927600  0.60414500  1
  H  467  1  0.67398600  0.72651400  0.40658200  1
  H  468  1  0.64083700  0.70414900  0.40742300  1
  H  469  1  0.71301900  0.67290600  0.38618000  1
  H  470  1  0.68014100  0.65072200  0.38717600  1
  H  471  1  0.65263000  0.64431500  0.35762600  1
  H  472  1  0.64456600  0.65141100  0.32074100  1
  H  473  1  0.59821700  0.70038300  0.33952300  1
  H  474  1  0.60680000  0.69354300  0.37669000  1
  H  475  1  0.58638700  0.66114800  0.39290400  1
  H  476  1  0.55833100  0.66478000  0.42048500  1
  H  477  1  0.61041600  0.67245900  0.46699000  1
  H  478  1  0.63832000  0.66874400  0.43944400  1
  H  479  1  0.66250300  0.63331300  0.42037000  1
  H  480  1  0.60675700  0.62998600  0.37722000  1
  H  481  1  0.60824100  0.59185400  0.37794700  1
  H  482  1  0.66431300  0.59452600  0.42086400  1
  H  485  1  0.59843900  0.68513300  0.30139900  1
  H  486  1  0.72628900  0.71192500  0.38067500  1
  H  488  1  0.57067500  0.67883000  0.47735400  1
  H  490  1  0.63154200  0.55970900  0.38409400  1
  H  516  1  0.92411400  0.17217000  0.02693100  1
  H  517  1  0.89102700  0.17294300  0.04937400  1
  H  518  1  0.96325100  0.15144500  0.08034400  1
  H  519  1  0.93043500  0.15237500  0.10260500  1
  H  520  1  0.90288600  0.12298600  0.10929400  1
  H  521  1  0.89499300  0.08610700  0.10216200  1
  H  522  1  0.84889000  0.10474100  0.05292100  1
  H  523  1  0.85726600  0.14193500  0.05985300  1
  H  524  1  0.83667200  0.15810700  0.09219200  1
  H  525  1  0.80856500  0.18565100  0.08861600  1
  H  526  1  0.86057100  0.23230100  0.08130800  1
  H  527  1  0.88852500  0.20479100  0.08496900  1
  H  528  1  0.91299500  0.18550400  0.12021000  1
  H  529  1  0.85699300  0.14264900  0.12351800  1
  H  530  1  0.85880400  0.14297100  0.16166100  1
  H  531  1  0.91509500  0.18561700  0.15900300  1
  H  534  1  0.84971800  0.06648000  0.06708200  1
  H  535  1  0.97640300  0.14612400  0.04127500  1
  H  537  1  0.82081500  0.24259300  0.07484100  1
  H  539  1  0.88343100  0.14816000  0.19354000  1
  H  565  1  0.42411600  0.34678800  0.96128700  1
  H  566  1  0.39102500  0.34602200  0.93884400  1
  H  567  1  0.46325300  0.36751100  0.90787300  1
  H  568  1  0.43043700  0.36659200  0.88561500  1
  H  569  1  0.40289800  0.39598000  0.87891600  1
  H  570  1  0.39500600  0.43286000  0.88604200  1
  H  571  1  0.34889800  0.41423900  0.93528400  1
  H  572  1  0.35727100  0.37704400  0.92835900  1
  H  573  1  0.33665900  0.36087200  0.89604700  1
  H  574  1  0.30855900  0.33333333  0.89962800  1
  H  575  1  0.36058200  0.28667600  0.90687900  1
  H  576  1  0.38852900  0.31419200  0.90321600  1
  H  577  1  0.41299000  0.33346300  0.86799600  1
  H  578  1  0.35698900  0.37632200  0.86471200  1
  H  579  1  0.35878400  0.37599900  0.82656800  1
  H  580  1  0.41507100  0.33333333  0.82920300  1
  H  583  1  0.34973000  0.45249800  0.92111400  1
  H  584  1  0.47641000  0.37284100  0.94693800  1
  H  586  1  0.32082800  0.27637300  0.91336600  1
  H  588  1  0.38337800  0.37080100  0.79467500  1
  H  614  1  0.34539000  0.72750200  0.58206900  1
  H  615  1  0.37906900  0.70595300  0.58501900  1
  H  616  1  0.30537700  0.67155200  0.59196200  1
  H  617  1  0.33875200  0.65037100  0.59531500  1
  H  618  1  0.36293300  0.64950500  0.63019700  1
  H  619  1  0.37058100  0.65597400  0.66731400  1
  H  620  1  0.42483500  0.69748300  0.64973100  1
  H  621  1  0.41672700  0.69138000  0.61239900  1
  H  622  1  0.43279600  0.65757900  0.59499200  1
  H  623  1  0.46111700  0.66105000  0.56759000  1
  H  624  1  0.41001900  0.67751900  0.52240200  1
  H  625  1  0.38193300  0.67388400  0.54962700  1
  H  626  1  0.36171900  0.63435900  0.56470700  1
  H  627  1  0.40928600  0.63080300  0.61588900  1
  H  628  1  0.40773800  0.59278800  0.61500300  1
  H  629  1  0.35991400  0.59558800  0.56385600  1
  H  632  1  0.42055800  0.68436100  0.68786100  1
  H  633  1  0.28723000  0.70537200  0.58013900  1
  H  635  1  0.44966800  0.67972200  0.51154900  1
  H  637  1  0.38876100  0.56025200  0.60401200  1
  H  663  1  0.84540000  0.79147900  0.40617400  1
  H  664  1  0.87908000  0.81302900  0.40323200  1
  H  665  1  0.80539100  0.84741800  0.39620500  1
  H  666  1  0.83876900  0.86859800  0.39285800  1
  H  667  1  0.86297400  0.86951400  0.35802800  1
  H  668  1  0.87062100  0.86304400  0.32090800  1
  H  669  1  0.92480900  0.82145800  0.33849400  1
  H  670  1  0.91669800  0.82755900  0.37582600  1
  H  671  1  0.93281800  0.86134500  0.39322500  1
  H  672  1  0.96113800  0.85786500  0.42062500  1
  H  673  1  0.91002400  0.84149100  0.46583300  1
  H  674  1  0.88193800  0.84513100  0.43860600  1
  H  675  1  0.86167800  0.88461200  0.42348200  1
  H  676  1  0.90934300  0.88817900  0.37238000  1
  H  677  1  0.90776900  0.92619600  0.37325300  1
  H  678  1  0.85984400  0.92338100  0.42431600  1
  H  681  1  0.92056000  0.83459800  0.30036400  1
  H  682  1  0.78723300  0.81360500  0.40803700  1
  H  684  1  0.94967500  0.83924600  0.47668000  1
  H  686  1  0.88868100  0.95871600  0.38416700  1
  H  712  1  0.59548200  0.34693500  0.02645700  1
  H  713  1  0.62915900  0.34986000  0.04800900  1
  H  714  1  0.55547600  0.35710800  0.08235900  1
  H  715  1  0.58885600  0.36043900  0.10354400  1
  H  716  1  0.61313200  0.39520300  0.10446600  1
  H  717  1  0.62072700  0.43228800  0.09789100  1
  H  718  1  0.67470700  0.41464000  0.05607600  1
  H  719  1  0.66666667  0.37732500  0.06233800  1
  H  720  1  0.68291900  0.36001500  0.09613300  1
  H  721  1  0.71123000  0.33261700  0.09261400  1
  H  722  1  0.66006200  0.28734000  0.07656800  1
  H  723  1  0.63197900  0.31457200  0.08025700  1
  H  724  1  0.61167300  0.32994300  0.11976500  1
  H  725  1  0.65960100  0.38084300  0.12300100  1
  H  726  1  0.65789800  0.38033600  0.16102900  1
  H  727  1  0.60974300  0.32946700  0.15855600  1
  H  730  1  0.66992300  0.45290400  0.06772300  1
  H  731  1  0.53732000  0.34518500  0.04854800  1
  H  733  1  0.69973500  0.27653400  0.07414300  1
  H  735  1  0.63760900  0.37034100  0.19348500  1
  H  761  1  0.09547500  0.17198700  0.96176600  1
  H  762  1  0.12915200  0.16906100  0.94021600  1
  H  763  1  0.05546800  0.16194300  0.90584000  1
  H  764  1  0.08884800  0.15861000  0.88465700  1
  H  765  1  0.11309900  0.12376900  0.88382500  1
  H  766  1  0.12070300  0.08669300  0.89040400  1
  H  767  1  0.17479100  0.10435300  0.93208600  1
  H  768  1  0.16674700  0.14166500  0.92581900  1
  H  769  1  0.18288000  0.15898700  0.89196200  1
  H  770  1  0.21120600  0.18637100  0.89549800  1
  H  771  1  0.16009400  0.23160500  0.91182200  1
  H  772  1  0.13199200  0.20439400  0.90811200  1
  H  773  1  0.11175800  0.18908600  0.86845300  1
  H  774  1  0.15950600  0.13803400  0.86521100  1
  H  775  1  0.15779200  0.13853800  0.82718500  1
  H  776  1  0.10982200  0.18956600  0.82966300  1
  H  779  1  0.16996200  0.06608400  0.92048900  1
  H  780  1  0.03731400  0.17380900  0.93966600  1
  H  782  1  0.19976000  0.24241400  0.91412900  1
  H  784  1  0.13757800  0.14861900  0.79472400  1
  H  795  1  0.72898300  0.28879900  0.44436000  1
  H  796  1  0.74901700  0.28328700  0.47777800  1
  H  797  1  0.78246000  0.26017800  0.47903700  1
  H  798  1  0.79581900  0.24231500  0.44686500  1
  H  811  1  0.22899100  0.23016400  0.54386900  1
  H  812  1  0.24904200  0.23566600  0.51045900  1
  H  813  1  0.28248400  0.25877900  0.50920800  1
  H  814  1  0.29582600  0.27665300  0.54138000  1
  H  827  1  0.97874500  0.80935300  0.02348400  1
  H  828  1  0.99875900  0.77593800  0.01788500  1
  H  829  1  0.03225600  0.77473900  0.99484500  1
  H  830  1  0.04569400  0.80696800  0.97714000  1
  H  843  1  0.47874400  0.70962900  0.96473600  1
  H  844  1  0.49875900  0.74304400  0.97032700  1
  H  845  1  0.53225800  0.74424500  0.99336700  1
  H  846  1  0.54569500  0.71201700  0.01107600  1
  H  859  1  0.29008600  0.73027600  0.54407300  1
  H  860  1  0.27006800  0.73578300  0.51064700  1
  H  861  1  0.23657900  0.75883200  0.50938500  1
  H  862  1  0.22315700  0.77664100  0.54156500  1
  H  875  1  0.79007600  0.78871700  0.44413700  1
  H  876  1  0.77003700  0.78322300  0.47755700  1
  H  877  1  0.73655100  0.76017100  0.47880900  1
  H  878  1  0.72315100  0.74235100  0.44663100  1
  H  891  1  0.04014900  0.20984600  0.96465000  1
  H  892  1  0.02012200  0.24325300  0.97025700  1
  H  893  1  0.98666600  0.24444800  0.99335200  1
  H  894  1  0.97328200  0.21222400  0.01110300  1
  H  907  1  0.54015100  0.30913000  0.02357400  1
  H  908  1  0.52012100  0.27572400  0.01797500  1
  H  909  1  0.48666200  0.27452500  0.99488100  1
  H  910  1  0.47328400  0.30674700  0.97712000  1
  H  923  1  0.22996500  0.78786000  0.94395900  1
  H  924  1  0.24446100  0.77383200  0.97751200  1
  H  925  1  0.27309200  0.74544000  0.97757900  1
  H  926  1  0.28759400  0.73126100  0.94410000  1
  H  939  1  0.72994100  0.73114400  0.04425700  1
  H  940  1  0.74442400  0.74518200  0.01070300  1
  H  941  1  0.77305000  0.77357700  0.01063500  1
  H  942  1  0.78756300  0.78774900  0.04411200  1
  H  955  1  0.47998800  0.31004800  0.52222000  1
  H  956  1  0.49451100  0.27646100  0.50830000  1
  H  957  1  0.52321600  0.27632500  0.47997700  1
  H  958  1  0.53776900  0.30976600  0.46576200  1
  H  971  1  0.97998300  0.20895200  0.46598800  1
  H  972  1  0.99451400  0.24254000  0.47989900  1
  H  973  1  0.02322200  0.24267800  0.50822000  1
  H  974  1  0.03776700  0.20923700  0.52244400  1
  H  987  1  0.78907400  0.23116700  0.04448500  1
  H  988  1  0.77454400  0.24516100  0.01093100  1
  H  989  1  0.74585300  0.27349800  0.01086300  1
  H  990  1  0.73132400  0.28765400  0.04434100  1
  H  1003  1  0.28909800  0.28778700  0.94374000  1
  H  1004  1  0.27458000  0.27378100  0.97729400  1
  H  1005  1  0.24589400  0.24544100  0.97736200  1
  H  1006  1  0.23135600  0.23129200  0.94388600  1
  H  1019  1  0.53893200  0.70916000  0.46595000  1
  H  1020  1  0.52444900  0.74274900  0.47990400  1
  H  1021  1  0.49581200  0.74288800  0.50828800  1
  H  1022  1  0.48128400  0.70944800  0.52253100  1
  H  1035  1  0.03893600  0.80979600  0.52228100  1
  H  1036  1  0.02444400  0.77620700  0.50833700  1
  H  1037  1  0.99580500  0.77606800  0.47995500  1
  H  1038  1  0.98128800  0.80950700  0.46570200  1
  H  1051  1  0.91171800  0.21600400  0.20515300  1
  H  1052  1  0.92230800  0.24809200  0.22483500  1
  H  1053  1  0.91923000  0.24914800  0.26406100  1
  H  1054  1  0.90587900  0.21816800  0.28371500  1
  H  1067  1  0.41170600  0.30297200  0.78305900  1
  H  1068  1  0.42229500  0.27088400  0.76337700  1
  H  1069  1  0.41920900  0.26982700  0.72415300  1
  H  1070  1  0.40585100  0.30080500  0.70449900  1
  H  1083  1  0.15220400  0.04888400  0.95321300  1
  H  1084  1  0.16049300  0.02918100  0.98569600  1
  H  1085  1  0.16027100  0.98984800  0.98570400  1
  H  1086  1  0.15177100  0.97021700  0.95323900  1
  H  1099  1  0.65215500  0.47010200  0.03501800  1
  H  1100  1  0.66044100  0.48980600  0.00253500  1
  H  1101  1  0.66022900  0.52913700  0.00253000  1
  H  1102  1  0.65174300  0.54876900  0.03499900  1
  H  1115  1  0.60768100  0.30306000  0.20439300  1
  H  1116  1  0.59591900  0.27122100  0.22388100  1
  H  1117  1  0.59848900  0.26999600  0.26313600  1
  H  1118  1  0.61250600  0.30057800  0.28301800  1
  H  1131  1  0.10769300  0.21591800  0.78382200  1
  H  1132  1  0.09594400  0.24776000  0.76433400  1
  H  1133  1  0.09851400  0.24898500  0.72507900  1
  H  1134  1  0.11251900  0.21839900  0.70519700  1
  H  1147  1  0.36723200  0.46997300  0.95314800  1
  H  1148  1  0.35873100  0.48954800  0.98564700  1
  H  1149  1  0.35850900  0.52887900  0.98570700  1
  H  1150  1  0.36680100  0.54864000  0.95326100  1
  H  1163  1  0.86721600  0.04900000  0.03505200  1
  H  1164  1  0.85871500  0.02942700  0.00255300  1
  H  1165  1  0.85848700  0.99009300  0.00249300  1
  H  1166  1  0.86677400  0.97033200  0.03494100  1
  H  1179  1  0.10726300  0.80303200  0.78332400  1
  H  1180  1  0.09659400  0.77093300  0.76370200  1
  H  1181  1  0.09960500  0.76981800  0.72447300  1
  H  1182  1  0.11296900  0.80075600  0.70475700  1
  H  1195  1  0.60728100  0.71594700  0.20490000  1
  H  1196  1  0.59661700  0.74804800  0.22452200  1
  H  1197  1  0.59963400  0.74916400  0.26375000  1
  H  1198  1  0.61299900  0.71822600  0.28346800  1
  H  1211  1  0.41128200  0.71585400  0.78408600  1
  H  1212  1  0.42310400  0.74771000  0.76465700  1
  H  1213  1  0.42060100  0.74899100  0.72540100  1
  H  1214  1  0.40658700  0.71845000  0.70545600  1
  H  1227  1  0.91126700  0.80312000  0.20414000  1
  H  1228  1  0.92307300  0.77125800  0.22356600  1
  H  1229  1  0.92056800  0.76997800  0.26282300  1
  H  1230  1  0.90657000  0.80052500  0.28276900  1
  H  1243  1  0.66559000  0.54837200  0.44970900  1
  H  1244  1  0.68125100  0.52848300  0.47975000  1
  H  1245  1  0.68100900  0.48912400  0.47970600  1
  H  1246  1  0.66509500  0.46947600  0.44962500  1
  H  1259  1  0.16558000  0.97060500  0.53851600  1
  H  1260  1  0.18122200  0.99049300  0.50846400  1
  H  1261  1  0.18097500  0.02985100  0.50850300  1
  H  1262  1  0.16507700  0.04950200  0.53859100  1
  H  1275  1  0.85394000  0.96919800  0.44956100  1
  H  1276  1  0.83801200  0.98878100  0.47967900  1
  H  1277  1  0.83771000  0.02813900  0.47978100  1
  H  1278  1  0.85332900  0.04809500  0.44976400  1
  H  1291  1  0.35392000  0.54977900  0.53866600  1
  H  1292  1  0.33797300  0.53020000  0.50855500  1
  H  1293  1  0.33767600  0.49084300  0.50844800  1
  H  1294  1  0.35331700  0.47088300  0.53845300  1
  C  1  1  0.88203400  0.08894600  0.39918200  1
  C  2  1  0.89888000  0.10009700  0.38713900  1
  C  3  1  0.89968600  0.12288900  0.38676700  1
  C  4  1  0.88331300  0.13608400  0.39765900  1
  C  5  1  0.86760400  0.12468500  0.41107500  1
  C  6  1  0.86671100  0.10169500  0.41160800  1
  C  7  1  0.88440200  0.16100100  0.39560500  1
  C  8  1  0.90303200  0.16598900  0.41265400  1
  C  9  1  0.89731000  0.16835400  0.43497900  1
  C  10  1  0.91398200  0.17025000  0.45146700  1
  C  11  1  0.93767900  0.16907100  0.44691000  1
  C  12  1  0.94370300  0.16595800  0.42485700  1
  C  13  1  0.92689200  0.16422700  0.40839400  1
  C  14  1  0.88932600  0.16697800  0.37177000  1
  C  15  1  0.86219800  0.17411900  0.39913000  1
  C  16  1  0.86276200  0.19668800  0.40433000  1
  C  17  1  0.84310700  0.21011700  0.40373700  1
  C  18  1  0.82160700  0.20189400  0.39721300  1
  C  19  1  0.82078200  0.17955500  0.39178000  1
  C  20  1  0.84040400  0.16621500  0.39265000  1
  C  21  1  0.87783700  0.15611300  0.35446400  1
  C  22  1  0.88252400  0.16034900  0.33245200  1
  C  23  1  0.89865300  0.17628600  0.32641700  1
  C  24  1  0.90907500  0.18832400  0.34333700  1
  C  25  1  0.90414100  0.18407100  0.36539700  1
  C  42  1  0.80233300  0.21513000  0.39376600  1
  C  43  1  0.88107500  0.06631700  0.39759700  1
  C  46  1  0.95371600  0.17157400  0.46384500  1
  C  48  1  0.90477100  0.17972700  0.30475500  1
  C  50  1  0.38205000  0.43002800  0.58901000  1
  C  51  1  0.39891300  0.41887500  0.60103000  1
  C  52  1  0.39972700  0.39608400  0.60139000  1
  C  53  1  0.38331600  0.38289300  0.59054200  1
  C  54  1  0.36759400  0.39429400  0.57714200  1
  C  55  1  0.36670700  0.41728300  0.57660500  1
  C  56  1  0.38440200  0.35797800  0.59260500  1
  C  57  1  0.40302900  0.35296000  0.57556800  1
  C  58  1  0.39732300  0.35066100  0.55323000  1
  C  59  1  0.41399400  0.34878000  0.53673900  1
  C  60  1  0.43769100  0.34993000  0.54130200  1
  C  61  1  0.44370900  0.35300700  0.56336000  1
  C  62  1  0.42689400  0.35472400  0.57981900  1
  C  63  1  0.38932600  0.35201100  0.61644200  1
  C  64  1  0.36219700  0.34487300  0.58906400  1
  C  65  1  0.36273800  0.32229700  0.58388000  1
  C  66  1  0.34308300  0.30886900  0.58446500  1
  C  67  1  0.32159500  0.31708200  0.59103300  1
  C  68  1  0.32078900  0.33941000  0.59650900  1
  C  69  1  0.34041000  0.35274800  0.59561100  1
  C  70  1  0.37785500  0.36289500  0.63374600  1
  C  71  1  0.38253800  0.35865700  0.65576200  1
  C  72  1  0.39863300  0.34268800  0.66179700  1
  C  73  1  0.40902700  0.33062800  0.64487800  1
  C  74  1  0.40410000  0.33488800  0.62282000  1
  C  91  1  0.30231900  0.30384600  0.59447800  1
  C  92  1  0.38108800  0.45265700  0.59060600  1
  C  95  1  0.45372800  0.34743800  0.52436500  1
  C  97  1  0.40474700  0.33924300  0.68345900  1
  C  99  1  0.13164400  0.85510500  0.82400800  1
  C  100  1  0.14862300  0.86700700  0.83511800  1
  C  101  1  0.14963400  0.86716700  0.85790700  1
  C  102  1  0.13327900  0.85627300  0.87112700  1
  C  103  1  0.11749000  0.84293000  0.85974100  1
  C  104  1  0.11643500  0.84255600  0.83675300  1
  C  105  1  0.13438700  0.85836000  0.89604300  1
  C  106  1  0.15301600  0.84133300  0.90107500  1
  C  107  1  0.14730300  0.81900000  0.90340100  1
  C  108  1  0.16396600  0.80250700  0.90529200  1
  C  109  1  0.18766400  0.80706000  0.90411600  1
  C  110  1  0.19368900  0.82911600  0.90102600  1
  C  111  1  0.17687900  0.84558300  0.89930400  1
  C  112  1  0.13928100  0.88221700  0.90195700  1
  C  113  1  0.11219600  0.85481900  0.90917300  1
  C  114  1  0.11276400  0.84967100  0.93175600  1
  C  115  1  0.09311400  0.85022500  0.94519500  1
  C  116  1  0.07161300  0.85675600  0.93698200  1
  C  117  1  0.07077600  0.86219700  0.91464900  1
  C  118  1  0.09039000  0.86131900  0.90130400  1
  C  119  1  0.12774600  0.89946400  0.89104600  1
  C  120  1  0.13229800  0.92149900  0.89527400  1
  C  121  1  0.14834300  0.92765100  0.91124900  1
  C  122  1  0.15882800  0.91077600  0.92331400  1
  C  123  1  0.15404700  0.88868200  0.91905300  1
  C  140  1  0.05234900  0.86020400  0.95022400  1
  C  141  1  0.13042900  0.85695400  0.80142300  1
  C  144  1  0.20368700  0.79011400  0.90660600  1
  C  146  1  0.15408500  0.94939400  0.91489100  1
  C  148  1  0.63165500  0.66387700  0.16421600  1
  C  149  1  0.64863400  0.65197900  0.15310100  1
  C  150  1  0.64964000  0.65182400  0.13031100  1
  C  151  1  0.63327700  0.66271400  0.11709700  1
  C  152  1  0.61749100  0.67605400  0.12848700  1
  C  153  1  0.61643800  0.67642400  0.15147400  1
  C  154  1  0.63438300  0.66062800  0.09218100  1
  C  155  1  0.65302900  0.67764200  0.08715000  1
  C  156  1  0.64730100  0.69997500  0.08483500  1
  C  157  1  0.66396100  0.71647300  0.08294900  1
  C  158  1  0.68766000  0.71192300  0.08410800  1
  C  159  1  0.69369400  0.68986600  0.08718200  1
  C  160  1  0.67689100  0.67339500  0.08890200  1
  C  161  1  0.63926500  0.63676800  0.08626400  1
  C  162  1  0.61219300  0.66417400  0.07904800  1
  C  163  1  0.61276500  0.66932000  0.05646500  1
  C  164  1  0.59312100  0.66873700  0.04302200  1
  C  165  1  0.57161400  0.66223500  0.05123800  1
  C  166  1  0.57077200  0.65680600  0.07357400  1
  C  167  1  0.59038400  0.65769400  0.08692400  1
  C  168  1  0.62773200  0.61952500  0.09718200  1
  C  169  1  0.63230200  0.59748900  0.09297600  1
  C  170  1  0.64833400  0.59133200  0.07699000  1
  C  171  1  0.65881700  0.60820400  0.06491900  1
  C  172  1  0.65403800  0.63029800  0.06917600  1
  C  189  1  0.55235200  0.65877900  0.03799400  1
  C  190  1  0.63043900  0.66202300  0.18680000  1
  C  193  1  0.70367900  0.72887300  0.08161900  1
  C  195  1  0.65407100  0.56958800  0.07334700  1
  C  197  1  0.63603900  0.42911200  0.39851600  1
  C  198  1  0.62155500  0.41794100  0.38395300  1
  C  199  1  0.62083400  0.39515100  0.38338300  1
  C  200  1  0.63510700  0.38188000  0.39661900  1
  C  201  1  0.64805700  0.39329000  0.41248800  1
  C  202  1  0.64893800  0.41627900  0.41316400  1
  C  203  1  0.63389700  0.35688900  0.39524900  1
  C  204  1  0.61507500  0.35218500  0.41220900  1
  C  205  1  0.62050500  0.34732000  0.43419900  1
  C  206  1  0.60372500  0.34551800  0.45059400  1
  C  207  1  0.58024200  0.34922500  0.44638400  1
  C  208  1  0.57457800  0.35486300  0.42474800  1
  C  209  1  0.59150200  0.35657200  0.40838100  1
  C  210  1  0.62942500  0.35031000  0.37149700  1
  C  211  1  0.65605100  0.34385300  0.39936900  1
  C  212  1  0.65542300  0.32089500  0.40245700  1
  C  213  1  0.67538800  0.30795900  0.40389800  1
  C  214  1  0.69744300  0.31716000  0.40187100  1
  C  215  1  0.69828700  0.33990100  0.39830800  1
  C  216  1  0.67831300  0.35269200  0.39680900  1
  C  217  1  0.64314900  0.35917100  0.35452800  1
  C  218  1  0.63860700  0.35540100  0.33239800  1
  C  219  1  0.62031500  0.34192600  0.32591600  1
  C  220  1  0.60749800  0.33176100  0.34258500  1
  C  221  1  0.61217500  0.33560100  0.36476800  1
  C  238  1  0.71792600  0.30528700  0.40417100  1
  C  239  1  0.63683000  0.45182500  0.39745400  1
  C  242  1  0.56409600  0.34685500  0.46327000  1
  C  244  1  0.61444500  0.33908200  0.30407700  1
  C  246  1  0.13605200  0.08987000  0.58970600  1
  C  247  1  0.12153100  0.10103500  0.60423800  1
  C  248  1  0.12079300  0.12382500  0.60480000  1
  C  249  1  0.13507400  0.13709800  0.59157700  1
  C  250  1  0.14807200  0.12569500  0.57573900  1
  C  251  1  0.14897500  0.10270500  0.57507800  1
  C  252  1  0.13388200  0.16208900  0.59296300  1
  C  253  1  0.11506300  0.16680500  0.57600700  1
  C  254  1  0.12049600  0.17164200  0.55401000  1
  C  255  1  0.10371700  0.17344400  0.53761400  1
  C  256  1  0.08023000  0.16976900  0.54183200  1
  C  257  1  0.07456000  0.16415800  0.56347400  1
  C  258  1  0.09148400  0.16244600  0.57983900  1
  C  259  1  0.12941100  0.16865800  0.61671900  1
  C  260  1  0.15603900  0.17512300  0.58885100  1
  C  261  1  0.15541100  0.19808000  0.58574400  1
  C  262  1  0.17537600  0.21101600  0.58430900  1
  C  263  1  0.19743100  0.20181600  0.58635000  1
  C  264  1  0.19827300  0.17908100  0.58994600  1
  C  265  1  0.17829800  0.16629500  0.59145500  1
  C  266  1  0.14310700  0.15976200  0.63368900  1
  C  267  1  0.13859300  0.16356100  0.65581900  1
  C  268  1  0.12030600  0.17704200  0.66229900  1
  C  269  1  0.10751000  0.18723400  0.64563200  1
  C  270  1  0.11218600  0.18339300  0.62344900  1
  C  287  1  0.21791400  0.21369100  0.58406700  1
  C  288  1  0.13687200  0.06716000  0.59078600  1
  C  291  1  0.06408400  0.17214300  0.52494500  1
  C  293  1  0.11444100  0.17989400  0.68413800  1
  C  295  1  0.38577800  0.66358500  0.82444800  1
  C  296  1  0.37117900  0.64917400  0.83566800  1
  C  297  1  0.37036500  0.64878900  0.85845900  1
  C  298  1  0.38466300  0.66205300  0.87167900  1
  C  299  1  0.39769200  0.67781600  0.86019900  1
  C  300  1  0.39864600  0.67832500  0.83720500  1
  C  301  1  0.38354500  0.66070400  0.89668100  1
  C  302  1  0.36477300  0.67768600  0.90145000  1
  C  303  1  0.37025900  0.69967000  0.90629800  1
  C  304  1  0.35351200  0.71608300  0.90818000  1
  C  305  1  0.33000900  0.71190400  0.90456300  1
  C  306  1  0.32428600  0.69027900  0.89893100  1
  C  307  1  0.34117600  0.67388800  0.89716000  1
  C  308  1  0.37906700  0.63695500  0.90326600  1
  C  309  1  0.40573900  0.66478800  0.90967200  1
  C  310  1  0.40516500  0.66787100  0.93263300  1
  C  311  1  0.42515900  0.66926800  0.94553300  1
  C  312  1  0.44719100  0.66720700  0.93628700  1
  C  313  1  0.44798100  0.66365000  0.91354400  1
  C  314  1  0.42797700  0.66218100  0.90079400  1
  C  315  1  0.39275300  0.61999400  0.89434300  1
  C  316  1  0.38824900  0.59786600  0.89813500  1
  C  317  1  0.37003700  0.59134700  0.91169700  1
  C  318  1  0.35726900  0.60802000  0.92192700  1
  C  319  1  0.36188300  0.63021000  0.91803900  1
  C  336  1  0.46769900  0.66947300  0.94812200  1
  C  337  1  0.38671000  0.66228000  0.80175800  1
  C  340  1  0.31390200  0.72881100  0.90699100  1
  C  342  1  0.36442700  0.56946400  0.91482400  1
  C  344  1  0.88579700  0.85541200  0.16377900  1
  C  345  1  0.87124400  0.86986600  0.15255800  1
  C  346  1  0.87042600  0.87025300  0.12976700  1
  C  347  1  0.88467900  0.85694700  0.11654400  1
  C  348  1  0.89766600  0.84115300  0.12802400  1
  C  349  1  0.89861900  0.84063900  0.15101900  1
  C  350  1  0.88354700  0.85827600  0.09154100  1
  C  351  1  0.86478500  0.84127500  0.08679200  1
  C  352  1  0.87025400  0.81931500  0.08183900  1
  C  353  1  0.85349800  0.80291000  0.07995200  1
  C  354  1  0.83000300  0.80708500  0.08363700  1
  C  355  1  0.82429900  0.82869500  0.08934500  1
  C  356  1  0.84119700  0.84507700  0.09112800  1
  C  357  1  0.87906000  0.88201900  0.08493700  1
  C  358  1  0.90574200  0.85418900  0.07855300  1
  C  359  1  0.90517000  0.85114000  0.05558600  1
  C  360  1  0.92516600  0.84974000  0.04268900  1
  C  361  1  0.94719800  0.85176500  0.05194100  1
  C  362  1  0.94798600  0.85527900  0.07469100  1
  C  363  1  0.92798000  0.85675600  0.08743800  1
  C  364  1  0.89277500  0.89898300  0.09381500  1
  C  365  1  0.88826800  0.92111000  0.09002000  1
  C  366  1  0.87001600  0.92762400  0.07650300  1
  C  367  1  0.85721600  0.91094500  0.06631700  1
  C  368  1  0.86184200  0.88875500  0.07019900  1
  C  385  1  0.96770600  0.84950400  0.04010500  1
  C  386  1  0.88672100  0.85670700  0.18646900  1
  C  389  1  0.81388800  0.79018600  0.08120000  1
  C  391  1  0.86440100  0.94950700  0.07337900  1
  C  393  1  0.13680500  0.92986500  0.58914500  1
  C  394  1  0.12003100  0.91872800  0.60129500  1
  C  395  1  0.11922000  0.89593700  0.60169400  1
  C  396  1  0.13552500  0.88272900  0.59072600  1
  C  397  1  0.15114400  0.89411000  0.57720200  1
  C  398  1  0.15204400  0.91709900  0.57664500  1
  C  399  1  0.13443800  0.85781100  0.59278100  1
  C  400  1  0.11582400  0.85280700  0.57572100  1
  C  401  1  0.12157000  0.85031000  0.55341600  1
  C  402  1  0.10491800  0.84839100  0.53691300  1
  C  403  1  0.08121600  0.84967800  0.54142900  1
  C  404  1  0.07517200  0.85292500  0.56345600  1
  C  405  1  0.09196300  0.85468100  0.57993500  1
  C  406  1  0.12951600  0.85183500  0.61661600  1
  C  407  1  0.15665100  0.84470200  0.58927200  1
  C  408  1  0.15609000  0.82210600  0.58419600  1
  C  409  1  0.17575900  0.80869800  0.58479800  1
  C  410  1  0.19727300  0.81697800  0.59120800  1
  C  411  1  0.19809700  0.83934500  0.59651500  1
  C  412  1  0.17846100  0.85266400  0.59563200  1
  C  413  1  0.14108900  0.86264400  0.63390500  1
  C  414  1  0.13642600  0.85842400  0.65592600  1
  C  415  1  0.12020300  0.84258100  0.66198600  1
  C  416  1  0.10966900  0.83061300  0.64507800  1
  C  417  1  0.11458900  0.83484000  0.62301200  1
  C  434  1  0.21656400  0.80377300  0.59467500  1
  C  435  1  0.13777300  0.95250000  0.59069200  1
  C  438  1  0.06520100  0.84715700  0.52447600  1
  C  440  1  0.11411000  0.83916900  0.68365900  1
  C  442  1  0.63678900  0.58911500  0.39910100  1
  C  443  1  0.61999700  0.60025400  0.38697500  1
  C  444  1  0.61918000  0.62304600  0.38658800  1
  C  445  1  0.63552000  0.63625200  0.39751100  1
  C  446  1  0.65115300  0.62486900  0.41102100  1
  C  447  1  0.65204600  0.60188000  0.41158300  1
  C  448  1  0.63443800  0.66116700  0.39544800  1
  C  449  1  0.61582600  0.66620200  0.41249600  1
  C  450  1  0.62155600  0.66863000  0.43481500  1
  C  451  1  0.60490500  0.67053600  0.45132100  1
  C  452  1  0.58120400  0.66927800  0.44680000  1
  C  453  1  0.57516500  0.66606500  0.42476600  1
  C  454  1  0.59196200  0.66432400  0.40829100  1
  C  455  1  0.62951800  0.66713200  0.37161000  1
  C  456  1  0.65665400  0.67426200  0.39897300  1
  C  457  1  0.65611400  0.69686500  0.40403300  1
  C  458  1  0.67578100  0.71027400  0.40342400  1
  C  459  1  0.69728600  0.70200100  0.39698400  1
  C  460  1  0.69809200  0.67964400  0.39163500  1
  C  461  1  0.67845600  0.66632700  0.39254600  1
  C  462  1  0.64107400  0.65630700  0.35432300  1
  C  463  1  0.63641000  0.66052400  0.33230000  1
  C  464  1  0.62022300  0.67639800  0.32624000  1
  C  465  1  0.60971400  0.68839000  0.34314500  1
  C  466  1  0.61463000  0.68415800  0.36521200  1
  C  483  1  0.71658100  0.71520300  0.39352400  1
  C  484  1  0.63775700  0.56648300  0.39754800  1
  C  487  1  0.56518900  0.67178800  0.46375200  1
  C  489  1  0.61413300  0.67981400  0.30456600  1
  C  491  1  0.88749400  0.16393900  0.16436800  1
  C  492  1  0.87051600  0.15204400  0.15325200  1
  C  493  1  0.86949700  0.15191300  0.13046300  1
  C  494  1  0.88584300  0.16282800  0.11724900  1
  C  495  1  0.90163100  0.17616300  0.12864600  1
  C  496  1  0.90269100  0.17651600  0.15163400  1
  C  497  1  0.88472300  0.16077000  0.09233100  1
  C  498  1  0.86607900  0.17779100  0.08732800  1
  C  499  1  0.87177000  0.20013000  0.08501700  1
  C  500  1  0.85509100  0.21661000  0.08314400  1
  C  501  1  0.83139800  0.21203400  0.08432400  1
  C  502  1  0.82539400  0.18997200  0.08740200  1
  C  503  1  0.84221900  0.17352000  0.08910600  1
  C  504  1  0.87983300  0.13692000  0.08638700  1
  C  505  1  0.90690300  0.16433900  0.07918900  1
  C  506  1  0.90631600  0.16951100  0.05661100  1
  C  507  1  0.92595500  0.16897600  0.04315800  1
  C  508  1  0.94746600  0.16244200  0.05134600  1
  C  509  1  0.94832100  0.15697800  0.07367300  1
  C  510  1  0.92871700  0.15783600  0.08703500  1
  C  511  1  0.89137000  0.11966100  0.09727400  1
  C  512  1  0.88679200  0.09763000  0.09304000  1
  C  513  1  0.87073200  0.09150000  0.07707200  1
  C  514  1  0.86025400  0.10839000  0.06502100  1
  C  515  1  0.86505500  0.13047600  0.06929200  1
  C  532  1  0.96672100  0.15901400  0.03808500  1
  C  533  1  0.88873200  0.16204700  0.18694800  1
  C  536  1  0.81535500  0.22896200  0.08184800  1
  C  538  1  0.86495600  0.06976700  0.07342700  1
  C  540  1  0.38747500  0.35503200  0.82384900  1
  C  541  1  0.37050300  0.36692800  0.83497300  1
  C  542  1  0.36949200  0.36706000  0.85776200  1
  C  543  1  0.38584500  0.35614500  0.87096900  1
  C  544  1  0.40162600  0.34280800  0.85956600  1
  C  545  1  0.40268100  0.34246400  0.83657800  1
  C  546  1  0.38472800  0.35819700  0.89588800  1
  C  547  1  0.36606700  0.34119100  0.90088800  1
  C  548  1  0.37177300  0.31885100  0.90318900  1
  C  549  1  0.35509800  0.30236600  0.90505700  1
  C  550  1  0.33140200  0.30693900  0.90389200  1
  C  551  1  0.32539000  0.32900100  0.90082700  1
  C  552  1  0.34221100  0.34546000  0.89912600  1
  C  553  1  0.37985200  0.38205200  0.90183400  1
  C  554  1  0.40690600  0.35462300  0.90903000  1
  C  555  1  0.40631600  0.34945600  0.93160800  1
  C  556  1  0.42595000  0.35001800  0.94506700  1
  C  557  1  0.44746700  0.35652200  0.93687300  1
  C  558  1  0.44832600  0.36196900  0.91454200  1
  C  559  1  0.42872600  0.36110100  0.90117600  1
  C  560  1  0.39139200  0.39930700  0.89094300  1
  C  561  1  0.38679900  0.42133900  0.89515900  1
  C  562  1  0.37074500  0.42747300  0.91113200  1
  C  563  1  0.36026600  0.41058700  0.92318500  1
  C  564  1  0.36506500  0.38849900  0.91892000  1
  C  581  1  0.46672100  0.35995800  0.95013500  1
  C  582  1  0.38869600  0.35691800  0.80126700  1
  C  585  1  0.31536300  0.29000600  0.90636600  1
  C  587  1  0.36496900  0.44920800  0.91477200  1
  C  589  1  0.38307400  0.59003000  0.58979800  1
  C  590  1  0.39750800  0.60118300  0.60442000  1
  C  591  1  0.39823000  0.62397200  0.60501600  1
  C  592  1  0.38400600  0.63725900  0.59174900  1
  C  593  1  0.37111600  0.62586800  0.57582300  1
  C  594  1  0.37023100  0.60287900  0.57512000  1
  C  595  1  0.38521000  0.66224900  0.59313500  1
  C  596  1  0.40401800  0.66698100  0.57616900  1
  C  597  1  0.39857800  0.67194400  0.55420300  1
  C  598  1  0.41534200  0.67377000  0.53779800  1
  C  599  1  0.43882300  0.66999600  0.54196800  1
  C  600  1  0.44449800  0.66426700  0.56358000  1
  C  601  1  0.42758700  0.66253400  0.57995600  1
  C  602  1  0.38968600  0.66881500  0.61689100  1
  C  603  1  0.36304000  0.67526800  0.58903500  1
  C  604  1  0.36364100  0.69823600  0.58601500  1
  C  605  1  0.34365900  0.71115000  0.58458200  1
  C  606  1  0.32161400  0.70191200  0.58654900  1
  C  607  1  0.32079800  0.67916000  0.59004200  1
  C  608  1  0.34078700  0.66639200  0.59153300  1
  C  609  1  0.37593000  0.65997300  0.63384700  1
  C  610  1  0.38044100  0.66374500  0.65598300  1
  C  611  1  0.39877800  0.67715500  0.66248400  1
  C  612  1  0.41164400  0.68728800  0.64583000  1
  C  613  1  0.40697800  0.68346900  0.62364000  1
  C  630  1  0.30111700  0.71376200  0.58425600  1
  C  631  1  0.38228500  0.56731300  0.59082000  1
  C  634  1  0.45494900  0.67238100  0.52506600  1
  C  636  1  0.40462900  0.67997800  0.68433100  1
  C  638  1  0.88306200  0.92894600  0.39842000  1
  C  639  1  0.89752800  0.91779700  0.38382500  1
  C  640  1  0.89826900  0.89500800  0.38323700  1
  C  641  1  0.88403800  0.88171800  0.39649200  1
  C  642  1  0.87109500  0.89310400  0.41238400  1
  C  643  1  0.87019700  0.91609300  0.41307900  1
  C  644  1  0.88522300  0.85672800  0.39509200  1
  C  645  1  0.90403100  0.85198600  0.41205600  1
  C  646  1  0.89858700  0.84705100  0.43402800  1
  C  647  1  0.91535100  0.84522400  0.45043400  1
  C  648  1  0.93883300  0.84896800  0.44625700  1
  C  649  1  0.94451500  0.85467000  0.42464100  1
  C  650  1  0.92760400  0.85640600  0.40826300  1
  C  651  1  0.88970200  0.85017200  0.37133400  1
  C  652  1  0.86305200  0.84371100  0.39918500  1
  C  653  1  0.86365100  0.82074500  0.40222500  1
  C  654  1  0.84367100  0.80783000  0.40364900  1
  C  655  1  0.82162600  0.81706700  0.40167300  1
  C  656  1  0.82080900  0.83981400  0.39814900  1
  C  657  1  0.84080200  0.85257900  0.39664500  1
  C  658  1  0.87597000  0.85904400  0.35437700  1
  C  659  1  0.88047000  0.85526100  0.33224000  1
  C  660  1  0.89879000  0.84183000  0.32574100  1
  C  661  1  0.91163600  0.83167200  0.34239500  1
  C  662  1  0.90697000  0.83549300  0.36458300  1
  C  679  1  0.80112900  0.80521500  0.40394700  1
  C  680  1  0.88224600  0.95165900  0.39737900  1
  C  683  1  0.95496100  0.84658000  0.46316000  1
  C  685  1  0.90463600  0.83899700  0.30389400  1
  C  687  1  0.63305200  0.35532300  0.16392300  1
  C  688  1  0.64764400  0.36973000  0.15269100  1
  C  689  1  0.64846200  0.37009100  0.12989900  1
  C  690  1  0.63417500  0.35680500  0.11668900  1
  C  691  1  0.62115300  0.34104800  0.12818400  1
  C  692  1  0.62019000  0.34056700  0.15118000  1
  C  693  1  0.63531400  0.35812000  0.09168600  1
  C  694  1  0.65409800  0.34114200  0.08695100  1
  C  695  1  0.64863300  0.31915300  0.08211000  1
  C  696  1  0.66539700  0.30275100  0.08024400  1
  C  697  1  0.68889300  0.30695400  0.08387500  1
  C  698  1  0.69459400  0.32858300  0.08950600  1
  C  699  1  0.67768800  0.34496100  0.09125900  1
  C  700  1  0.63979400  0.38186200  0.08507100  1
  C  701  1  0.61313400  0.35401400  0.07868000  1
  C  702  1  0.61373200  0.35091400  0.05572000  1
  C  703  1  0.59375300  0.34950300  0.04280200  1
  C  704  1  0.57170900  0.35156100  0.05202300  1
  C  705  1  0.57089500  0.35512800  0.07476400  1
  C  706  1  0.59088600  0.35661500  0.08753400  1
  C  707  1  0.62611100  0.39883700  0.09397100  1
  C  708  1  0.63061700  0.42095900  0.09015200  1
  C  709  1  0.64885600  0.42745700  0.07661300  1
  C  710  1  0.66162700  0.41077000  0.06641000  1
  C  711  1  0.65699500  0.38858500  0.07030800  1
  C  728  1  0.55121600  0.34928700  0.04016500  1
  C  729  1  0.63211300  0.35665800  0.18661000  1
  C  732  1  0.70502200  0.29006300  0.08146000  1
  C  734  1  0.65449400  0.44933300  0.07348000  1
  C  736  1  0.13303200  0.16363000  0.82429100  1
  C  737  1  0.14757200  0.14917500  0.83552400  1
  C  738  1  0.14839300  0.14881300  0.85831500  1
  C  739  1  0.13415900  0.16214800  0.87152800  1
  C  740  1  0.12118300  0.17793900  0.86003200  1
  C  741  1  0.12022700  0.17842900  0.83703600  1
  C  742  1  0.13531000  0.16085400  0.89653300  1
  C  743  1  0.15408600  0.17785100  0.90124600  1
  C  744  1  0.14863900  0.19981700  0.90619900  1
  C  745  1  0.16541200  0.21620700  0.90806700  1
  C  746  1  0.18889800  0.21201300  0.90436500  1
  C  747  1  0.19457900  0.19039800  0.89865300  1
  C  748  1  0.17766600  0.17403000  0.89688700  1
  C  749  1  0.13979800  0.13712000  0.90316900  1
  C  750  1  0.11312900  0.16496600  0.90953700  1
  C  751  1  0.11372500  0.16802900  0.93250000  1
  C  752  1  0.09374500  0.16944600  0.94541800  1
  C  753  1  0.07170200  0.16742400  0.93618800  1
  C  754  1  0.07088800  0.16389500  0.91344000  1
  C  755  1  0.09087900  0.16240900  0.90067200  1
  C  756  1  0.12607400  0.12014500  0.89432700  1
  C  757  1  0.13060100  0.09802300  0.89813000  1
  C  758  1  0.14888000  0.09152900  0.91162300  1
  C  759  1  0.16168200  0.10822000  0.92178500  1
  C  760  1  0.15703800  0.13040300  0.91789300  1
  C  777  1  0.05120700  0.16969600  0.94804600  1
  C  778  1  0.13210100  0.16230700  0.80160400  1
  C  781  1  0.20503600  0.22889400  0.90678800  1
  C  783  1  0.15452600  0.06965400  0.91474600  1
  C  785  1  0.77756100  0.24400800  0.40653800  1
  C  786  1  0.77038400  0.25511400  0.42561000  1
  C  787  1  0.75081300  0.26913500  0.42477900  1
  C  788  1  0.73925700  0.27223400  0.40467500  1
  C  791  1  0.74319600  0.27917900  0.44418900  1
  C  792  1  0.75475700  0.27594500  0.46390800  1
  C  793  1  0.77411400  0.26256400  0.46463900  1
  C  794  1  0.78183100  0.25219700  0.44569300  1
  C  801  1  0.27754600  0.27497200  0.58169900  1
  C  802  1  0.27037900  0.26386000  0.56262600  1
  C  803  1  0.25080800  0.24983800  0.56345300  1
  C  804  1  0.23924200  0.24674700  0.58355400  1
  C  807  1  0.24320300  0.23978600  0.54404200  1
  C  808  1  0.25477400  0.24301400  0.52432800  1
  C  809  1  0.27413000  0.25639600  0.52360200  1
  C  810  1  0.28183600  0.26677100  0.54254800  1
  C  817  1  0.02747300  0.84730800  0.97895600  1
  C  818  1  0.02024700  0.82819500  0.98996500  1
  C  819  1  0.00064200  0.82898900  0.00394500  1
  C  820  1  0.98910200  0.84909300  0.00709500  1
  C  823  1  0.99298100  0.80954800  0.01389600  1
  C  824  1  0.00452900  0.78983000  0.01061000  1
  C  825  1  0.02391900  0.78913300  0.99727000  1
  C  826  1  0.03168100  0.80811300  0.98699400  1
  C  833  1  0.52747100  0.67167900  0.00926700  1
  C  834  1  0.52024500  0.69079100  0.99825600  1
  C  835  1  0.50063800  0.68999500  0.98427800  1
  C  836  1  0.48909700  0.66989100  0.98113000  1
  C  839  1  0.49297900  0.70943600  0.97432300  1
  C  840  1  0.50452900  0.72915400  0.97760500  1
  C  841  1  0.52392000  0.72985100  0.99094400  1
  C  842  1  0.53168100  0.71087200  0.00122200  1
  C  849  1  0.24139000  0.77494200  0.58190300  1
  C  850  1  0.24860300  0.76386800  0.56282400  1
  C  851  1  0.26820200  0.74988200  0.56365600  1
  C  852  1  0.27974300  0.74678500  0.58376800  1
  C  855  1  0.27585400  0.73987000  0.54424200  1
  C  856  1  0.26430200  0.74310100  0.52451800  1
  C  857  1  0.24491700  0.75644800  0.52378600  1
  C  858  1  0.23716600  0.76678400  0.54273600  1
  C  865  1  0.74140500  0.74403400  0.40630100  1
  C  866  1  0.74860700  0.75511400  0.42537800  1
  C  867  1  0.76820500  0.76910000  0.42455100  1
  C  868  1  0.77976000  0.77219000  0.40444500  1
  C  871  1  0.77584500  0.77912200  0.44396500  1
  C  872  1  0.76428200  0.77589900  0.46368600  1
  C  873  1  0.74489800  0.76255200  0.46441200  1
  C  874  1  0.73715700  0.75220800  0.44546100  1
  C  881  1  0.99153000  0.17189600  0.00928900  1
  C  882  1  0.99872100  0.19100400  0.99825100  1
  C  883  1  0.01830100  0.19021100  0.98424000  1
  C  884  1  0.02985100  0.17011200  0.98108600  1
  C  887  1  0.02593000  0.20965100  0.97426100  1
  C  888  1  0.01437300  0.22936400  0.97755300  1
  C  889  1  0.99500800  0.23005700  0.99092300  1
  C  890  1  0.98727900  0.21108100  0.00122600  1
  C  897  1  0.49153300  0.34707400  0.97892500  1
  C  898  1  0.49872500  0.32796800  0.98996500  1
  C  899  1  0.51830800  0.32876200  0.00397600  1
  C  900  1  0.52985800  0.34886100  0.00712600  1
  C  903  1  0.52593600  0.30932400  0.01395800  1
  C  904  1  0.51437400  0.28961300  0.01067600  1
  C  905  1  0.49500800  0.28891700  0.99730400  1
  C  906  1  0.48728000  0.30789300  0.98699500  1
  C  913  1  0.27646700  0.74373000  0.90315800  1
  C  914  1  0.26759700  0.75139600  0.92328100  1
  C  915  1  0.25003100  0.76767700  0.92324900  1
  C  916  1  0.24117000  0.77527000  0.90309900  1
  C  919  1  0.24202700  0.77588200  0.94336100  1
  C  920  1  0.25049900  0.76782800  0.96312400  1
  C  921  1  0.26708200  0.75140000  0.96316200  1
  C  922  1  0.27556200  0.74326000  0.94343700  1
  C  929  1  0.77645700  0.77526400  0.08505600  1
  C  930  1  0.76758000  0.76760400  0.06493100  1
  C  931  1  0.75001400  0.75132100  0.06496500  1
  C  932  1  0.74116100  0.74372000  0.08511500  1
  C  935  1  0.74200500  0.74312100  0.04485300  1
  C  936  1  0.75046600  0.75118100  0.02509000  1
  C  937  1  0.76704800  0.76761100  0.02505200  1
  C  938  1  0.77553500  0.77574800  0.04477500  1
  C  945  1  0.52662700  0.35074100  0.47811600  1
  C  946  1  0.51773100  0.33063500  0.48580400  1
  C  947  1  0.50012100  0.33070800  0.50204600  1
  C  948  1  0.49124800  0.35087400  0.50957800  1
  C  951  1  0.49208700  0.31061500  0.51027200  1
  C  952  1  0.50057000  0.29083400  0.50227900  1
  C  953  1  0.51719800  0.29075500  0.48589400  1
  C  954  1  0.52570700  0.31045900  0.47773100  1
  C  961  1  0.02661400  0.16826200  0.51010100  1
  C  962  1  0.01772100  0.18836600  0.50240800  1
  C  963  1  0.00011100  0.18829300  0.48616800  1
  C  964  1  0.99123300  0.16812700  0.47864200  1
  C  967  1  0.99208100  0.20838600  0.47793600  1
  C  968  1  0.00057000  0.22816800  0.48592100  1
  C  969  1  0.01719900  0.22824600  0.50230700  1
  C  970  1  0.02570300  0.20854300  0.51047600  1
  C  977  1  0.74248600  0.27521200  0.08528400  1
  C  978  1  0.75136600  0.26756100  0.06515900  1
  C  979  1  0.76896700  0.25131200  0.06519300  1
  C  980  1  0.77784300  0.24373800  0.08534300  1
  C  983  1  0.77698600  0.24311900  0.04508100  1
  C  984  1  0.76849500  0.25115600  0.02531800  1
  C  985  1  0.75187600  0.26755100  0.02528000  1
  C  986  1  0.74338200  0.27567800  0.04500300  1
  C  993  1  0.24249600  0.24375000  0.90294200  1
  C  994  1  0.25138500  0.25139400  0.92306700  1
  C  995  1  0.26898200  0.26764500  0.92303300  1
  C  996  1  0.27785200  0.27522500  0.90288100  1
  C  999  1  0.27700800  0.27583300  0.94314300  1
  C  1000  1  0.26852800  0.26779000  0.96290600  1
  C  1001  1  0.25191000  0.25139300  0.96294500  1
  C  1002  1  0.24341000  0.24327100  0.94322300  1
  C  1009  1  0.49238500  0.66847200  0.51014700  1
  C  1010  1  0.50127200  0.68857700  0.50244400  1
  C  1011  1  0.51884500  0.68850200  0.48616800  1
  C  1012  1  0.52770000  0.66833400  0.47861600  1
  C  1015  1  0.52686500  0.70859300  0.47792400  1
  C  1016  1  0.51840300  0.72837600  0.48593600  1
  C  1017  1  0.50181300  0.72845700  0.50235700  1
  C  1018  1  0.49331900  0.70875400  0.51053700  1
  C  1025  1  0.99239700  0.85048400  0.47807500  1
  C  1026  1  0.00128000  0.83037900  0.48578500  1
  C  1027  1  0.01885600  0.83045400  0.50205900  1
  C  1028  1  0.02771500  0.85062200  0.50960400  1
  C  1031  1  0.02686900  0.81036100  0.51030800  1
  C  1032  1  0.01840100  0.79057900  0.50230200  1
  C  1033  1  0.00181100  0.79049900  0.48588100  1
  C  1034  1  0.99332300  0.81020100  0.47769700  1
  C  1041  1  0.89394800  0.17857700  0.26730500  1
  C  1042  1  0.90157800  0.19749900  0.25619000  1
  C  1043  1  0.90276600  0.19712700  0.23293300  1
  C  1044  1  0.89567600  0.17820500  0.22159900  1
  C  1047  1  0.91057200  0.21582100  0.22173600  1
  C  1048  1  0.91682100  0.23467100  0.23312000  1
  C  1049  1  0.91505500  0.23527300  0.25582800  1
  C  1050  1  0.90739600  0.21691700  0.26724600  1
  C  1057  1  0.39392400  0.34039600  0.72090900  1
  C  1058  1  0.40155700  0.32147500  0.73202400  1
  C  1059  1  0.40274700  0.32184800  0.75528100  1
  C  1060  1  0.39565900  0.34077000  0.76661500  1
  C  1063  1  0.41055800  0.30315600  0.76647700  1
  C  1064  1  0.41680700  0.28430400  0.75509400  1
  C  1065  1  0.41503700  0.28370100  0.73238600  1
  C  1066  1  0.40737300  0.30205800  0.72096800  1
  C  1073  1  0.14284300  0.98675800  0.91304400  1
  C  1074  1  0.14819500  0.99790700  0.93264300  1
  C  1075  1  0.14827600  0.02120700  0.93265600  1
  C  1076  1  0.14298900  0.03242500  0.91308600  1
  C  1079  1  0.15270300  0.03233300  0.95237000  1
  C  1080  1  0.15741900  0.02090900  0.97158800  1
  C  1081  1  0.15728700  0.99814400  0.97159200  1
  C  1082  1  0.15247500  0.98675500  0.95237200  1
  C  1089  1  0.64282300  0.53222700  0.07519500  1
  C  1090  1  0.64816500  0.52107800  0.05559400  1
  C  1091  1  0.64824200  0.49777900  0.05557900  1
  C  1092  1  0.64295900  0.48656100  0.07515100  1
  C  1095  1  0.65266000  0.48665300  0.03586400  1
  C  1096  1  0.65737200  0.49807600  0.01664600  1
  C  1097  1  0.65724800  0.52084100  0.01664300  1
  C  1098  1  0.65244300  0.53222900  0.03586500  1
  C  1105  1  0.62589100  0.33980500  0.26683200  1
  C  1106  1  0.61781200  0.32114200  0.25557400  1
  C  1107  1  0.61688300  0.32161800  0.23230900  1
  C  1108  1  0.62463100  0.34038300  0.22110900  1
  C  1111  1  0.60864400  0.30317000  0.22098500  1
  C  1112  1  0.60171500  0.28446600  0.23225700  1
  C  1113  1  0.60319100  0.28376500  0.25498300  1
  C  1114  1  0.61126300  0.30187900  0.26653000  1
  C  1121  1  0.12588700  0.17916700  0.72138300  1
  C  1122  1  0.11781600  0.19783300  0.73264100  1
  C  1123  1  0.11688700  0.19735700  0.75590600  1
  C  1124  1  0.12462800  0.17858800  0.76710700  1
  C  1127  1  0.10865600  0.21580600  0.76723000  1
  C  1128  1  0.10173500  0.23451500  0.75596000  1
  C  1129  1  0.10321000  0.23521500  0.73323200  1
  C  1130  1  0.11127500  0.21709700  0.72168700  1
  C  1137  1  0.37602900  0.53224600  0.91310400  1
  C  1138  1  0.37072300  0.52100000  0.93265300  1
  C  1139  1  0.37081700  0.49770100  0.93260100  1
  C  1140  1  0.37614900  0.48658000  0.91297900  1
  C  1143  1  0.36652700  0.48651500  0.95230900  1
  C  1144  1  0.36171000  0.49786800  0.97154700  1
  C  1145  1  0.36159100  0.52063300  0.97158600  1
  C  1146  1  0.36630300  0.53209100  0.95238800  1
  C  1153  1  0.87600200  0.98672600  0.07509600  1
  C  1154  1  0.87070100  0.99797200  0.05554700  1
  C  1155  1  0.87079800  0.02127200  0.05559900  1
  C  1156  1  0.87613000  0.03239200  0.07522100  1
  C  1159  1  0.86651600  0.03245900  0.03589000  1
  C  1160  1  0.86169300  0.02110600  0.01665200  1
  C  1161  1  0.86157000  0.99834100  0.01661500  1
  C  1162  1  0.86628100  0.98688200  0.03581300  1
  C  1169  1  0.12498600  0.84035200  0.72109600  1
  C  1170  1  0.11734500  0.82145500  0.73224800  1
  C  1171  1  0.11619600  0.82186100  0.75550500  1
  C  1172  1  0.12333400  0.84078700  0.76680300  1
  C  1175  1  0.10838100  0.80319300  0.76674000  1
  C  1176  1  0.10208600  0.78433400  0.75539100  1
  C  1177  1  0.10381400  0.78369900  0.73268200  1
  C  1178  1  0.11148100  0.80203100  0.72122600  1
  C  1185  1  0.62501000  0.67862900  0.26712900  1
  C  1186  1  0.61737000  0.69752600  0.25597700  1
  C  1187  1  0.61621700  0.69711800  0.23271800  1
  C  1188  1  0.62335200  0.67819200  0.22142200  1
  C  1191  1  0.60840100  0.71578600  0.22148500  1
  C  1192  1  0.60211000  0.73464600  0.23283200  1
  C  1193  1  0.60384100  0.73528300  0.25554400  1
  C  1194  1  0.61150900  0.71695100  0.26699800  1
  C  1201  1  0.39313900  0.67921300  0.72156700  1
  C  1202  1  0.40121800  0.69785400  0.73286200  1
  C  1203  1  0.40210700  0.69734400  0.75612900  1
  C  1204  1  0.39432000  0.67856800  0.76729000  1
  C  1207  1  0.41034500  0.71576800  0.76749000  1
  C  1208  1  0.41730900  0.73448200  0.75625600  1
  C  1209  1  0.41587300  0.73521600  0.73352800  1
  C  1210  1  0.40780300  0.71712500  0.72194600  1
  C  1217  1  0.89314400  0.83976900  0.26665800  1
  C  1218  1  0.90121200  0.82112500  0.25536300  1
  C  1219  1  0.90210200  0.82163300  0.23209600  1
  C  1220  1  0.89432500  0.84041200  0.22093500  1
  C  1223  1  0.91033000  0.80320700  0.22073500  1
  C  1224  1  0.91728500  0.78448900  0.23196800  1
  C  1225  1  0.91584800  0.78375500  0.25469600  1
  C  1226  1  0.90778700  0.80184900  0.26628000  1
  C  1233  1  0.64598500  0.48616400  0.41320000  1
  C  1234  1  0.65558300  0.49735800  0.43117900  1
  C  1235  1  0.65572800  0.52063800  0.43120500  1
  C  1236  1  0.64629700  0.53198000  0.41323900  1
  C  1239  1  0.66522600  0.53176400  0.44921200  1
  C  1240  1  0.67443500  0.52025200  0.46685800  1
  C  1241  1  0.67429700  0.49745900  0.46683100  1
  C  1242  1  0.66494600  0.48608800  0.44915800  1
  C  1249  1  0.14599100  0.03281700  0.57502900  1
  C  1250  1  0.15557900  0.02162200  0.55704500  1
  C  1251  1  0.15572700  0.99834100  0.55702200  1
  C  1252  1  0.14630800  0.98700000  0.57499500  1
  C  1255  1  0.16521600  0.98721300  0.53901200  1
  C  1256  1  0.17441300  0.99872400  0.52135900  1
  C  1257  1  0.17427200  0.02151800  0.52138300  1
  C  1258  1  0.16493100  0.03289000  0.53905900  1
  C  1265  1  0.87263200  0.03178200  0.41326100  1
  C  1266  1  0.86322100  0.02040200  0.43121300  1
  C  1267  1  0.86340200  0.99712100  0.43115300  1
  C  1268  1  0.87300700  0.98596700  0.41315200  1
  C  1271  1  0.85406300  0.98581100  0.44912100  1
  C  1272  1  0.84470300  0.99714300  0.46681300  1
  C  1273  1  0.84453100  0.01993600  0.46687300  1
  C  1274  1  0.85371500  0.03148800  0.44924100  1
  C  1281  1  0.37264000  0.48719200  0.57494600  1
  C  1282  1  0.36321900  0.49857500  0.55700100  1
  C  1283  1  0.36339700  0.52185500  0.55706400  1
  C  1284  1  0.37301400  0.53300700  0.57506000  1
  C  1287  1  0.35404600  0.53316600  0.53910400  1
  C  1288  1  0.34467400  0.52183500  0.52141500  1
  C  1289  1  0.34450400  0.49904400  0.52135200  1
  C  1290  1  0.35370100  0.48749000  0.53897700  1
  N  789  1  0.74723400  0.26066000  0.38743400  1
  N  790  1  0.76498900  0.24762100  0.38826100  1
  N  799  1  0.79566200  0.23034500  0.40675400  1
  N  800  1  0.72032700  0.28450200  0.40187200  1
  N  805  1  0.24720900  0.25832600  0.60079300  1
  N  806  1  0.26496300  0.27136500  0.59997100  1
  N  815  1  0.29564500  0.28863600  0.58148600  1
  N  816  1  0.22031000  0.23447900  0.58634600  1
  N  821  1  0.99712500  0.86637400  0.99561200  1
  N  822  1  0.01491000  0.86558300  0.98261100  1
  N  831  1  0.04559400  0.84712300  0.96532200  1
  N  832  1  0.97014600  0.85185900  0.01933200  1
  N  837  1  0.49712000  0.65261300  0.99261600  1
  N  838  1  0.51490700  0.65340400  0.00561500  1
  N  847  1  0.54559400  0.67186300  0.02289800  1
  N  848  1  0.47013900  0.66712400  0.96889600  1
  N  853  1  0.27173200  0.75832700  0.60101300  1
  N  854  1  0.25395400  0.77133700  0.60018700  1
  N  863  1  0.22326700  0.78857400  0.58168400  1
  N  864  1  0.29868900  0.73454000  0.58657200  1
  N  869  1  0.77176000  0.76064200  0.38719900  1
  N  870  1  0.75398100  0.74763200  0.38802200  1
  N  879  1  0.72328000  0.73040300  0.40651500  1
  N  880  1  0.79871000  0.78443200  0.40165100  1
  N  885  1  0.02186200  0.15283700  0.99259800  1
  N  886  1  0.00409900  0.15362700  0.00562800  1
  N  895  1  0.97342900  0.17207800  0.02295000  1
  N  896  1  0.04879000  0.16734600  0.96882300  1
  N  901  1  0.52186900  0.36613400  0.99561200  1
  N  902  1  0.50410600  0.36534300  0.98258300  1
  N  911  1  0.47342900  0.34689400  0.96526800  1
  N  912  1  0.54879900  0.35162800  0.01938700  1
  N  917  1  0.25069500  0.76682300  0.88480800  1
  N  918  1  0.26696200  0.75213600  0.88483700  1
  N  927  1  0.29278000  0.72838000  0.90080400  1
  N  928  1  0.22490400  0.79065500  0.90073700  1
  N  933  1  0.75069300  0.75216100  0.10340600  1
  N  934  1  0.76696000  0.76684900  0.10337600  1
  N  943  1  0.79277500  0.79060800  0.08741200  1
  N  944  1  0.72489900  0.72833300  0.08747700  1
  N  949  1  0.50080400  0.36914600  0.50111600  1
  N  950  1  0.51710700  0.36908100  0.48646500  1
  N  959  1  0.54297800  0.35305200  0.46279200  1
  N  960  1  0.47495900  0.35326200  0.52493700  1
  N  965  1  0.00078500  0.14985600  0.48710700  1
  N  966  1  0.01709000  0.14992100  0.50175600  1
  N  975  1  0.04296500  0.16595000  0.52542500  1
  N  976  1  0.97494200  0.16573600  0.46328300  1
  N  981  1  0.76830400  0.25216900  0.10363500  1
  N  982  1  0.75200800  0.26682700  0.10360600  1
  N  991  1  0.72614500  0.29053500  0.08763300  1
  N  992  1  0.79413400  0.22838100  0.08770100  1
  N  997  1  0.26830600  0.26680100  0.88459000  1
  N  998  1  0.25200900  0.25214300  0.88462100  1
  N  1007  1  0.22615200  0.22843000  0.90059100  1
  N  1008  1  0.29413900  0.29058700  0.90052300  1
  N  1013  1  0.51815700  0.65006600  0.48709600  1
  N  1014  1  0.50188300  0.65013300  0.50177600  1
  N  1023  1  0.47605800  0.66615400  0.52549600  1
  N  1024  1  0.54396400  0.66593700  0.46323100  1
  N  1029  1  0.01817600  0.86889000  0.50112100  1
  N  1030  1  0.00190200  0.86882400  0.48644100  1
  N  1039  1  0.97607200  0.85280000  0.46272700  1
  N  1040  1  0.04398100  0.85302300  0.52498800  1
  N  1045  1  0.88808300  0.16124300  0.23379900  1
  N  1046  1  0.88730500  0.16141600  0.25501700  1
  N  1055  1  0.89111900  0.17616600  0.28871000  1
  N  1056  1  0.89490600  0.17748400  0.19979900  1
  N  1061  1  0.38806300  0.35773100  0.75441500  1
  N  1062  1  0.38728200  0.35755800  0.73319600  1
  N  1071  1  0.39109700  0.34281000  0.69950400  1
  N  1072  1  0.39489000  0.34148900  0.78841500  1
  N  1077  1  0.13719200  0.02025000  0.89556500  1
  N  1078  1  0.13714500  0.99900800  0.89554500  1
  N  1087  1  0.14055200  0.96531600  0.91045800  1
  N  1088  1  0.14066200  0.05388300  0.91071000  1
  N  1093  1  0.63717100  0.49873600  0.09267400  1
  N  1094  1  0.63712700  0.51997500  0.09269500  1
  N  1103  1  0.64053500  0.55367000  0.07778200  1
  N  1104  1  0.64063400  0.46510200  0.07753100  1
  N  1109  1  0.63257900  0.35709500  0.23345600  1
  N  1110  1  0.63316100  0.35682900  0.25468100  1
  N  1119  1  0.62859400  0.34194700  0.28828100  1
  N  1120  1  0.62547300  0.34125400  0.19930200  1
  N  1125  1  0.13256800  0.16187300  0.75475900  1
  N  1126  1  0.13315000  0.16213900  0.73353400  1
  N  1135  1  0.12858800  0.17702100  0.69993400  1
  N  1136  1  0.12547000  0.17771800  0.78891300  1
  N  1141  1  0.38186000  0.49886400  0.89550700  1
  N  1142  1  0.38181200  0.52010400  0.89555800  1
  N  1151  1  0.37830000  0.55371200  0.91074200  1
  N  1152  1  0.37849500  0.46514700  0.91037700  1
  N  1157  1  0.88183600  0.02010800  0.09269500  1
  N  1158  1  0.88178700  0.99886700  0.09264200  1
  N  1167  1  0.87827500  0.96525900  0.07745700  1
  N  1168  1  0.87847600  0.05382500  0.07782500  1
  N  1173  1  0.13093200  0.85772200  0.75456900  1
  N  1174  1  0.13167500  0.85752100  0.73334900  1
  N  1183  1  0.12778700  0.84273000  0.69968600  1
  N  1184  1  0.12413500  0.84153800  0.78860000  1
  N  1189  1  0.63095000  0.66125500  0.23365400  1
  N  1190  1  0.63169400  0.66145800  0.25487400  1
  N  1199  1  0.62780800  0.67624700  0.28853900  1
  N  1200  1  0.62414600  0.67743900  0.19962400  1
  N  1205  1  0.38637800  0.66188000  0.75491000  1
  N  1206  1  0.38583100  0.66217800  0.73368400  1
  N  1215  1  0.39046300  0.67710200  0.70011300  1
  N  1216  1  0.39345300  0.67766800  0.78909400  1
  N  1221  1  0.88639100  0.85710500  0.23331600  1
  N  1222  1  0.88584500  0.85680900  0.25454100  1
  N  1231  1  0.89047200  0.84188500  0.28811200  1
  N  1232  1  0.89345600  0.84131400  0.19913000  1
  N  1237  1  0.63750900  0.51975400  0.39683500  1
  N  1238  1  0.63737600  0.49853800  0.39681500  1
  N  1247  1  0.64482400  0.46436700  0.41240200  1
  N  1248  1  0.64527600  0.55377700  0.41257300  1
  N  1253  1  0.13752900  0.99922800  0.59140200  1
  N  1254  1  0.13739400  0.02044600  0.59141800  1
  N  1263  1  0.14482100  0.05461300  0.57582000  1
  N  1264  1  0.14528800  0.96520400  0.57566400  1
  N  1269  1  0.88159000  0.99837500  0.39678500  1
  N  1270  1  0.88142600  0.01959300  0.39683500  1
  N  1279  1  0.87361700  0.05358200  0.41262500  1
  N  1280  1  0.87420600  0.96417500  0.41232900  1
  N  1285  1  0.38160700  0.52059800  0.59142100  1
  N  1286  1  0.38144500  0.49938100  0.59136700  1
  N  1295  1  0.37362700  0.46539400  0.57557900  1
  N  1296  1  0.37420600  0.55480000  0.57589000  1
