# generated using pymatgen
data_H9C20N4O3
_symmetry_space_group_name_H-M   'P 1'
_cell_length_a   46.33150000
_cell_length_b   46.33150000
_cell_length_c   46.33150000
_cell_angle_alpha   90.00000000
_cell_angle_beta   90.00000000
_cell_angle_gamma   90.00000000
_symmetry_Int_Tables_number   1
_chemical_formula_structural   H9C20N4O3
_chemical_formula_sum   'H432 C960 N192 O144'
_cell_volume   99455.56355978
_cell_formula_units_Z   48
loop_
 _symmetry_equiv_pos_site_id
 _symmetry_equiv_pos_as_xyz
  1  'x, y, z'
loop_
 _atom_site_type_symbol
 _atom_site_label
 _atom_site_symmetry_multiplicity
 _atom_site_fract_x
 _atom_site_fract_y
 _atom_site_fract_z
 _atom_site_occupancy
  H  7  1  0.04128300  0.02653200  0.99656800  1
  H  8  1  0.99949300  0.06573400  0.92654200  1
  H  15  1  0.99972600  0.93830700  0.07785200  1
  H  16  1  0.95968000  0.00353200  0.02978300  1
  H  19  1  0.93545200  0.00765900  0.98157200  1
  H  20  1  0.06274200  0.97830000  0.00681200  1
  H  25  1  0.95656700  0.97361600  0.09476400  1
  H  26  1  0.94361300  0.02498800  0.91726100  1
  H  27  1  0.06257800  0.06883900  0.97052100  1
  H  28  1  0.05777600  0.92519300  0.03105000  1
  H  35  1  0.46222800  0.97681900  0.49669700  1
  H  36  1  0.50390500  0.93767500  0.42657600  1
  H  43  1  0.50385800  0.06554000  0.57751600  1
  H  44  1  0.54391900  0.00022200  0.52957700  1
  H  47  1  0.56796300  0.99601100  0.48131200  1
  H  48  1  0.44063300  0.02498400  0.50696200  1
  H  53  1  0.54763800  0.02986400  0.59420900  1
  H  54  1  0.56003400  0.97873100  0.41749300  1
  H  55  1  0.44094800  0.93444600  0.47070100  1
  H  56  1  0.44562100  0.07828300  0.53095600  1
  H  63  1  0.22716500  0.78791100  0.24706500  1
  H  64  1  0.18572100  0.74601500  0.17844800  1
  H  71  1  0.31719900  0.74448500  0.32642600  1
  H  72  1  0.25067200  0.70539700  0.27947300  1
  H  75  1  0.24495900  0.68157900  0.23171700  1
  H  76  1  0.27510200  0.80907400  0.25817400  1
  H  81  1  0.28147600  0.70094400  0.34304500  1
  H  82  1  0.22649800  0.68885100  0.16967900  1
  H  83  1  0.18266000  0.80861000  0.22126600  1
  H  84  1  0.32958600  0.80328500  0.28161000  1
  H  91  1  0.27656800  0.21555700  0.74707000  1
  H  92  1  0.31809900  0.25750500  0.67854500  1
  H  99  1  0.18615000  0.25883700  0.82612200  1
  H  100  1  0.25268500  0.29808700  0.77931400  1
  H  103  1  0.25857100  0.32185700  0.73158900  1
  H  104  1  0.22872600  0.19423300  0.75817100  1
  H  109  1  0.22214300  0.30301600  0.84258200  1
  H  110  1  0.27715900  0.31482700  0.66990100  1
  H  111  1  0.32121800  0.19496900  0.72134300  1
  H  112  1  0.17417400  0.19986800  0.78143600  1
  H  119  1  0.77411000  0.20978300  0.75487700  1
  H  120  1  0.81547100  0.25050600  0.82426200  1
  H  127  1  0.68414800  0.25306500  0.67622000  1
  H  128  1  0.75091900  0.29223300  0.72283600  1
  H  131  1  0.75708300  0.31590200  0.77106700  1
  H  132  1  0.72585800  0.18894900  0.74511700  1
  H  137  1  0.72020300  0.29590900  0.65898600  1
  H  138  1  0.77503200  0.30716700  0.83429600  1
  H  139  1  0.81721100  0.18758700  0.78076900  1
  H  140  1  0.67210200  0.19396200  0.72150700  1
  H  147  1  0.72924900  0.79388300  0.25478600  1
  H  148  1  0.68784300  0.75307900  0.32408800  1
  H  155  1  0.81958900  0.75075300  0.17640200  1
  H  156  1  0.75282200  0.71142700  0.22289200  1
  H  159  1  0.74653300  0.68780000  0.27108600  1
  H  160  1  0.77739100  0.81489500  0.24500600  1
  H  165  1  0.78326800  0.70727700  0.15932700  1
  H  166  1  0.72852800  0.69617000  0.33386600  1
  H  167  1  0.68606400  0.81598700  0.28062100  1
  H  168  1  0.83111500  0.81011600  0.22157700  1
  H  175  1  0.54440900  0.52634200  0.49770200  1
  H  176  1  0.50364900  0.56951300  0.42941800  1
  H  183  1  0.49888300  0.43583500  0.57528700  1
  H  184  1  0.46150000  0.50381300  0.52901800  1
  H  187  1  0.43805000  0.50984100  0.48085900  1
  H  188  1  0.56465500  0.47787100  0.50806700  1
  H  193  1  0.45575500  0.47504400  0.59177200  1
  H  194  1  0.44667200  0.52799300  0.41941900  1
  H  195  1  0.56668300  0.57014300  0.47248600  1
  H  196  1  0.55881400  0.42381100  0.53083500  1
  H  203  1  0.95910500  0.47709900  0.99779400  1
  H  204  1  0.99979000  0.43395500  0.92944100  1
  H  211  1  0.00475800  0.56794000  0.07501200  1
  H  212  1  0.04206400  0.49979600  0.02891500  1
  H  215  1  0.06541200  0.49375900  0.98071100  1
  H  216  1  0.93882300  0.52557500  0.00813900  1
  H  221  1  0.04837500  0.52833400  0.09134000  1
  H  222  1  0.05676400  0.47559000  0.91940000  1
  H  223  1  0.93682300  0.43326900  0.97259300  1
  H  224  1  0.94474600  0.57979600  0.03072600  1
  H  231  1  0.82494000  0.81306200  0.12519900  1
  H  236  1  0.86059100  0.84931000  0.20043300  1
  H  241  1  0.90122500  0.91030700  0.04854300  1
  H  242  1  0.93314500  0.94208200  0.12741100  1
  H  253  1  0.67930200  0.19040200  0.62522200  1
  H  258  1  0.64256900  0.15484200  0.70026400  1
  H  263  1  0.60327400  0.09320200  0.54828800  1
  H  264  1  0.57015200  0.06216700  0.62695300  1
  H  275  1  0.43491800  0.56168700  0.37549800  1
  H  280  1  0.40590700  0.60651800  0.44884100  1
  H  285  1  0.34121700  0.64136700  0.29725600  1
  H  286  1  0.31597700  0.68089300  0.37503900  1
  H  297  1  0.06880500  0.44230600  0.87546700  1
  H  302  1  0.09722400  0.39671900  0.94859200  1
  H  307  1  0.16249800  0.36282400  0.79704900  1
  H  308  1  0.18706600  0.32243500  0.87460400  1
  H  319  1  0.68306600  0.81208500  0.37703300  1
  H  324  1  0.65445100  0.85437300  0.30197200  1
  H  329  1  0.59895700  0.90217400  0.45368300  1
  H  330  1  0.57520500  0.94141300  0.37542100  1
  H  341  1  0.82032500  0.19153300  0.87716800  1
  H  346  1  0.84900800  0.14928700  0.80211300  1
  H  351  1  0.90436700  0.10142200  0.95387800  1
  H  352  1  0.92823700  0.06222300  0.87563300  1
  H  363  1  0.06360100  0.56354500  0.12492400  1
  H  368  1  0.11199400  0.58842700  0.05224300  1
  H  373  1  0.14689800  0.65304600  0.20377100  1
  H  374  1  0.19213800  0.67234400  0.12752200  1
  H  385  1  0.44007000  0.44015000  0.62521600  1
  H  390  1  0.39188700  0.41526200  0.55239700  1
  H  395  1  0.35677000  0.35044600  0.70380600  1
  H  396  1  0.31168400  0.33115500  0.62746700  1
  H  407  1  0.18387500  0.19260600  0.87737500  1
  H  412  1  0.14078400  0.16478200  0.80241100  1
  H  417  1  0.09746300  0.10316300  0.95304500  1
  H  418  1  0.05883300  0.08016000  0.87412200  1
  H  429  1  0.31963100  0.81071400  0.37751200  1
  H  434  1  0.36279200  0.83850100  0.30257400  1
  H  439  1  0.40593300  0.90025800  0.45319500  1
  H  440  1  0.44460900  0.92322100  0.37428100  1
  H  451  1  0.56103900  0.42940800  0.62726200  1
  H  456  1  0.59719600  0.39330300  0.55222700  1
  H  461  1  0.65662400  0.35172800  0.70456200  1
  H  462  1  0.68858300  0.31931800  0.62599500  1
  H  473  1  0.94223400  0.57359000  0.12710600  1
  H  478  1  0.90658600  0.61052200  0.05222700  1
  H  483  1  0.84678900  0.65117000  0.20465200  1
  H  484  1  0.81542400  0.68451900  0.12623900  1
  H  495  1  0.31807700  0.19322400  0.62501700  1
  H  500  1  0.35871700  0.16263800  0.70024700  1
  H  505  1  0.40625700  0.10603800  0.54890700  1
  H  506  1  0.44251100  0.08010500  0.62805900  1
  H  517  1  0.18543900  0.81019200  0.12494300  1
  H  522  1  0.14497700  0.84083400  0.20023900  1
  H  527  1  0.09712600  0.89735700  0.04894800  1
  H  528  1  0.06103500  0.92335900  0.12814800  1
  H  539  1  0.94043600  0.43089300  0.87615100  1
  H  544  1  0.89882700  0.40078600  0.95099200  1
  H  549  1  0.85127800  0.34654400  0.79869000  1
  H  550  1  0.81260900  0.32118700  0.87670800  1
  H  561  1  0.56294500  0.57275900  0.37605700  1
  H  566  1  0.60468600  0.60262400  0.45092200  1
  H  571  1  0.65206800  0.65722200  0.29869100  1
  H  572  1  0.69086500  0.68235600  0.37671300  1
  H  583  1  0.04128300  0.02653200  0.23398700  1
  H  584  1  0.99949300  0.06573400  0.16396100  1
  H  591  1  0.99972600  0.93830700  0.31527100  1
  H  592  1  0.95968000  0.00353200  0.26720200  1
  H  595  1  0.93545200  0.00765900  0.21899100  1
  H  596  1  0.06274200  0.97830000  0.24423100  1
  H  601  1  0.95656700  0.97361600  0.33218300  1
  H  602  1  0.94361300  0.02498800  0.15468000  1
  H  603  1  0.06257800  0.06883900  0.20794000  1
  H  604  1  0.05777600  0.92519300  0.26846900  1
  H  611  1  0.46222800  0.97681900  0.73411600  1
  H  612  1  0.50390500  0.93767500  0.66399500  1
  H  619  1  0.50385800  0.06554000  0.81493500  1
  H  620  1  0.54391900  0.00022200  0.76699600  1
  H  623  1  0.56796300  0.99601100  0.71873100  1
  H  624  1  0.44063300  0.02498400  0.74438100  1
  H  629  1  0.54763800  0.02986400  0.83162800  1
  H  630  1  0.56003400  0.97873100  0.65491200  1
  H  631  1  0.44094800  0.93444600  0.70812000  1
  H  632  1  0.44562100  0.07828300  0.76837500  1
  H  639  1  0.22716500  0.78791100  0.48448400  1
  H  640  1  0.18572100  0.74601500  0.41586700  1
  H  647  1  0.31719900  0.74448500  0.56384500  1
  H  648  1  0.25067200  0.70539700  0.51689200  1
  H  651  1  0.24495900  0.68157900  0.46913600  1
  H  652  1  0.27510200  0.80907400  0.49559300  1
  H  657  1  0.28147600  0.70094400  0.58046400  1
  H  658  1  0.22649800  0.68885100  0.40709800  1
  H  659  1  0.18266000  0.80861000  0.45868500  1
  H  660  1  0.32958600  0.80328500  0.51902900  1
  H  667  1  0.27656800  0.21555700  0.98448900  1
  H  668  1  0.31809900  0.25750500  0.91596400  1
  H  675  1  0.18615000  0.25883700  0.06354150  1
  H  676  1  0.25268500  0.29808700  0.01673350  1
  H  679  1  0.25857100  0.32185700  0.96900800  1
  H  680  1  0.22872600  0.19423300  0.99559000  1
  H  685  1  0.22214300  0.30301600  0.08000150  1
  H  686  1  0.27715900  0.31482700  0.90732000  1
  H  687  1  0.32121800  0.19496900  0.95876200  1
  H  688  1  0.17417400  0.19986800  0.01885550  1
  H  695  1  0.77411000  0.20978300  0.99229600  1
  H  696  1  0.81547100  0.25050600  0.06168150  1
  H  703  1  0.68414800  0.25306500  0.91363900  1
  H  704  1  0.75091900  0.29223300  0.96025500  1
  H  707  1  0.75708300  0.31590200  0.00848647  1
  H  708  1  0.72585800  0.18894900  0.98253600  1
  H  713  1  0.72020300  0.29590900  0.89640500  1
  H  714  1  0.77503200  0.30716700  0.07171550  1
  H  715  1  0.81721100  0.18758700  0.01818850  1
  H  716  1  0.67210200  0.19396200  0.95892600  1
  H  723  1  0.72924900  0.79388300  0.49220500  1
  H  724  1  0.68784300  0.75307900  0.56150700  1
  H  731  1  0.81958900  0.75075300  0.41382100  1
  H  732  1  0.75282200  0.71142700  0.46031100  1
  H  735  1  0.74653300  0.68780000  0.50850500  1
  H  736  1  0.77739100  0.81489500  0.48242500  1
  H  741  1  0.78326800  0.70727700  0.39674600  1
  H  742  1  0.72852800  0.69617000  0.57128500  1
  H  743  1  0.68606400  0.81598700  0.51804000  1
  H  744  1  0.83111500  0.81011600  0.45899600  1
  H  751  1  0.54440900  0.52634200  0.73512100  1
  H  752  1  0.50364900  0.56951300  0.66683700  1
  H  759  1  0.49888300  0.43583500  0.81270600  1
  H  760  1  0.46150000  0.50381300  0.76643700  1
  H  763  1  0.43805000  0.50984100  0.71827800  1
  H  764  1  0.56465500  0.47787100  0.74548600  1
  H  769  1  0.45575500  0.47504400  0.82919100  1
  H  770  1  0.44667200  0.52799300  0.65683800  1
  H  771  1  0.56668300  0.57014300  0.70990500  1
  H  772  1  0.55881400  0.42381100  0.76825400  1
  H  779  1  0.95910500  0.47709900  0.23521300  1
  H  780  1  0.99979000  0.43395500  0.16686000  1
  H  787  1  0.00475800  0.56794000  0.31243100  1
  H  788  1  0.04206400  0.49979600  0.26633400  1
  H  791  1  0.06541200  0.49375900  0.21813000  1
  H  792  1  0.93882300  0.52557500  0.24555800  1
  H  797  1  0.04837500  0.52833400  0.32875900  1
  H  798  1  0.05676400  0.47559000  0.15681900  1
  H  799  1  0.93682300  0.43326900  0.21001200  1
  H  800  1  0.94474600  0.57979600  0.26814500  1
  H  807  1  0.82494000  0.81306200  0.36261800  1
  H  812  1  0.86059100  0.84931000  0.43785200  1
  H  817  1  0.90122500  0.91030700  0.28596200  1
  H  818  1  0.93314500  0.94208200  0.36483000  1
  H  829  1  0.67930200  0.19040200  0.86264100  1
  H  834  1  0.64256900  0.15484200  0.93768300  1
  H  839  1  0.60327400  0.09320200  0.78570700  1
  H  840  1  0.57015200  0.06216700  0.86437200  1
  H  851  1  0.43491800  0.56168700  0.61291700  1
  H  856  1  0.40590700  0.60651800  0.68626000  1
  H  861  1  0.34121700  0.64136700  0.53467500  1
  H  862  1  0.31597700  0.68089300  0.61245800  1
  H  873  1  0.06880500  0.44230600  0.11288600  1
  H  878  1  0.09722400  0.39671900  0.18601100  1
  H  883  1  0.16249800  0.36282400  0.03446850  1
  H  884  1  0.18706600  0.32243500  0.11202300  1
  H  895  1  0.68306600  0.81208500  0.61445200  1
  H  900  1  0.65445100  0.85437300  0.53939100  1
  H  905  1  0.59895700  0.90217400  0.69110200  1
  H  906  1  0.57520500  0.94141300  0.61284000  1
  H  917  1  0.82032500  0.19153300  0.11458700  1
  H  922  1  0.84900800  0.14928700  0.03953250  1
  H  927  1  0.90436700  0.10142200  0.19129700  1
  H  928  1  0.92823700  0.06222300  0.11305200  1
  H  939  1  0.06360100  0.56354500  0.36234300  1
  H  944  1  0.11199400  0.58842700  0.28966200  1
  H  949  1  0.14689800  0.65304600  0.44119000  1
  H  950  1  0.19213800  0.67234400  0.36494100  1
  H  961  1  0.44007000  0.44015000  0.86263500  1
  H  966  1  0.39188700  0.41526200  0.78981600  1
  H  971  1  0.35677000  0.35044600  0.94122500  1
  H  972  1  0.31168400  0.33115500  0.86488600  1
  H  983  1  0.18387500  0.19260600  0.11479400  1
  H  988  1  0.14078400  0.16478200  0.03983050  1
  H  993  1  0.09746300  0.10316300  0.19046400  1
  H  994  1  0.05883300  0.08016000  0.11154100  1
  H  1005  1  0.31963100  0.81071400  0.61493100  1
  H  1010  1  0.36279200  0.83850100  0.53999300  1
  H  1015  1  0.40593300  0.90025800  0.69061400  1
  H  1016  1  0.44460900  0.92322100  0.61170000  1
  H  1027  1  0.56103900  0.42940800  0.86468100  1
  H  1032  1  0.59719600  0.39330300  0.78964600  1
  H  1037  1  0.65662400  0.35172800  0.94198100  1
  H  1038  1  0.68858300  0.31931800  0.86341400  1
  H  1049  1  0.94223400  0.57359000  0.36452500  1
  H  1054  1  0.90658600  0.61052200  0.28964600  1
  H  1059  1  0.84678900  0.65117000  0.44207100  1
  H  1060  1  0.81542400  0.68451900  0.36365800  1
  H  1071  1  0.31807700  0.19322400  0.86243600  1
  H  1076  1  0.35871700  0.16263800  0.93766600  1
  H  1081  1  0.40625700  0.10603800  0.78632600  1
  H  1082  1  0.44251100  0.08010500  0.86547800  1
  H  1093  1  0.18543900  0.81019200  0.36236200  1
  H  1098  1  0.14497700  0.84083400  0.43765800  1
  H  1103  1  0.09712600  0.89735700  0.28636700  1
  H  1104  1  0.06103500  0.92335900  0.36556700  1
  H  1115  1  0.94043600  0.43089300  0.11357000  1
  H  1120  1  0.89882700  0.40078600  0.18841100  1
  H  1125  1  0.85127800  0.34654400  0.03610950  1
  H  1126  1  0.81260900  0.32118700  0.11412700  1
  H  1137  1  0.56294500  0.57275900  0.61347600  1
  H  1142  1  0.60468600  0.60262400  0.68834100  1
  H  1147  1  0.65206800  0.65722200  0.53611000  1
  H  1148  1  0.69086500  0.68235600  0.61413200  1
  H  1159  1  0.04128300  0.02653200  0.47140700  1
  H  1160  1  0.99949300  0.06573400  0.40138100  1
  H  1167  1  0.99972600  0.93830700  0.55269100  1
  H  1168  1  0.95968000  0.00353200  0.50462200  1
  H  1171  1  0.93545200  0.00765900  0.45641100  1
  H  1172  1  0.06274200  0.97830000  0.48165100  1
  H  1177  1  0.95656700  0.97361600  0.56960300  1
  H  1178  1  0.94361300  0.02498800  0.39210000  1
  H  1179  1  0.06257800  0.06883900  0.44536000  1
  H  1180  1  0.05777600  0.92519300  0.50588900  1
  H  1187  1  0.46222800  0.97681900  0.97153600  1
  H  1188  1  0.50390500  0.93767500  0.90141500  1
  H  1195  1  0.50385800  0.06554000  0.05235490  1
  H  1196  1  0.54391900  0.00022200  0.00441593  1
  H  1199  1  0.56796300  0.99601100  0.95615100  1
  H  1200  1  0.44063300  0.02498400  0.98180100  1
  H  1205  1  0.54763800  0.02986400  0.06904790  1
  H  1206  1  0.56003400  0.97873100  0.89233200  1
  H  1207  1  0.44094800  0.93444600  0.94554000  1
  H  1208  1  0.44562100  0.07828300  0.00579493  1
  H  1215  1  0.22716500  0.78791100  0.72190400  1
  H  1216  1  0.18572100  0.74601500  0.65328700  1
  H  1223  1  0.31719900  0.74448500  0.80126500  1
  H  1224  1  0.25067200  0.70539700  0.75431200  1
  H  1227  1  0.24495900  0.68157900  0.70655600  1
  H  1228  1  0.27510200  0.80907400  0.73301300  1
  H  1233  1  0.28147600  0.70094400  0.81788400  1
  H  1234  1  0.22649800  0.68885100  0.64451800  1
  H  1235  1  0.18266000  0.80861000  0.69610500  1
  H  1236  1  0.32958600  0.80328500  0.75644900  1
  H  1243  1  0.27656800  0.21555700  0.22190900  1
  H  1244  1  0.31809900  0.25750500  0.15338400  1
  H  1251  1  0.18615000  0.25883700  0.30096100  1
  H  1252  1  0.25268500  0.29808700  0.25415300  1
  H  1255  1  0.25857100  0.32185700  0.20642800  1
  H  1256  1  0.22872600  0.19423300  0.23301000  1
  H  1261  1  0.22214300  0.30301600  0.31742100  1
  H  1262  1  0.27715900  0.31482700  0.14474000  1
  H  1263  1  0.32121800  0.19496900  0.19618200  1
  H  1264  1  0.17417400  0.19986800  0.25627500  1
  H  1271  1  0.77411000  0.20978300  0.22971600  1
  H  1272  1  0.81547100  0.25050600  0.29910100  1
  H  1279  1  0.68414800  0.25306500  0.15105900  1
  H  1280  1  0.75091900  0.29223300  0.19767500  1
  H  1283  1  0.75708300  0.31590200  0.24590600  1
  H  1284  1  0.72585800  0.18894900  0.21995600  1
  H  1289  1  0.72020300  0.29590900  0.13382500  1
  H  1290  1  0.77503200  0.30716700  0.30913500  1
  H  1291  1  0.81721100  0.18758700  0.25560800  1
  H  1292  1  0.67210200  0.19396200  0.19634600  1
  H  1299  1  0.72924900  0.79388300  0.72962500  1
  H  1300  1  0.68784300  0.75307900  0.79892700  1
  H  1307  1  0.81958900  0.75075300  0.65124100  1
  H  1308  1  0.75282200  0.71142700  0.69773100  1
  H  1311  1  0.74653300  0.68780000  0.74592500  1
  H  1312  1  0.77739100  0.81489500  0.71984500  1
  H  1317  1  0.78326800  0.70727700  0.63416600  1
  H  1318  1  0.72852800  0.69617000  0.80870500  1
  H  1319  1  0.68606400  0.81598700  0.75546000  1
  H  1320  1  0.83111500  0.81011600  0.69641600  1
  H  1327  1  0.54440900  0.52634200  0.97254100  1
  H  1328  1  0.50364900  0.56951300  0.90425700  1
  H  1335  1  0.49888300  0.43583500  0.05012590  1
  H  1336  1  0.46150000  0.50381300  0.00385693  1
  H  1339  1  0.43805000  0.50984100  0.95569800  1
  H  1340  1  0.56465500  0.47787100  0.98290600  1
  H  1345  1  0.45575500  0.47504400  0.06661090  1
  H  1346  1  0.44667200  0.52799300  0.89425800  1
  H  1347  1  0.56668300  0.57014300  0.94732500  1
  H  1348  1  0.55881400  0.42381100  0.00567393  1
  H  1355  1  0.95910500  0.47709900  0.47263300  1
  H  1356  1  0.99979000  0.43395500  0.40428000  1
  H  1363  1  0.00475800  0.56794000  0.54985100  1
  H  1364  1  0.04206400  0.49979600  0.50375400  1
  H  1367  1  0.06541200  0.49375900  0.45555000  1
  H  1368  1  0.93882300  0.52557500  0.48297800  1
  H  1373  1  0.04837500  0.52833400  0.56617900  1
  H  1374  1  0.05676400  0.47559000  0.39423900  1
  H  1375  1  0.93682300  0.43326900  0.44743200  1
  H  1376  1  0.94474600  0.57979600  0.50556500  1
  H  1383  1  0.82494000  0.81306200  0.60003800  1
  H  1388  1  0.86059100  0.84931000  0.67527200  1
  H  1393  1  0.90122500  0.91030700  0.52338200  1
  H  1394  1  0.93314500  0.94208200  0.60225000  1
  H  1405  1  0.67930200  0.19040200  0.10006100  1
  H  1410  1  0.64256900  0.15484200  0.17510300  1
  H  1415  1  0.60327400  0.09320200  0.02312690  1
  H  1416  1  0.57015200  0.06216700  0.10179200  1
  H  1427  1  0.43491800  0.56168700  0.85033700  1
  H  1432  1  0.40590700  0.60651800  0.92368000  1
  H  1437  1  0.34121700  0.64136700  0.77209500  1
  H  1438  1  0.31597700  0.68089300  0.84987800  1
  H  1449  1  0.06880500  0.44230600  0.35030600  1
  H  1454  1  0.09722400  0.39671900  0.42343100  1
  H  1459  1  0.16249800  0.36282400  0.27188800  1
  H  1460  1  0.18706600  0.32243500  0.34944300  1
  H  1471  1  0.68306600  0.81208500  0.85187200  1
  H  1476  1  0.65445100  0.85437300  0.77681100  1
  H  1481  1  0.59895700  0.90217400  0.92852200  1
  H  1482  1  0.57520500  0.94141300  0.85026000  1
  H  1493  1  0.82032500  0.19153300  0.35200700  1
  H  1498  1  0.84900800  0.14928700  0.27695200  1
  H  1503  1  0.90436700  0.10142200  0.42871700  1
  H  1504  1  0.92823700  0.06222300  0.35047200  1
  H  1515  1  0.06360100  0.56354500  0.59976300  1
  H  1520  1  0.11199400  0.58842700  0.52708200  1
  H  1525  1  0.14689800  0.65304600  0.67861000  1
  H  1526  1  0.19213800  0.67234400  0.60236100  1
  H  1537  1  0.44007000  0.44015000  0.10005500  1
  H  1542  1  0.39188700  0.41526200  0.02723590  1
  H  1547  1  0.35677000  0.35044600  0.17864500  1
  H  1548  1  0.31168400  0.33115500  0.10230600  1
  H  1559  1  0.18387500  0.19260600  0.35221400  1
  H  1564  1  0.14078400  0.16478200  0.27725000  1
  H  1569  1  0.09746300  0.10316300  0.42788400  1
  H  1570  1  0.05883300  0.08016000  0.34896100  1
  H  1581  1  0.31963100  0.81071400  0.85235100  1
  H  1586  1  0.36279200  0.83850100  0.77741300  1
  H  1591  1  0.40593300  0.90025800  0.92803400  1
  H  1592  1  0.44460900  0.92322100  0.84912000  1
  H  1603  1  0.56103900  0.42940800  0.10210100  1
  H  1608  1  0.59719600  0.39330300  0.02706590  1
  H  1613  1  0.65662400  0.35172800  0.17940100  1
  H  1614  1  0.68858300  0.31931800  0.10083400  1
  H  1625  1  0.94223400  0.57359000  0.60194500  1
  H  1630  1  0.90658600  0.61052200  0.52706600  1
  H  1635  1  0.84678900  0.65117000  0.67949100  1
  H  1636  1  0.81542400  0.68451900  0.60107800  1
  H  1647  1  0.31807700  0.19322400  0.09985590  1
  H  1652  1  0.35871700  0.16263800  0.17508600  1
  H  1657  1  0.40625700  0.10603800  0.02374590  1
  H  1658  1  0.44251100  0.08010500  0.10289800  1
  H  1669  1  0.18543900  0.81019200  0.59978200  1
  H  1674  1  0.14497700  0.84083400  0.67507800  1
  H  1679  1  0.09712600  0.89735700  0.52378700  1
  H  1680  1  0.06103500  0.92335900  0.60298700  1
  H  1691  1  0.94043600  0.43089300  0.35099000  1
  H  1696  1  0.89882700  0.40078600  0.42583100  1
  H  1701  1  0.85127800  0.34654400  0.27352900  1
  H  1702  1  0.81260900  0.32118700  0.35154700  1
  H  1713  1  0.56294500  0.57275900  0.85089600  1
  H  1718  1  0.60468600  0.60262400  0.92576100  1
  H  1723  1  0.65206800  0.65722200  0.77353000  1
  H  1724  1  0.69086500  0.68235600  0.85155200  1
  C  1  1  0.99933700  0.01010600  0.98862700  1
  C  2  1  0.02369200  0.02793500  0.98327000  1
  C  3  1  0.02464900  0.04763800  0.95999900  1
  C  4  1  0.99960300  0.05085800  0.94295200  1
  C  5  1  0.97452000  0.03438600  0.94810400  1
  C  6  1  0.97462000  0.01361800  0.97062700  1
  C  9  1  0.99988300  0.99009300  0.01243700  1
  C  10  1  0.02368200  0.97123800  0.01752900  1
  C  11  1  0.02420700  0.95255900  0.04191800  1
  C  12  1  0.00011600  0.95225000  0.06065100  1
  C  13  1  0.97615200  0.97035900  0.05594800  1
  C  14  1  0.97662100  0.98957100  0.03234800  1
  C  21  1  0.95261300  0.96912000  0.07421400  1
  C  22  1  0.95047400  0.03976400  0.93120200  1
  C  23  1  0.04929500  0.06391000  0.95442600  1
  C  24  1  0.04748700  0.93437500  0.04745500  1
  C  29  1  0.50410200  0.99335600  0.48860500  1
  C  30  1  0.47978600  0.97544900  0.48334900  1
  C  31  1  0.47880600  0.95573600  0.46009100  1
  C  32  1  0.50381100  0.95255900  0.44297900  1
  C  33  1  0.52886500  0.96910700  0.44803200  1
  C  34  1  0.52877000  0.98990700  0.47052400  1
  C  37  1  0.50356000  0.01340300  0.51237900  1
  C  38  1  0.47971700  0.03219400  0.51749200  1
  C  39  1  0.47924000  0.05097700  0.54180000  1
  C  40  1  0.50341600  0.05147100  0.56041600  1
  C  41  1  0.52739700  0.03340600  0.55569300  1
  C  42  1  0.52690900  0.01409200  0.53218200  1
  C  49  1  0.55107200  0.03506000  0.57368700  1
  C  50  1  0.55287200  0.96375900  0.43107400  1
  C  51  1  0.45417500  0.93943200  0.45457400  1
  C  52  1  0.45593400  0.06910900  0.54735100  1
  C  57  1  0.24293200  0.74565700  0.23913300  1
  C  58  1  0.22525500  0.77019500  0.23401400  1
  C  59  1  0.20508100  0.77119200  0.21116200  1
  C  60  1  0.20094400  0.74600000  0.19454300  1
  C  61  1  0.21722200  0.72076000  0.19947700  1
  C  62  1  0.23871900  0.72089600  0.22130900  1
  C  65  1  0.26354400  0.74595200  0.26248400  1
  C  66  1  0.28242300  0.76973300  0.26764700  1
  C  67  1  0.30171700  0.76975300  0.29155100  1
  C  68  1  0.30283900  0.74515000  0.30957600  1
  C  69  1  0.28476500  0.72119200  0.30477300  1
  C  70  1  0.26473300  0.72227100  0.28189200  1
  C  77  1  0.28638400  0.69726000  0.32253400  1
  C  78  1  0.21139800  0.69668100  0.18274400  1
  C  79  1  0.18932400  0.79604400  0.20522000  1
  C  80  1  0.31954300  0.79314500  0.29759900  1
  C  85  1  0.26072300  0.25777500  0.73908000  1
  C  86  1  0.27847400  0.23328000  0.73402300  1
  C  87  1  0.29869500  0.23231700  0.71121800  1
  C  88  1  0.30283900  0.25750900  0.69460700  1
  C  89  1  0.28650900  0.28272600  0.69948900  1
  C  90  1  0.26493900  0.28254000  0.72125400  1
  C  93  1  0.24006300  0.25742100  0.76239000  1
  C  94  1  0.22126400  0.23356900  0.76755300  1
  C  95  1  0.20189900  0.23351900  0.79140300  1
  C  96  1  0.20060600  0.25816600  0.80935400  1
  C  97  1  0.21861800  0.28216000  0.80455800  1
  C  98  1  0.23871900  0.28113700  0.78174200  1
  C  105  1  0.21661300  0.30617400  0.82209900  1
  C  106  1  0.29234300  0.30680800  0.68275100  1
  C  107  1  0.31446200  0.20747800  0.70528700  1
  C  108  1  0.18412100  0.21008300  0.79744000  1
  C  113  1  0.75859400  0.25201400  0.76330300  1
  C  114  1  0.77616500  0.22734400  0.76812100  1
  C  115  1  0.79629200  0.22591500  0.79099100  1
  C  116  1  0.80039500  0.25084200  0.80803500  1
  C  117  1  0.78421400  0.27622000  0.80342300  1
  C  118  1  0.76290000  0.27654400  0.78140600  1
  C  121  1  0.73779800  0.25189100  0.74012900  1
  C  122  1  0.71868600  0.22823300  0.73527700  1
  C  123  1  0.69930800  0.22811900  0.71144700  1
  C  124  1  0.69845300  0.25251100  0.69311800  1
  C  125  1  0.71675800  0.27637100  0.69759400  1
  C  126  1  0.73673800  0.27543500  0.72054600  1
  C  133  1  0.71534700  0.30003300  0.67942100  1
  C  134  1  0.78994600  0.29996000  0.82067300  1
  C  135  1  0.81155600  0.20067900  0.79678000  1
  C  136  1  0.68158200  0.20459100  0.70549000  1
  C  141  1  0.74486000  0.75169600  0.26325700  1
  C  142  1  0.72720700  0.77631400  0.26802300  1
  C  143  1  0.70704400  0.77769800  0.29085800  1
  C  144  1  0.70295100  0.75276200  0.30789000  1
  C  145  1  0.71919500  0.72741600  0.30331600  1
  C  146  1  0.74057600  0.72715700  0.28135900  1
  C  149  1  0.76569300  0.75188600  0.24011300  1
  C  150  1  0.78471900  0.77561700  0.23525000  1
  C  151  1  0.80416100  0.77576600  0.21147000  1
  C  152  1  0.80518600  0.75132200  0.19321900  1
  C  153  1  0.78694600  0.72742300  0.19769400  1
  C  154  1  0.76690100  0.72830800  0.22058400  1
  C  161  1  0.78874800  0.70366800  0.17974700  1
  C  162  1  0.71346500  0.70366200  0.32056400  1
  C  163  1  0.69174700  0.80290900  0.29663600  1
  C  164  1  0.82185500  0.79933300  0.20553300  1
  C  169  1  0.50203200  0.51131700  0.48911900  1
  C  170  1  0.52681000  0.52880900  0.48458600  1
  C  171  1  0.52824500  0.54944900  0.46216700  1
  C  172  1  0.50323400  0.55417600  0.44539000  1
  C  173  1  0.47779800  0.53799900  0.44967900  1
  C  174  1  0.47752600  0.51607600  0.47109000  1
  C  177  1  0.50181400  0.49024700  0.51205100  1
  C  178  1  0.52517400  0.47081400  0.51708400  1
  C  179  1  0.52465600  0.45110800  0.54067100  1
  C  180  1  0.49988700  0.45026200  0.55851600  1
  C  181  1  0.47634100  0.46891200  0.55381300  1
  C  182  1  0.47800300  0.48928300  0.53128600  1
  C  189  1  0.45254300  0.46817800  0.57174700  1
  C  190  1  0.45423300  0.54355500  0.43211200  1
  C  191  1  0.55358200  0.56457900  0.45645200  1
  C  192  1  0.54792300  0.43304900  0.54682000  1
  C  197  1  0.00144800  0.49216600  0.98911700  1
  C  198  1  0.97669000  0.47463600  0.98465200  1
  C  199  1  0.97523700  0.45399600  0.96223700  1
  C  200  1  0.00021800  0.44929900  0.94541100  1
  C  201  1  0.02563800  0.46551300  0.94964100  1
  C  202  1  0.02592300  0.48744400  0.97103900  1
  C  205  1  0.00168100  0.51325800  0.01201900  1
  C  206  1  0.97832100  0.53269200  0.01703600  1
  C  207  1  0.97889100  0.55248100  0.04054600  1
  C  208  1  0.00371000  0.55342700  0.05831700  1
  C  209  1  0.02723800  0.53475900  0.05363100  1
  C  210  1  0.02553700  0.51429800  0.03119300  1
  C  217  1  0.05111300  0.53571100  0.07140500  1
  C  218  1  0.04917100  0.45998900  0.93202900  1
  C  219  1  0.94990000  0.43886300  0.95654800  1
  C  220  1  0.95563900  0.57054000  0.04669800  1
  C  225  1  0.84003300  0.82786200  0.16544700  1
  C  226  1  0.85804700  0.84863600  0.17856000  1
  C  228  1  0.87096200  0.86872800  0.13267100  1
  C  229  1  0.85309800  0.84838400  0.11822700  1
  C  230  1  0.83777300  0.82810200  0.13510300  1
  C  232  1  0.88692800  0.88914200  0.11655500  1
  C  233  1  0.92040200  0.92850000  0.11566600  1
  C  234  1  0.91968300  0.92982900  0.08520200  1
  C  235  1  0.90186800  0.90990100  0.07063800  1
  C  238  1  0.88521200  0.88936000  0.08590800  1
  C  239  1  0.86729700  0.86912100  0.07172300  1
  C  240  1  0.85134900  0.84880700  0.08775400  1
  C  247  1  0.66366100  0.17593600  0.66538300  1
  C  248  1  0.64537300  0.15535600  0.67842000  1
  C  250  1  0.63285000  0.13506800  0.63250900  1
  C  251  1  0.65100800  0.15521100  0.61814500  1
  C  252  1  0.66626800  0.17549700  0.63507100  1
  C  254  1  0.61693400  0.11466400  0.61633400  1
  C  255  1  0.58316300  0.07556500  0.61528800  1
  C  256  1  0.58424400  0.07404300  0.58484600  1
  C  257  1  0.60238100  0.09374000  0.57037200  1
  C  260  1  0.61900400  0.11424900  0.58571200  1
  C  261  1  0.63721200  0.13428400  0.57160900  1
  C  262  1  0.65310200  0.15459500  0.58769700  1
  C  269  1  0.42286300  0.58061600  0.41507800  1
  C  270  1  0.40473100  0.60171400  0.42734000  1
  C  272  1  0.38324900  0.61238700  0.38160600  1
  C  273  1  0.40124300  0.59170500  0.36779500  1
  C  274  1  0.42096800  0.57592800  0.38499700  1
  C  276  1  0.36370100  0.62912500  0.36522400  1
  C  277  1  0.32769500  0.66613600  0.36364200  1
  C  278  1  0.32495800  0.66369500  0.33333333  1
  C  279  1  0.34260500  0.64327700  0.31923400  1
  C  282  1  0.36207500  0.62558900  0.33479200  1
  C  283  1  0.38002900  0.60498100  0.32116600  1
  C  284  1  0.39938900  0.58814800  0.33752600  1
  C  291  1  0.08053500  0.42293900  0.91493900  1
  C  292  1  0.09852300  0.40168300  0.92713400  1
  C  294  1  0.12021500  0.39132800  0.88143000  1
  C  295  1  0.10239700  0.41221400  0.86769700  1
  C  296  1  0.08264700  0.42793300  0.88492300  1
  C  298  1  0.13976300  0.37463300  0.86501000  1
  C  299  1  0.17553600  0.33740300  0.86329200  1
  C  300  1  0.17843700  0.34009700  0.83305100  1
  C  301  1  0.16100500  0.36075200  0.81900600  1
  C  304  1  0.14156500  0.37842300  0.83461600  1
  C  305  1  0.12379400  0.39923800  0.82107200  1
  C  306  1  0.10442700  0.41602600  0.83747100  1
  C  313  1  0.67174400  0.83015200  0.33688700  1
  C  314  1  0.65553900  0.85242200  0.32389000  1
  C  316  1  0.63961200  0.86982900  0.36994900  1
  C  317  1  0.65575900  0.84800400  0.38427000  1
  C  318  1  0.67176100  0.82838400  0.36725800  1
  C  320  1  0.62228500  0.88905200  0.38613200  1
  C  321  1  0.58780700  0.92757000  0.38706100  1
  C  322  1  0.58491700  0.92547400  0.41730600  1
  C  323  1  0.60156300  0.90460700  0.43186600  1
  C  326  1  0.62070500  0.88632600  0.41668000  1
  C  327  1  0.63729400  0.86494500  0.43078700  1
  C  328  1  0.65478800  0.84600300  0.41471100  1
  C  335  1  0.83166700  0.17347600  0.83702400  1
  C  336  1  0.84789800  0.15122200  0.82403300  1
  C  338  1  0.86384600  0.13383400  0.87009700  1
  C  339  1  0.84766700  0.15563900  0.88441100  1
  C  340  1  0.83163900  0.17523800  0.86739700  1
  C  342  1  0.88117600  0.11462000  0.88629100  1
  C  343  1  0.91564700  0.07609000  0.88726400  1
  C  344  1  0.91850700  0.07816900  0.91751800  1
  C  345  1  0.90184400  0.09904200  0.93204600  1
  C  348  1  0.88271500  0.11732800  0.91684300  1
  C  349  1  0.86610000  0.13869500  0.93093900  1
  C  350  1  0.84861500  0.15763400  0.91485500  1
  C  357  1  0.08517200  0.57242700  0.08577300  1
  C  358  1  0.10787600  0.58883300  0.07391800  1
  C  360  1  0.12079800  0.60794100  0.12011700  1
  C  361  1  0.09807900  0.59220800  0.13346900  1
  C  362  1  0.08046000  0.57450800  0.11586900  1
  C  364  1  0.13855000  0.62637300  0.13672600  1
  C  365  1  0.17718900  0.66063500  0.13872100  1
  C  366  1  0.17299100  0.66506400  0.16856300  1
  C  367  1  0.15078300  0.64944600  0.18231100  1
  C  370  1  0.13347400  0.62961700  0.16682000  1
  C  371  1  0.11101500  0.61371400  0.18004000  1
  C  372  1  0.09355000  0.59507500  0.16352800  1
  C  379  1  0.41863100  0.43125100  0.58599400  1
  C  380  1  0.39597000  0.41482800  0.57407800  1
  C  382  1  0.38296200  0.39566200  0.62023500  1
  C  383  1  0.40562900  0.41141500  0.63364700  1
  C  384  1  0.42325600  0.42916800  0.61610300  1
  C  386  1  0.36519600  0.37719500  0.63679600  1
  C  387  1  0.32656800  0.34290700  0.63871000  1
  C  388  1  0.33073800  0.33843900  0.66854900  1
  C  389  1  0.35290900  0.35407000  0.68234600  1
  C  392  1  0.37021700  0.37393600  0.66690000  1
  C  393  1  0.39262900  0.38985600  0.68017400  1
  C  394  1  0.41010100  0.40853200  0.66371200  1
  C  401  1  0.16548300  0.18168300  0.83724000  1
  C  402  1  0.14463700  0.16378900  0.82407900  1
  C  404  1  0.13144600  0.14304800  0.86954000  1
  C  405  1  0.15228500  0.16024600  0.88405300  1
  C  406  1  0.16912300  0.17950600  0.86739500  1
  C  408  1  0.11337300  0.12433700  0.88542600  1
  C  409  1  0.07408600  0.09095700  0.88586600  1
  C  410  1  0.07524500  0.08835100  0.91614100  1
  C  411  1  0.09658200  0.10426700  0.93103400  1
  C  414  1  0.11591100  0.12252300  0.91596600  1
  C  415  1  0.13702700  0.13935300  0.93020700  1
  C  416  1  0.15505400  0.15806500  0.91438900  1
  C  423  1  0.33806600  0.82161600  0.33739000  1
  C  424  1  0.35891100  0.83951500  0.32423300  1
  C  426  1  0.37204500  0.86028700  0.36969200  1
  C  427  1  0.35120200  0.84309200  0.38420100  1
  C  428  1  0.33438200  0.82382200  0.36753800  1
  C  430  1  0.39009300  0.87902000  0.38558000  1
  C  431  1  0.42934500  0.91243500  0.38602000  1
  C  432  1  0.42814700  0.91507700  0.41629100  1
  C  433  1  0.40684600  0.89911600  0.43118600  1
  C  436  1  0.38752700  0.88085400  0.41611900  1
  C  437  1  0.36640900  0.86402300  0.43035500  1
  C  438  1  0.34840200  0.84529300  0.41453000  1
  C  445  1  0.57581300  0.41413900  0.58708000  1
  C  446  1  0.59643400  0.39584700  0.57409700  1
  C  448  1  0.61610300  0.38258400  0.62010500  1
  C  449  1  0.59591800  0.40074200  0.63441700  1
  C  450  1  0.57594500  0.41636200  0.61743100  1
  C  452  1  0.63619300  0.36631900  0.63636600  1
  C  453  1  0.67508500  0.33227100  0.63761400  1
  C  454  1  0.67619400  0.33297400  0.66809000  1
  C  455  1  0.65638500  0.35107200  0.68246400  1
  C  458  1  0.63622100  0.36803200  0.66701900  1
  C  459  1  0.61616000  0.38625800  0.68105900  1
  C  460  1  0.59618800  0.40249700  0.66489100  1
  C  467  1  0.92770600  0.58928200  0.08699700  1
  C  468  1  0.90723400  0.60778300  0.07407700  1
  C  470  1  0.88743300  0.62074200  0.12010900  1
  C  471  1  0.90745600  0.60235500  0.13435500  1
  C  472  1  0.92742700  0.58678200  0.11732300  1
  C  474  1  0.86737500  0.63699200  0.13642200  1
  C  475  1  0.82873800  0.67132300  0.13779200  1
  C  476  1  0.82750200  0.67036200  0.16825500  1
  C  477  1  0.84710600  0.65199000  0.18256100  1
  C  480  1  0.86721100  0.63501700  0.16705700  1
  C  481  1  0.88710300  0.61655700  0.18102900  1
  C  482  1  0.90705200  0.60034300  0.16481100  1
  C  489  1  0.33503300  0.18062900  0.66529000  1
  C  490  1  0.35536100  0.16218400  0.67847400  1
  C  492  1  0.36988400  0.14300000  0.63272500  1
  C  493  1  0.34952500  0.16075700  0.61819700  1
  C  494  1  0.33232500  0.17956700  0.63498500  1
  C  496  1  0.38847900  0.12490400  0.61672500  1
  C  497  1  0.42771500  0.09145300  0.61624800  1
  C  498  1  0.42760800  0.09009200  0.58586700  1
  C  499  1  0.40669500  0.10655300  0.57094800  1
  C  502  1  0.38689000  0.12423300  0.58607400  1
  C  503  1  0.36615300  0.14150800  0.57181200  1
  C  504  1  0.34765100  0.15965400  0.58773800  1
  C  511  1  0.16858900  0.82282700  0.16524800  1
  C  512  1  0.14829200  0.84128700  0.17846000  1
  C  514  1  0.13364000  0.86041900  0.13272400  1
  C  515  1  0.15397000  0.84265100  0.11816800  1
  C  516  1  0.17122400  0.82386700  0.13493400  1
  C  518  1  0.11500900  0.87850400  0.11674700  1
  C  519  1  0.07578600  0.91197800  0.11631600  1
  C  520  1  0.07585700  0.91335000  0.08593400  1
  C  521  1  0.09670800  0.89683200  0.07099100  1
  C  524  1  0.11653800  0.87915600  0.08609300  1
  C  525  1  0.13724400  0.86186500  0.07180200  1
  C  526  1  0.15577600  0.84373000  0.08770300  1
  C  533  1  0.92265300  0.41886200  0.91621200  1
  C  534  1  0.90062000  0.40223400  0.92907800  1
  C  536  1  0.88330200  0.38657100  0.88287700  1
  C  537  1  0.90483600  0.40322200  0.86869400  1
  C  538  1  0.92429100  0.41928900  0.88583800  1
  C  540  1  0.86430400  0.36913800  0.86652300  1
  C  541  1  0.82629100  0.33409900  0.86521000  1
  C  542  1  0.82828100  0.33165600  0.83491300  1
  C  543  1  0.84891700  0.34876700  0.82055600  1
  C  546  1  0.86696100  0.36798500  0.83594700  1
  C  547  1  0.88803700  0.38508600  0.82199600  1
  C  548  1  0.90675900  0.40266100  0.83823700  1
  C  555  1  0.58076700  0.58469500  0.41612900  1
  C  556  1  0.60283600  0.60126700  0.42900800  1
  C  558  1  0.62014600  0.61699500  0.38281900  1
  C  559  1  0.59857100  0.60040100  0.36862600  1
  C  560  1  0.57911600  0.58431500  0.38575500  1
  C  562  1  0.63914200  0.63444700  0.36648100  1
  C  563  1  0.67720200  0.66944300  0.36519600  1
  C  564  1  0.67514500  0.67198800  0.33491200  1
  C  565  1  0.65447700  0.65492400  0.32054400  1
  C  568  1  0.63644800  0.63567300  0.33591400  1
  C  569  1  0.61533700  0.61862400  0.32194700  1
  C  570  1  0.59661600  0.60103400  0.33817200  1
  C  577  1  0.99933700  0.01010600  0.22604600  1
  C  578  1  0.02369200  0.02793500  0.22068900  1
  C  579  1  0.02464900  0.04763800  0.19741800  1
  C  580  1  0.99960300  0.05085800  0.18037100  1
  C  581  1  0.97452000  0.03438600  0.18552300  1
  C  582  1  0.97462000  0.01361800  0.20804600  1
  C  585  1  0.99988300  0.99009300  0.24985600  1
  C  586  1  0.02368200  0.97123800  0.25494800  1
  C  587  1  0.02420700  0.95255900  0.27933700  1
  C  588  1  0.00011600  0.95225000  0.29807000  1
  C  589  1  0.97615200  0.97035900  0.29336700  1
  C  590  1  0.97662100  0.98957100  0.26976700  1
  C  597  1  0.95261300  0.96912000  0.31163300  1
  C  598  1  0.95047400  0.03976400  0.16862100  1
  C  599  1  0.04929500  0.06391000  0.19184500  1
  C  600  1  0.04748700  0.93437500  0.28487400  1
  C  605  1  0.50410200  0.99335600  0.72602400  1
  C  606  1  0.47978600  0.97544900  0.72076800  1
  C  607  1  0.47880600  0.95573600  0.69751000  1
  C  608  1  0.50381100  0.95255900  0.68039800  1
  C  609  1  0.52886500  0.96910700  0.68545100  1
  C  610  1  0.52877000  0.98990700  0.70794300  1
  C  613  1  0.50356000  0.01340300  0.74979800  1
  C  614  1  0.47971700  0.03219400  0.75491100  1
  C  615  1  0.47924000  0.05097700  0.77921900  1
  C  616  1  0.50341600  0.05147100  0.79783500  1
  C  617  1  0.52739700  0.03340600  0.79311200  1
  C  618  1  0.52690900  0.01409200  0.76960100  1
  C  625  1  0.55107200  0.03506000  0.81110600  1
  C  626  1  0.55287200  0.96375900  0.66849300  1
  C  627  1  0.45417500  0.93943200  0.69199300  1
  C  628  1  0.45593400  0.06910900  0.78477000  1
  C  633  1  0.24293200  0.74565700  0.47655200  1
  C  634  1  0.22525500  0.77019500  0.47143300  1
  C  635  1  0.20508100  0.77119200  0.44858100  1
  C  636  1  0.20094400  0.74600000  0.43196200  1
  C  637  1  0.21722200  0.72076000  0.43689600  1
  C  638  1  0.23871900  0.72089600  0.45872800  1
  C  641  1  0.26354400  0.74595200  0.49990300  1
  C  642  1  0.28242300  0.76973300  0.50506600  1
  C  643  1  0.30171700  0.76975300  0.52897000  1
  C  644  1  0.30283900  0.74515000  0.54699500  1
  C  645  1  0.28476500  0.72119200  0.54219200  1
  C  646  1  0.26473300  0.72227100  0.51931100  1
  C  653  1  0.28638400  0.69726000  0.55995300  1
  C  654  1  0.21139800  0.69668100  0.42016300  1
  C  655  1  0.18932400  0.79604400  0.44263900  1
  C  656  1  0.31954300  0.79314500  0.53501800  1
  C  661  1  0.26072300  0.25777500  0.97649900  1
  C  662  1  0.27847400  0.23328000  0.97144200  1
  C  663  1  0.29869500  0.23231700  0.94863700  1
  C  664  1  0.30283900  0.25750900  0.93202600  1
  C  665  1  0.28650900  0.28272600  0.93690800  1
  C  666  1  0.26493900  0.28254000  0.95867300  1
  C  669  1  0.24006300  0.25742100  0.99980900  1
  C  670  1  0.22126400  0.23356900  0.00497247  1
  C  671  1  0.20189900  0.23351900  0.02882250  1
  C  672  1  0.20060600  0.25816600  0.04677350  1
  C  673  1  0.21861800  0.28216000  0.04197750  1
  C  674  1  0.23871900  0.28113700  0.01916150  1
  C  681  1  0.21661300  0.30617400  0.05951850  1
  C  682  1  0.29234300  0.30680800  0.92017000  1
  C  683  1  0.31446200  0.20747800  0.94270600  1
  C  684  1  0.18412100  0.21008300  0.03485950  1
  C  689  1  0.75859400  0.25201400  0.00072247  1
  C  690  1  0.77616500  0.22734400  0.00554047  1
  C  691  1  0.79629200  0.22591500  0.02841050  1
  C  692  1  0.80039500  0.25084200  0.04545450  1
  C  693  1  0.78421400  0.27622000  0.04084250  1
  C  694  1  0.76290000  0.27654400  0.01882550  1
  C  697  1  0.73779800  0.25189100  0.97754800  1
  C  698  1  0.71868600  0.22823300  0.97269600  1
  C  699  1  0.69930800  0.22811900  0.94886600  1
  C  700  1  0.69845300  0.25251100  0.93053700  1
  C  701  1  0.71675800  0.27637100  0.93501300  1
  C  702  1  0.73673800  0.27543500  0.95796500  1
  C  709  1  0.71534700  0.30003300  0.91684000  1
  C  710  1  0.78994600  0.29996000  0.05809250  1
  C  711  1  0.81155600  0.20067900  0.03419950  1
  C  712  1  0.68158200  0.20459100  0.94290900  1
  C  717  1  0.74486000  0.75169600  0.50067600  1
  C  718  1  0.72720700  0.77631400  0.50544200  1
  C  719  1  0.70704400  0.77769800  0.52827700  1
  C  720  1  0.70295100  0.75276200  0.54530900  1
  C  721  1  0.71919500  0.72741600  0.54073500  1
  C  722  1  0.74057600  0.72715700  0.51877800  1
  C  725  1  0.76569300  0.75188600  0.47753200  1
  C  726  1  0.78471900  0.77561700  0.47266900  1
  C  727  1  0.80416100  0.77576600  0.44888900  1
  C  728  1  0.80518600  0.75132200  0.43063800  1
  C  729  1  0.78694600  0.72742300  0.43511300  1
  C  730  1  0.76690100  0.72830800  0.45800300  1
  C  737  1  0.78874800  0.70366800  0.41716600  1
  C  738  1  0.71346500  0.70366200  0.55798300  1
  C  739  1  0.69174700  0.80290900  0.53405500  1
  C  740  1  0.82185500  0.79933300  0.44295200  1
  C  745  1  0.50203200  0.51131700  0.72653800  1
  C  746  1  0.52681000  0.52880900  0.72200500  1
  C  747  1  0.52824500  0.54944900  0.69958600  1
  C  748  1  0.50323400  0.55417600  0.68280900  1
  C  749  1  0.47779800  0.53799900  0.68709800  1
  C  750  1  0.47752600  0.51607600  0.70850900  1
  C  753  1  0.50181400  0.49024700  0.74947000  1
  C  754  1  0.52517400  0.47081400  0.75450300  1
  C  755  1  0.52465600  0.45110800  0.77809000  1
  C  756  1  0.49988700  0.45026200  0.79593500  1
  C  757  1  0.47634100  0.46891200  0.79123200  1
  C  758  1  0.47800300  0.48928300  0.76870500  1
  C  765  1  0.45254300  0.46817800  0.80916600  1
  C  766  1  0.45423300  0.54355500  0.66953100  1
  C  767  1  0.55358200  0.56457900  0.69387100  1
  C  768  1  0.54792300  0.43304900  0.78423900  1
  C  773  1  0.00144800  0.49216600  0.22653600  1
  C  774  1  0.97669000  0.47463600  0.22207100  1
  C  775  1  0.97523700  0.45399600  0.19965600  1
  C  776  1  0.00021800  0.44929900  0.18283000  1
  C  777  1  0.02563800  0.46551300  0.18706000  1
  C  778  1  0.02592300  0.48744400  0.20845800  1
  C  781  1  0.00168100  0.51325800  0.24943800  1
  C  782  1  0.97832100  0.53269200  0.25445500  1
  C  783  1  0.97889100  0.55248100  0.27796500  1
  C  784  1  0.00371000  0.55342700  0.29573600  1
  C  785  1  0.02723800  0.53475900  0.29105000  1
  C  786  1  0.02553700  0.51429800  0.26861200  1
  C  793  1  0.05111300  0.53571100  0.30882400  1
  C  794  1  0.04917100  0.45998900  0.16944800  1
  C  795  1  0.94990000  0.43886300  0.19396700  1
  C  796  1  0.95563900  0.57054000  0.28411700  1
  C  801  1  0.84003300  0.82786200  0.40286600  1
  C  802  1  0.85804700  0.84863600  0.41597900  1
  C  804  1  0.87096200  0.86872800  0.37009000  1
  C  805  1  0.85309800  0.84838400  0.35564600  1
  C  806  1  0.83777300  0.82810200  0.37252200  1
  C  808  1  0.88692800  0.88914200  0.35397400  1
  C  809  1  0.92040200  0.92850000  0.35308500  1
  C  810  1  0.91968300  0.92982900  0.32262100  1
  C  811  1  0.90186800  0.90990100  0.30805700  1
  C  814  1  0.88521200  0.88936000  0.32332700  1
  C  815  1  0.86729700  0.86912100  0.30914200  1
  C  816  1  0.85134900  0.84880700  0.32517300  1
  C  823  1  0.66366100  0.17593600  0.90280200  1
  C  824  1  0.64537300  0.15535600  0.91583900  1
  C  826  1  0.63285000  0.13506800  0.86992800  1
  C  827  1  0.65100800  0.15521100  0.85556400  1
  C  828  1  0.66626800  0.17549700  0.87249000  1
  C  830  1  0.61693400  0.11466400  0.85375300  1
  C  831  1  0.58316300  0.07556500  0.85270700  1
  C  832  1  0.58424400  0.07404300  0.82226500  1
  C  833  1  0.60238100  0.09374000  0.80779100  1
  C  836  1  0.61900400  0.11424900  0.82313100  1
  C  837  1  0.63721200  0.13428400  0.80902800  1
  C  838  1  0.65310200  0.15459500  0.82511600  1
  C  845  1  0.42286300  0.58061600  0.65249700  1
  C  846  1  0.40473100  0.60171400  0.66475900  1
  C  848  1  0.38324900  0.61238700  0.61902500  1
  C  849  1  0.40124300  0.59170500  0.60521400  1
  C  850  1  0.42096800  0.57592800  0.62241600  1
  C  852  1  0.36370100  0.62912500  0.60264300  1
  C  853  1  0.32769500  0.66613600  0.60106100  1
  C  854  1  0.32495800  0.66369500  0.57078200  1
  C  855  1  0.34260500  0.64327700  0.55665300  1
  C  858  1  0.36207500  0.62558900  0.57221100  1
  C  859  1  0.38002900  0.60498100  0.55858500  1
  C  860  1  0.39938900  0.58814800  0.57494500  1
  C  867  1  0.08053500  0.42293900  0.15235800  1
  C  868  1  0.09852300  0.40168300  0.16455300  1
  C  870  1  0.12021500  0.39132800  0.11884900  1
  C  871  1  0.10239700  0.41221400  0.10511600  1
  C  872  1  0.08264700  0.42793300  0.12234200  1
  C  874  1  0.13976300  0.37463300  0.10242900  1
  C  875  1  0.17553600  0.33740300  0.10071100  1
  C  876  1  0.17843700  0.34009700  0.07047050  1
  C  877  1  0.16100500  0.36075200  0.05642550  1
  C  880  1  0.14156500  0.37842300  0.07203550  1
  C  881  1  0.12379400  0.39923800  0.05849150  1
  C  882  1  0.10442700  0.41602600  0.07489050  1
  C  889  1  0.67174400  0.83015200  0.57430600  1
  C  890  1  0.65553900  0.85242200  0.56130900  1
  C  892  1  0.63961200  0.86982900  0.60736800  1
  C  893  1  0.65575900  0.84800400  0.62168900  1
  C  894  1  0.67176100  0.82838400  0.60467700  1
  C  896  1  0.62228500  0.88905200  0.62355100  1
  C  897  1  0.58780700  0.92757000  0.62448000  1
  C  898  1  0.58491700  0.92547400  0.65472500  1
  C  899  1  0.60156300  0.90460700  0.66928500  1
  C  902  1  0.62070500  0.88632600  0.65409900  1
  C  903  1  0.63729400  0.86494500  0.66820600  1
  C  904  1  0.65478800  0.84600300  0.65213000  1
  C  911  1  0.83166700  0.17347600  0.07444350  1
  C  912  1  0.84789800  0.15122200  0.06145250  1
  C  914  1  0.86384600  0.13383400  0.10751600  1
  C  915  1  0.84766700  0.15563900  0.12183000  1
  C  916  1  0.83163900  0.17523800  0.10481600  1
  C  918  1  0.88117600  0.11462000  0.12371000  1
  C  919  1  0.91564700  0.07609000  0.12468300  1
  C  920  1  0.91850700  0.07816900  0.15493700  1
  C  921  1  0.90184400  0.09904200  0.16946500  1
  C  924  1  0.88271500  0.11732800  0.15426200  1
  C  925  1  0.86610000  0.13869500  0.16835800  1
  C  926  1  0.84861500  0.15763400  0.15227400  1
  C  933  1  0.08517200  0.57242700  0.32319200  1
  C  934  1  0.10787600  0.58883300  0.31133700  1
  C  936  1  0.12079800  0.60794100  0.35753600  1
  C  937  1  0.09807900  0.59220800  0.37088800  1
  C  938  1  0.08046000  0.57450800  0.35328800  1
  C  940  1  0.13855000  0.62637300  0.37414500  1
  C  941  1  0.17718900  0.66063500  0.37614000  1
  C  942  1  0.17299100  0.66506400  0.40598200  1
  C  943  1  0.15078300  0.64944600  0.41973000  1
  C  946  1  0.13347400  0.62961700  0.40423900  1
  C  947  1  0.11101500  0.61371400  0.41745900  1
  C  948  1  0.09355000  0.59507500  0.40094700  1
  C  955  1  0.41863100  0.43125100  0.82341300  1
  C  956  1  0.39597000  0.41482800  0.81149700  1
  C  958  1  0.38296200  0.39566200  0.85765400  1
  C  959  1  0.40562900  0.41141500  0.87106600  1
  C  960  1  0.42325600  0.42916800  0.85352200  1
  C  962  1  0.36519600  0.37719500  0.87421500  1
  C  963  1  0.32656800  0.34290700  0.87612900  1
  C  964  1  0.33073800  0.33843900  0.90596800  1
  C  965  1  0.35290900  0.35407000  0.91976500  1
  C  968  1  0.37021700  0.37393600  0.90431900  1
  C  969  1  0.39262900  0.38985600  0.91759300  1
  C  970  1  0.41010100  0.40853200  0.90113100  1
  C  977  1  0.16548300  0.18168300  0.07465950  1
  C  978  1  0.14463700  0.16378900  0.06149850  1
  C  980  1  0.13144600  0.14304800  0.10695900  1
  C  981  1  0.15228500  0.16024600  0.12147200  1
  C  982  1  0.16912300  0.17950600  0.10481400  1
  C  984  1  0.11337300  0.12433700  0.12284500  1
  C  985  1  0.07408600  0.09095700  0.12328500  1
  C  986  1  0.07524500  0.08835100  0.15356000  1
  C  987  1  0.09658200  0.10426700  0.16845300  1
  C  990  1  0.11591100  0.12252300  0.15338500  1
  C  991  1  0.13702700  0.13935300  0.16762600  1
  C  992  1  0.15505400  0.15806500  0.15180800  1
  C  999  1  0.33806600  0.82161600  0.57480900  1
  C  1000  1  0.35891100  0.83951500  0.56165200  1
  C  1002  1  0.37204500  0.86028700  0.60711100  1
  C  1003  1  0.35120200  0.84309200  0.62162000  1
  C  1004  1  0.33438200  0.82382200  0.60495700  1
  C  1006  1  0.39009300  0.87902000  0.62299900  1
  C  1007  1  0.42934500  0.91243500  0.62343900  1
  C  1008  1  0.42814700  0.91507700  0.65371000  1
  C  1009  1  0.40684600  0.89911600  0.66860500  1
  C  1012  1  0.38752700  0.88085400  0.65353800  1
  C  1013  1  0.36640900  0.86402300  0.66777400  1
  C  1014  1  0.34840200  0.84529300  0.65194900  1
  C  1021  1  0.57581300  0.41413900  0.82449900  1
  C  1022  1  0.59643400  0.39584700  0.81151600  1
  C  1024  1  0.61610300  0.38258400  0.85752400  1
  C  1025  1  0.59591800  0.40074200  0.87183600  1
  C  1026  1  0.57594500  0.41636200  0.85485000  1
  C  1028  1  0.63619300  0.36631900  0.87378500  1
  C  1029  1  0.67508500  0.33227100  0.87503300  1
  C  1030  1  0.67619400  0.33297400  0.90550900  1
  C  1031  1  0.65638500  0.35107200  0.91988300  1
  C  1034  1  0.63622100  0.36803200  0.90443800  1
  C  1035  1  0.61616000  0.38625800  0.91847800  1
  C  1036  1  0.59618800  0.40249700  0.90231000  1
  C  1043  1  0.92770600  0.58928200  0.32441600  1
  C  1044  1  0.90723400  0.60778300  0.31149600  1
  C  1046  1  0.88743300  0.62074200  0.35752800  1
  C  1047  1  0.90745600  0.60235500  0.37177400  1
  C  1048  1  0.92742700  0.58678200  0.35474200  1
  C  1050  1  0.86737500  0.63699200  0.37384100  1
  C  1051  1  0.82873800  0.67132300  0.37521100  1
  C  1052  1  0.82750200  0.67036200  0.40567400  1
  C  1053  1  0.84710600  0.65199000  0.41998000  1
  C  1056  1  0.86721100  0.63501700  0.40447600  1
  C  1057  1  0.88710300  0.61655700  0.41844800  1
  C  1058  1  0.90705200  0.60034300  0.40223000  1
  C  1065  1  0.33503300  0.18062900  0.90270900  1
  C  1066  1  0.35536100  0.16218400  0.91589300  1
  C  1068  1  0.36988400  0.14300000  0.87014400  1
  C  1069  1  0.34952500  0.16075700  0.85561600  1
  C  1070  1  0.33232500  0.17956700  0.87240400  1
  C  1072  1  0.38847900  0.12490400  0.85414400  1
  C  1073  1  0.42771500  0.09145300  0.85366700  1
  C  1074  1  0.42760800  0.09009200  0.82328600  1
  C  1075  1  0.40669500  0.10655300  0.80836700  1
  C  1078  1  0.38689000  0.12423300  0.82349300  1
  C  1079  1  0.36615300  0.14150800  0.80923100  1
  C  1080  1  0.34765100  0.15965400  0.82515700  1
  C  1087  1  0.16858900  0.82282700  0.40266700  1
  C  1088  1  0.14829200  0.84128700  0.41587900  1
  C  1090  1  0.13364000  0.86041900  0.37014300  1
  C  1091  1  0.15397000  0.84265100  0.35558700  1
  C  1092  1  0.17122400  0.82386700  0.37235300  1
  C  1094  1  0.11500900  0.87850400  0.35416600  1
  C  1095  1  0.07578600  0.91197800  0.35373500  1
  C  1096  1  0.07585700  0.91335000  0.32335300  1
  C  1097  1  0.09670800  0.89683200  0.30841000  1
  C  1100  1  0.11653800  0.87915600  0.32351200  1
  C  1101  1  0.13724400  0.86186500  0.30922100  1
  C  1102  1  0.15577600  0.84373000  0.32512200  1
  C  1109  1  0.92265300  0.41886200  0.15363100  1
  C  1110  1  0.90062000  0.40223400  0.16649700  1
  C  1112  1  0.88330200  0.38657100  0.12029600  1
  C  1113  1  0.90483600  0.40322200  0.10611300  1
  C  1114  1  0.92429100  0.41928900  0.12325700  1
  C  1116  1  0.86430400  0.36913800  0.10394200  1
  C  1117  1  0.82629100  0.33409900  0.10262900  1
  C  1118  1  0.82828100  0.33165600  0.07233250  1
  C  1119  1  0.84891700  0.34876700  0.05797550  1
  C  1122  1  0.86696100  0.36798500  0.07336650  1
  C  1123  1  0.88803700  0.38508600  0.05941550  1
  C  1124  1  0.90675900  0.40266100  0.07565650  1
  C  1131  1  0.58076700  0.58469500  0.65354800  1
  C  1132  1  0.60283600  0.60126700  0.66642700  1
  C  1134  1  0.62014600  0.61699500  0.62023800  1
  C  1135  1  0.59857100  0.60040100  0.60604500  1
  C  1136  1  0.57911600  0.58431500  0.62317400  1
  C  1138  1  0.63914200  0.63444700  0.60390000  1
  C  1139  1  0.67720200  0.66944300  0.60261500  1
  C  1140  1  0.67514500  0.67198800  0.57233100  1
  C  1141  1  0.65447700  0.65492400  0.55796300  1
  C  1144  1  0.63644800  0.63567300  0.57333300  1
  C  1145  1  0.61533700  0.61862400  0.55936600  1
  C  1146  1  0.59661600  0.60103400  0.57559100  1
  C  1153  1  0.99933700  0.01010600  0.46346600  1
  C  1154  1  0.02369200  0.02793500  0.45810900  1
  C  1155  1  0.02464900  0.04763800  0.43483800  1
  C  1156  1  0.99960300  0.05085800  0.41779100  1
  C  1157  1  0.97452000  0.03438600  0.42294300  1
  C  1158  1  0.97462000  0.01361800  0.44546600  1
  C  1161  1  0.99988300  0.99009300  0.48727600  1
  C  1162  1  0.02368200  0.97123800  0.49236800  1
  C  1163  1  0.02420700  0.95255900  0.51675700  1
  C  1164  1  0.00011600  0.95225000  0.53549000  1
  C  1165  1  0.97615200  0.97035900  0.53078700  1
  C  1166  1  0.97662100  0.98957100  0.50718700  1
  C  1173  1  0.95261300  0.96912000  0.54905300  1
  C  1174  1  0.95047400  0.03976400  0.40604100  1
  C  1175  1  0.04929500  0.06391000  0.42926500  1
  C  1176  1  0.04748700  0.93437500  0.52229400  1
  C  1181  1  0.50410200  0.99335600  0.96344400  1
  C  1182  1  0.47978600  0.97544900  0.95818800  1
  C  1183  1  0.47880600  0.95573600  0.93493000  1
  C  1184  1  0.50381100  0.95255900  0.91781800  1
  C  1185  1  0.52886500  0.96910700  0.92287100  1
  C  1186  1  0.52877000  0.98990700  0.94536300  1
  C  1189  1  0.50356000  0.01340300  0.98721800  1
  C  1190  1  0.47971700  0.03219400  0.99233100  1
  C  1191  1  0.47924000  0.05097700  0.01663890  1
  C  1192  1  0.50341600  0.05147100  0.03525490  1
  C  1193  1  0.52739700  0.03340600  0.03053190  1
  C  1194  1  0.52690900  0.01409200  0.00702093  1
  C  1201  1  0.55107200  0.03506000  0.04852590  1
  C  1202  1  0.55287200  0.96375900  0.90591300  1
  C  1203  1  0.45417500  0.93943200  0.92941300  1
  C  1204  1  0.45593400  0.06910900  0.02218990  1
  C  1209  1  0.24293200  0.74565700  0.71397200  1
  C  1210  1  0.22525500  0.77019500  0.70885300  1
  C  1211  1  0.20508100  0.77119200  0.68600100  1
  C  1212  1  0.20094400  0.74600000  0.66938200  1
  C  1213  1  0.21722200  0.72076000  0.67431600  1
  C  1214  1  0.23871900  0.72089600  0.69614800  1
  C  1217  1  0.26354400  0.74595200  0.73732300  1
  C  1218  1  0.28242300  0.76973300  0.74248600  1
  C  1219  1  0.30171700  0.76975300  0.76639000  1
  C  1220  1  0.30283900  0.74515000  0.78441500  1
  C  1221  1  0.28476500  0.72119200  0.77961200  1
  C  1222  1  0.26473300  0.72227100  0.75673100  1
  C  1229  1  0.28638400  0.69726000  0.79737300  1
  C  1230  1  0.21139800  0.69668100  0.65758300  1
  C  1231  1  0.18932400  0.79604400  0.68005900  1
  C  1232  1  0.31954300  0.79314500  0.77243800  1
  C  1237  1  0.26072300  0.25777500  0.21391900  1
  C  1238  1  0.27847400  0.23328000  0.20886200  1
  C  1239  1  0.29869500  0.23231700  0.18605700  1
  C  1240  1  0.30283900  0.25750900  0.16944600  1
  C  1241  1  0.28650900  0.28272600  0.17432800  1
  C  1242  1  0.26493900  0.28254000  0.19609300  1
  C  1245  1  0.24006300  0.25742100  0.23722900  1
  C  1246  1  0.22126400  0.23356900  0.24239200  1
  C  1247  1  0.20189900  0.23351900  0.26624200  1
  C  1248  1  0.20060600  0.25816600  0.28419300  1
  C  1249  1  0.21861800  0.28216000  0.27939700  1
  C  1250  1  0.23871900  0.28113700  0.25658100  1
  C  1257  1  0.21661300  0.30617400  0.29693800  1
  C  1258  1  0.29234300  0.30680800  0.15759000  1
  C  1259  1  0.31446200  0.20747800  0.18012600  1
  C  1260  1  0.18412100  0.21008300  0.27227900  1
  C  1265  1  0.75859400  0.25201400  0.23814200  1
  C  1266  1  0.77616500  0.22734400  0.24296000  1
  C  1267  1  0.79629200  0.22591500  0.26583000  1
  C  1268  1  0.80039500  0.25084200  0.28287400  1
  C  1269  1  0.78421400  0.27622000  0.27826200  1
  C  1270  1  0.76290000  0.27654400  0.25624500  1
  C  1273  1  0.73779800  0.25189100  0.21496800  1
  C  1274  1  0.71868600  0.22823300  0.21011600  1
  C  1275  1  0.69930800  0.22811900  0.18628600  1
  C  1276  1  0.69845300  0.25251100  0.16795700  1
  C  1277  1  0.71675800  0.27637100  0.17243300  1
  C  1278  1  0.73673800  0.27543500  0.19538500  1
  C  1285  1  0.71534700  0.30003300  0.15426000  1
  C  1286  1  0.78994600  0.29996000  0.29551200  1
  C  1287  1  0.81155600  0.20067900  0.27161900  1
  C  1288  1  0.68158200  0.20459100  0.18032900  1
  C  1293  1  0.74486000  0.75169600  0.73809600  1
  C  1294  1  0.72720700  0.77631400  0.74286200  1
  C  1295  1  0.70704400  0.77769800  0.76569700  1
  C  1296  1  0.70295100  0.75276200  0.78272900  1
  C  1297  1  0.71919500  0.72741600  0.77815500  1
  C  1298  1  0.74057600  0.72715700  0.75619800  1
  C  1301  1  0.76569300  0.75188600  0.71495200  1
  C  1302  1  0.78471900  0.77561700  0.71008900  1
  C  1303  1  0.80416100  0.77576600  0.68630900  1
  C  1304  1  0.80518600  0.75132200  0.66805800  1
  C  1305  1  0.78694600  0.72742300  0.67253300  1
  C  1306  1  0.76690100  0.72830800  0.69542300  1
  C  1313  1  0.78874800  0.70366800  0.65458600  1
  C  1314  1  0.71346500  0.70366200  0.79540300  1
  C  1315  1  0.69174700  0.80290900  0.77147500  1
  C  1316  1  0.82185500  0.79933300  0.68037200  1
  C  1321  1  0.50203200  0.51131700  0.96395800  1
  C  1322  1  0.52681000  0.52880900  0.95942500  1
  C  1323  1  0.52824500  0.54944900  0.93700600  1
  C  1324  1  0.50323400  0.55417600  0.92022900  1
  C  1325  1  0.47779800  0.53799900  0.92451800  1
  C  1326  1  0.47752600  0.51607600  0.94592900  1
  C  1329  1  0.50181400  0.49024700  0.98689000  1
  C  1330  1  0.52517400  0.47081400  0.99192300  1
  C  1331  1  0.52465600  0.45110800  0.01550990  1
  C  1332  1  0.49988700  0.45026200  0.03335490  1
  C  1333  1  0.47634100  0.46891200  0.02865190  1
  C  1334  1  0.47800300  0.48928300  0.00612493  1
  C  1341  1  0.45254300  0.46817800  0.04658590  1
  C  1342  1  0.45423300  0.54355500  0.90695100  1
  C  1343  1  0.55358200  0.56457900  0.93129100  1
  C  1344  1  0.54792300  0.43304900  0.02165890  1
  C  1349  1  0.00144800  0.49216600  0.46395600  1
  C  1350  1  0.97669000  0.47463600  0.45949100  1
  C  1351  1  0.97523700  0.45399600  0.43707600  1
  C  1352  1  0.00021800  0.44929900  0.42025000  1
  C  1353  1  0.02563800  0.46551300  0.42448000  1
  C  1354  1  0.02592300  0.48744400  0.44587800  1
  C  1357  1  0.00168100  0.51325800  0.48685800  1
  C  1358  1  0.97832100  0.53269200  0.49187500  1
  C  1359  1  0.97889100  0.55248100  0.51538500  1
  C  1360  1  0.00371000  0.55342700  0.53315600  1
  C  1361  1  0.02723800  0.53475900  0.52847000  1
  C  1362  1  0.02553700  0.51429800  0.50603200  1
  C  1369  1  0.05111300  0.53571100  0.54624400  1
  C  1370  1  0.04917100  0.45998900  0.40686800  1
  C  1371  1  0.94990000  0.43886300  0.43138700  1
  C  1372  1  0.95563900  0.57054000  0.52153700  1
  C  1377  1  0.84003300  0.82786200  0.64028600  1
  C  1378  1  0.85804700  0.84863600  0.65339900  1
  C  1380  1  0.87096200  0.86872800  0.60751000  1
  C  1381  1  0.85309800  0.84838400  0.59306600  1
  C  1382  1  0.83777300  0.82810200  0.60994200  1
  C  1384  1  0.88692800  0.88914200  0.59139400  1
  C  1385  1  0.92040200  0.92850000  0.59050500  1
  C  1386  1  0.91968300  0.92982900  0.56004100  1
  C  1387  1  0.90186800  0.90990100  0.54547700  1
  C  1390  1  0.88521200  0.88936000  0.56074700  1
  C  1391  1  0.86729700  0.86912100  0.54656200  1
  C  1392  1  0.85134900  0.84880700  0.56259300  1
  C  1399  1  0.66366100  0.17593600  0.14022200  1
  C  1400  1  0.64537300  0.15535600  0.15325900  1
  C  1402  1  0.63285000  0.13506800  0.10734800  1
  C  1403  1  0.65100800  0.15521100  0.09298390  1
  C  1404  1  0.66626800  0.17549700  0.10991000  1
  C  1406  1  0.61693400  0.11466400  0.09117290  1
  C  1407  1  0.58316300  0.07556500  0.09012690  1
  C  1408  1  0.58424400  0.07404300  0.05968490  1
  C  1409  1  0.60238100  0.09374000  0.04521090  1
  C  1412  1  0.61900400  0.11424900  0.06055090  1
  C  1413  1  0.63721200  0.13428400  0.04644790  1
  C  1414  1  0.65310200  0.15459500  0.06253590  1
  C  1421  1  0.42286300  0.58061600  0.88991700  1
  C  1422  1  0.40473100  0.60171400  0.90217900  1
  C  1424  1  0.38324900  0.61238700  0.85644500  1
  C  1425  1  0.40124300  0.59170500  0.84263400  1
  C  1426  1  0.42096800  0.57592800  0.85983600  1
  C  1428  1  0.36370100  0.62912500  0.84006300  1
  C  1429  1  0.32769500  0.66613600  0.83848100  1
  C  1430  1  0.32495800  0.66369500  0.80820200  1
  C  1431  1  0.34260500  0.64327700  0.79407300  1
  C  1434  1  0.36207500  0.62558900  0.80963100  1
  C  1435  1  0.38002900  0.60498100  0.79600500  1
  C  1436  1  0.39938900  0.58814800  0.81236500  1
  C  1443  1  0.08053500  0.42293900  0.38977800  1
  C  1444  1  0.09852300  0.40168300  0.40197300  1
  C  1446  1  0.12021500  0.39132800  0.35626900  1
  C  1447  1  0.10239700  0.41221400  0.34253600  1
  C  1448  1  0.08264700  0.42793300  0.35976200  1
  C  1450  1  0.13976300  0.37463300  0.33984900  1
  C  1451  1  0.17553600  0.33740300  0.33813100  1
  C  1452  1  0.17843700  0.34009700  0.30789000  1
  C  1453  1  0.16100500  0.36075200  0.29384500  1
  C  1456  1  0.14156500  0.37842300  0.30945500  1
  C  1457  1  0.12379400  0.39923800  0.29591100  1
  C  1458  1  0.10442700  0.41602600  0.31231000  1
  C  1465  1  0.67174400  0.83015200  0.81172600  1
  C  1466  1  0.65553900  0.85242200  0.79872900  1
  C  1468  1  0.63961200  0.86982900  0.84478800  1
  C  1469  1  0.65575900  0.84800400  0.85910900  1
  C  1470  1  0.67176100  0.82838400  0.84209700  1
  C  1472  1  0.62228500  0.88905200  0.86097100  1
  C  1473  1  0.58780700  0.92757000  0.86190000  1
  C  1474  1  0.58491700  0.92547400  0.89214500  1
  C  1475  1  0.60156300  0.90460700  0.90670500  1
  C  1478  1  0.62070500  0.88632600  0.89151900  1
  C  1479  1  0.63729400  0.86494500  0.90562600  1
  C  1480  1  0.65478800  0.84600300  0.88955000  1
  C  1487  1  0.83166700  0.17347600  0.31186300  1
  C  1488  1  0.84789800  0.15122200  0.29887200  1
  C  1490  1  0.86384600  0.13383400  0.34493600  1
  C  1491  1  0.84766700  0.15563900  0.35925000  1
  C  1492  1  0.83163900  0.17523800  0.34223600  1
  C  1494  1  0.88117600  0.11462000  0.36113000  1
  C  1495  1  0.91564700  0.07609000  0.36210300  1
  C  1496  1  0.91850700  0.07816900  0.39235700  1
  C  1497  1  0.90184400  0.09904200  0.40688500  1
  C  1500  1  0.88271500  0.11732800  0.39168200  1
  C  1501  1  0.86610000  0.13869500  0.40577800  1
  C  1502  1  0.84861500  0.15763400  0.38969400  1
  C  1509  1  0.08517200  0.57242700  0.56061200  1
  C  1510  1  0.10787600  0.58883300  0.54875700  1
  C  1512  1  0.12079800  0.60794100  0.59495600  1
  C  1513  1  0.09807900  0.59220800  0.60830800  1
  C  1514  1  0.08046000  0.57450800  0.59070800  1
  C  1516  1  0.13855000  0.62637300  0.61156500  1
  C  1517  1  0.17718900  0.66063500  0.61356000  1
  C  1518  1  0.17299100  0.66506400  0.64340200  1
  C  1519  1  0.15078300  0.64944600  0.65715000  1
  C  1522  1  0.13347400  0.62961700  0.64165900  1
  C  1523  1  0.11101500  0.61371400  0.65487900  1
  C  1524  1  0.09355000  0.59507500  0.63836700  1
  C  1531  1  0.41863100  0.43125100  0.06083290  1
  C  1532  1  0.39597000  0.41482800  0.04891690  1
  C  1534  1  0.38296200  0.39566200  0.09507390  1
  C  1535  1  0.40562900  0.41141500  0.10848600  1
  C  1536  1  0.42325600  0.42916800  0.09094190  1
  C  1538  1  0.36519600  0.37719500  0.11163500  1
  C  1539  1  0.32656800  0.34290700  0.11354900  1
  C  1540  1  0.33073800  0.33843900  0.14338800  1
  C  1541  1  0.35290900  0.35407000  0.15718500  1
  C  1544  1  0.37021700  0.37393600  0.14173900  1
  C  1545  1  0.39262900  0.38985600  0.15501300  1
  C  1546  1  0.41010100  0.40853200  0.13855100  1
  C  1553  1  0.16548300  0.18168300  0.31207900  1
  C  1554  1  0.14463700  0.16378900  0.29891800  1
  C  1556  1  0.13144600  0.14304800  0.34437900  1
  C  1557  1  0.15228500  0.16024600  0.35889200  1
  C  1558  1  0.16912300  0.17950600  0.34223400  1
  C  1560  1  0.11337300  0.12433700  0.36026500  1
  C  1561  1  0.07408600  0.09095700  0.36070500  1
  C  1562  1  0.07524500  0.08835100  0.39098000  1
  C  1563  1  0.09658200  0.10426700  0.40587300  1
  C  1566  1  0.11591100  0.12252300  0.39080500  1
  C  1567  1  0.13702700  0.13935300  0.40504600  1
  C  1568  1  0.15505400  0.15806500  0.38922800  1
  C  1575  1  0.33806600  0.82161600  0.81222900  1
  C  1576  1  0.35891100  0.83951500  0.79907200  1
  C  1578  1  0.37204500  0.86028700  0.84453100  1
  C  1579  1  0.35120200  0.84309200  0.85904000  1
  C  1580  1  0.33438200  0.82382200  0.84237700  1
  C  1582  1  0.39009300  0.87902000  0.86041900  1
  C  1583  1  0.42934500  0.91243500  0.86085900  1
  C  1584  1  0.42814700  0.91507700  0.89113000  1
  C  1585  1  0.40684600  0.89911600  0.90602500  1
  C  1588  1  0.38752700  0.88085400  0.89095800  1
  C  1589  1  0.36640900  0.86402300  0.90519400  1
  C  1590  1  0.34840200  0.84529300  0.88936900  1
  C  1597  1  0.57581300  0.41413900  0.06191890  1
  C  1598  1  0.59643400  0.39584700  0.04893590  1
  C  1600  1  0.61610300  0.38258400  0.09494390  1
  C  1601  1  0.59591800  0.40074200  0.10925600  1
  C  1602  1  0.57594500  0.41636200  0.09226990  1
  C  1604  1  0.63619300  0.36631900  0.11120500  1
  C  1605  1  0.67508500  0.33227100  0.11245300  1
  C  1606  1  0.67619400  0.33297400  0.14292900  1
  C  1607  1  0.65638500  0.35107200  0.15730300  1
  C  1610  1  0.63622100  0.36803200  0.14185800  1
  C  1611  1  0.61616000  0.38625800  0.15589800  1
  C  1612  1  0.59618800  0.40249700  0.13973000  1
  C  1619  1  0.92770600  0.58928200  0.56183600  1
  C  1620  1  0.90723400  0.60778300  0.54891600  1
  C  1622  1  0.88743300  0.62074200  0.59494800  1
  C  1623  1  0.90745600  0.60235500  0.60919400  1
  C  1624  1  0.92742700  0.58678200  0.59216200  1
  C  1626  1  0.86737500  0.63699200  0.61126100  1
  C  1627  1  0.82873800  0.67132300  0.61263100  1
  C  1628  1  0.82750200  0.67036200  0.64309400  1
  C  1629  1  0.84710600  0.65199000  0.65740000  1
  C  1632  1  0.86721100  0.63501700  0.64189600  1
  C  1633  1  0.88710300  0.61655700  0.65586800  1
  C  1634  1  0.90705200  0.60034300  0.63965000  1
  C  1641  1  0.33503300  0.18062900  0.14012900  1
  C  1642  1  0.35536100  0.16218400  0.15331300  1
  C  1644  1  0.36988400  0.14300000  0.10756400  1
  C  1645  1  0.34952500  0.16075700  0.09303590  1
  C  1646  1  0.33232500  0.17956700  0.10982400  1
  C  1648  1  0.38847900  0.12490400  0.09156390  1
  C  1649  1  0.42771500  0.09145300  0.09108690  1
  C  1650  1  0.42760800  0.09009200  0.06070590  1
  C  1651  1  0.40669500  0.10655300  0.04578690  1
  C  1654  1  0.38689000  0.12423300  0.06091290  1
  C  1655  1  0.36615300  0.14150800  0.04665090  1
  C  1656  1  0.34765100  0.15965400  0.06257690  1
  C  1663  1  0.16858900  0.82282700  0.64008700  1
  C  1664  1  0.14829200  0.84128700  0.65329900  1
  C  1666  1  0.13364000  0.86041900  0.60756300  1
  C  1667  1  0.15397000  0.84265100  0.59300700  1
  C  1668  1  0.17122400  0.82386700  0.60977300  1
  C  1670  1  0.11500900  0.87850400  0.59158600  1
  C  1671  1  0.07578600  0.91197800  0.59115500  1
  C  1672  1  0.07585700  0.91335000  0.56077300  1
  C  1673  1  0.09670800  0.89683200  0.54583000  1
  C  1676  1  0.11653800  0.87915600  0.56093200  1
  C  1677  1  0.13724400  0.86186500  0.54664100  1
  C  1678  1  0.15577600  0.84373000  0.56254200  1
  C  1685  1  0.92265300  0.41886200  0.39105100  1
  C  1686  1  0.90062000  0.40223400  0.40391700  1
  C  1688  1  0.88330200  0.38657100  0.35771600  1
  C  1689  1  0.90483600  0.40322200  0.34353300  1
  C  1690  1  0.92429100  0.41928900  0.36067700  1
  C  1692  1  0.86430400  0.36913800  0.34136200  1
  C  1693  1  0.82629100  0.33409900  0.34004900  1
  C  1694  1  0.82828100  0.33165600  0.30975200  1
  C  1695  1  0.84891700  0.34876700  0.29539500  1
  C  1698  1  0.86696100  0.36798500  0.31078600  1
  C  1699  1  0.88803700  0.38508600  0.29683500  1
  C  1700  1  0.90675900  0.40266100  0.31307600  1
  C  1707  1  0.58076700  0.58469500  0.89096800  1
  C  1708  1  0.60283600  0.60126700  0.90384700  1
  C  1710  1  0.62014600  0.61699500  0.85765800  1
  C  1711  1  0.59857100  0.60040100  0.84346500  1
  C  1712  1  0.57911600  0.58431500  0.86059400  1
  C  1714  1  0.63914200  0.63444700  0.84132000  1
  C  1715  1  0.67720200  0.66944300  0.84003500  1
  C  1716  1  0.67514500  0.67198800  0.80975100  1
  C  1717  1  0.65447700  0.65492400  0.79538300  1
  C  1720  1  0.63644800  0.63567300  0.81075300  1
  C  1721  1  0.61533700  0.61862400  0.79678600  1
  C  1722  1  0.59661600  0.60103400  0.81301100  1
  N  227  1  0.87261600  0.86795100  0.16200600  1
  N  237  1  0.90435900  0.90859300  0.12996600  1
  N  245  1  0.82552900  0.80741400  0.17925100  1
  N  246  1  0.93536300  0.94768100  0.06901500  1
  N  249  1  0.63086900  0.13603400  0.66181700  1
  N  259  1  0.59919300  0.09543300  0.62965800  1
  N  267  1  0.67812600  0.19638600  0.67921800  1
  N  268  1  0.56857200  0.05627300  0.56857900  1
  N  271  1  0.38580400  0.61647000  0.41057200  1
  N  281  1  0.34661100  0.64916700  0.37818500  1
  N  289  1  0.44354500  0.56916300  0.43127200  1
  N  290  1  0.30785500  0.68012200  0.31706300  1
  N  293  1  0.11748500  0.38700200  0.91034400  1
  N  303  1  0.15665200  0.35436400  0.87788400  1
  N  311  1  0.05985700  0.43438500  0.93114200  1
  N  312  1  0.19542000  0.32362900  0.81668800  1
  N  315  1  0.64024700  0.87105700  0.34058200  1
  N  325  1  0.60586600  0.90943500  0.37277900  1
  N  333  1  0.68554000  0.80939100  0.32287700  1
  N  334  1  0.56404400  0.93840700  0.43192900  1
  N  337  1  0.86321800  0.13260700  0.84072800  1
  N  347  1  0.89761200  0.09423400  0.87296100  1
  N  355  1  0.81784300  0.19422300  0.82301200  1
  N  356  1  0.93926400  0.06509600  0.93219500  1
  N  359  1  0.12462200  0.60560900  0.09110600  1
  N  369  1  0.16002300  0.64194100  0.12409900  1
  N  377  1  0.06866900  0.55726700  0.06773100  1
  N  378  1  0.18578100  0.68604900  0.18322200  1
  N  381  1  0.37920400  0.39801400  0.59121500  1
  N  391  1  0.34375500  0.36161400  0.62412600  1
  N  399  1  0.43509700  0.44653400  0.56800700  1
  N  400  1  0.31798200  0.31738900  0.68314900  1
  N  403  1  0.12858600  0.14553700  0.84040900  1
  N  413  1  0.09273800  0.10855100  0.87180600  1
  N  421  1  0.18065100  0.20185900  0.82371800  1
  N  422  1  0.05490300  0.07255500  0.92864500  1
  N  425  1  0.37493900  0.85778300  0.34057000  1
  N  435  1  0.41072700  0.89480600  0.37196300  1
  N  443  1  0.32290800  0.80143700  0.32386800  1
  N  444  1  0.44850000  0.93085900  0.42878600  1
  N  447  1  0.61545200  0.38098000  0.59075800  1
  N  457  1  0.65551300  0.34859200  0.62313800  1
  N  465  1  0.55566300  0.42901700  0.57316300  1
  N  466  1  0.69369000  0.31703700  0.68444800  1
  N  469  1  0.88821800  0.62259800  0.09078100  1
  N  479  1  0.84824800  0.65497800  0.12326100  1
  N  487  1  0.94786900  0.57446200  0.07304600  1
  N  488  1  0.81015300  0.68636700  0.18468000  1
  N  491  1  0.37186600  0.14446100  0.66200300  1
  N  501  1  0.40865700  0.10856000  0.63037200  1
  N  509  1  0.32034600  0.20101400  0.67895300  1
  N  510  1  0.44790000  0.07411300  0.57345600  1
  N  513  1  0.13173500  0.85898300  0.16201000  1
  N  523  1  0.09486200  0.89486600  0.13041800  1
  N  531  1  0.18331500  0.80245400  0.17889800  1
  N  532  1  0.05556100  0.92935200  0.07354700  1
  N  535  1  0.88216200  0.38685300  0.91225600  1
  N  545  1  0.84419900  0.35223300  0.87969300  1
  N  553  1  0.94338800  0.43260800  0.93032200  1
  N  554  1  0.81540200  0.31092900  0.81999100  1
  N  557  1  0.62131200  0.61664300  0.41219900  1
  N  567  1  0.65928600  0.65130200  0.37966200  1
  N  575  1  0.56004900  0.57090500  0.43023000  1
  N  576  1  0.68795900  0.69279900  0.32005000  1
  N  803  1  0.87261600  0.86795100  0.39942500  1
  N  813  1  0.90435900  0.90859300  0.36738500  1
  N  821  1  0.82552900  0.80741400  0.41667000  1
  N  822  1  0.93536300  0.94768100  0.30643400  1
  N  825  1  0.63086900  0.13603400  0.89923600  1
  N  835  1  0.59919300  0.09543300  0.86707700  1
  N  843  1  0.67812600  0.19638600  0.91663700  1
  N  844  1  0.56857200  0.05627300  0.80599800  1
  N  847  1  0.38580400  0.61647000  0.64799100  1
  N  857  1  0.34661100  0.64916700  0.61560400  1
  N  865  1  0.44354500  0.56916300  0.66869100  1
  N  866  1  0.30785500  0.68012200  0.55448200  1
  N  869  1  0.11748500  0.38700200  0.14776300  1
  N  879  1  0.15665200  0.35436400  0.11530300  1
  N  887  1  0.05985700  0.43438500  0.16856100  1
  N  888  1  0.19542000  0.32362900  0.05410750  1
  N  891  1  0.64024700  0.87105700  0.57800100  1
  N  901  1  0.60586600  0.90943500  0.61019800  1
  N  909  1  0.68554000  0.80939100  0.56029600  1
  N  910  1  0.56404400  0.93840700  0.66934800  1
  N  913  1  0.86321800  0.13260700  0.07814750  1
  N  923  1  0.89761200  0.09423400  0.11038000  1
  N  931  1  0.81784300  0.19422300  0.06043150  1
  N  932  1  0.93926400  0.06509600  0.16961400  1
  N  935  1  0.12462200  0.60560900  0.32852500  1
  N  945  1  0.16002300  0.64194100  0.36151800  1
  N  953  1  0.06866900  0.55726700  0.30515000  1
  N  954  1  0.18578100  0.68604900  0.42064100  1
  N  957  1  0.37920400  0.39801400  0.82863400  1
  N  967  1  0.34375500  0.36161400  0.86154500  1
  N  975  1  0.43509700  0.44653400  0.80542600  1
  N  976  1  0.31798200  0.31738900  0.92056800  1
  N  979  1  0.12858600  0.14553700  0.07782850  1
  N  989  1  0.09273800  0.10855100  0.10922500  1
  N  997  1  0.18065100  0.20185900  0.06113750  1
  N  998  1  0.05490300  0.07255500  0.16606400  1
  N  1001  1  0.37493900  0.85778300  0.57798900  1
  N  1011  1  0.41072700  0.89480600  0.60938200  1
  N  1019  1  0.32290800  0.80143700  0.56128700  1
  N  1020  1  0.44850000  0.93085900  0.66620500  1
  N  1023  1  0.61545200  0.38098000  0.82817700  1
  N  1033  1  0.65551300  0.34859200  0.86055700  1
  N  1041  1  0.55566300  0.42901700  0.81058200  1
  N  1042  1  0.69369000  0.31703700  0.92186700  1
  N  1045  1  0.88821800  0.62259800  0.32820000  1
  N  1055  1  0.84824800  0.65497800  0.36068000  1
  N  1063  1  0.94786900  0.57446200  0.31046500  1
  N  1064  1  0.81015300  0.68636700  0.42209900  1
  N  1067  1  0.37186600  0.14446100  0.89942200  1
  N  1077  1  0.40865700  0.10856000  0.86779100  1
  N  1085  1  0.32034600  0.20101400  0.91637200  1
  N  1086  1  0.44790000  0.07411300  0.81087500  1
  N  1089  1  0.13173500  0.85898300  0.39942900  1
  N  1099  1  0.09486200  0.89486600  0.36783700  1
  N  1107  1  0.18331500  0.80245400  0.41631700  1
  N  1108  1  0.05556100  0.92935200  0.31096600  1
  N  1111  1  0.88216200  0.38685300  0.14967500  1
  N  1121  1  0.84419900  0.35223300  0.11711200  1
  N  1129  1  0.94338800  0.43260800  0.16774100  1
  N  1130  1  0.81540200  0.31092900  0.05741050  1
  N  1133  1  0.62131200  0.61664300  0.64961800  1
  N  1143  1  0.65928600  0.65130200  0.61708100  1
  N  1151  1  0.56004900  0.57090500  0.66764900  1
  N  1152  1  0.68795900  0.69279900  0.55746900  1
  N  1379  1  0.87261600  0.86795100  0.63684500  1
  N  1389  1  0.90435900  0.90859300  0.60480500  1
  N  1397  1  0.82552900  0.80741400  0.65409000  1
  N  1398  1  0.93536300  0.94768100  0.54385400  1
  N  1401  1  0.63086900  0.13603400  0.13665600  1
  N  1411  1  0.59919300  0.09543300  0.10449700  1
  N  1419  1  0.67812600  0.19638600  0.15405700  1
  N  1420  1  0.56857200  0.05627300  0.04341790  1
  N  1423  1  0.38580400  0.61647000  0.88541100  1
  N  1433  1  0.34661100  0.64916700  0.85302400  1
  N  1441  1  0.44354500  0.56916300  0.90611100  1
  N  1442  1  0.30785500  0.68012200  0.79190200  1
  N  1445  1  0.11748500  0.38700200  0.38518300  1
  N  1455  1  0.15665200  0.35436400  0.35272300  1
  N  1463  1  0.05985700  0.43438500  0.40598100  1
  N  1464  1  0.19542000  0.32362900  0.29152700  1
  N  1467  1  0.64024700  0.87105700  0.81542100  1
  N  1477  1  0.60586600  0.90943500  0.84761800  1
  N  1485  1  0.68554000  0.80939100  0.79771600  1
  N  1486  1  0.56404400  0.93840700  0.90676800  1
  N  1489  1  0.86321800  0.13260700  0.31556700  1
  N  1499  1  0.89761200  0.09423400  0.34780000  1
  N  1507  1  0.81784300  0.19422300  0.29785100  1
  N  1508  1  0.93926400  0.06509600  0.40703400  1
  N  1511  1  0.12462200  0.60560900  0.56594500  1
  N  1521  1  0.16002300  0.64194100  0.59893800  1
  N  1529  1  0.06866900  0.55726700  0.54257000  1
  N  1530  1  0.18578100  0.68604900  0.65806100  1
  N  1533  1  0.37920400  0.39801400  0.06605390  1
  N  1543  1  0.34375500  0.36161400  0.09896490  1
  N  1551  1  0.43509700  0.44653400  0.04284590  1
  N  1552  1  0.31798200  0.31738900  0.15798800  1
  N  1555  1  0.12858600  0.14553700  0.31524800  1
  N  1565  1  0.09273800  0.10855100  0.34664500  1
  N  1573  1  0.18065100  0.20185900  0.29855700  1
  N  1574  1  0.05490300  0.07255500  0.40348400  1
  N  1577  1  0.37493900  0.85778300  0.81540900  1
  N  1587  1  0.41072700  0.89480600  0.84680200  1
  N  1595  1  0.32290800  0.80143700  0.79870700  1
  N  1596  1  0.44850000  0.93085900  0.90362500  1
  N  1599  1  0.61545200  0.38098000  0.06559690  1
  N  1609  1  0.65551300  0.34859200  0.09797690  1
  N  1617  1  0.55566300  0.42901700  0.04800190  1
  N  1618  1  0.69369000  0.31703700  0.15928700  1
  N  1621  1  0.88821800  0.62259800  0.56562000  1
  N  1631  1  0.84824800  0.65497800  0.59810000  1
  N  1639  1  0.94786900  0.57446200  0.54788500  1
  N  1640  1  0.81015300  0.68636700  0.65951900  1
  N  1643  1  0.37186600  0.14446100  0.13684200  1
  N  1653  1  0.40865700  0.10856000  0.10521100  1
  N  1661  1  0.32034600  0.20101400  0.15379200  1
  N  1662  1  0.44790000  0.07411300  0.04829490  1
  N  1665  1  0.13173500  0.85898300  0.63684900  1
  N  1675  1  0.09486200  0.89486600  0.60525700  1
  N  1683  1  0.18331500  0.80245400  0.65373700  1
  N  1684  1  0.05556100  0.92935200  0.54838600  1
  N  1687  1  0.88216200  0.38685300  0.38709500  1
  N  1697  1  0.84419900  0.35223300  0.35453200  1
  N  1705  1  0.94338800  0.43260800  0.40516100  1
  N  1706  1  0.81540200  0.31092900  0.29483000  1
  N  1709  1  0.62131200  0.61664300  0.88703800  1
  N  1719  1  0.65928600  0.65130200  0.85450100  1
  N  1727  1  0.56004900  0.57090500  0.90506900  1
  N  1728  1  0.68795900  0.69279900  0.79488900  1
  O  17  1  0.95134200  0.99582100  0.97393300  1
  O  18  1  0.04550400  0.96986500  0.99771400  1
  O  45  1  0.55200000  0.00778900  0.47372700  1
  O  46  1  0.45780900  0.03343000  0.49776100  1
  O  73  1  0.25659600  0.69758400  0.22399700  1
  O  74  1  0.28324800  0.79207200  0.24839300  1
  O  101  1  0.24699400  0.30580900  0.72387700  1
  O  102  1  0.22056500  0.21119600  0.74833500  1
  O  129  1  0.74526600  0.30004000  0.77880000  1
  O  130  1  0.71779400  0.20607700  0.75474300  1
  O  157  1  0.75828700  0.70371300  0.27880800  1
  O  158  1  0.78548500  0.79780700  0.25468200  1
  O  185  1  0.45409700  0.49826100  0.47314700  1
  O  186  1  0.54767300  0.47001100  0.49802600  1
  O  213  1  0.04932500  0.50530600  0.97303100  1
  O  214  1  0.95577500  0.53342300  0.99803100  1
  O  243  1  0.86517200  0.86871100  0.04255500  1
  O  244  1  0.83454400  0.82968200  0.07335200  1
  O  265  1  0.63966000  0.13451400  0.54246500  1
  O  266  1  0.67018300  0.17353300  0.57337400  1
  O  287  1  0.37919300  0.60116500  0.29218300  1
  O  288  1  0.41640600  0.56885500  0.32361300  1
  O  309  1  0.12479600  0.40329400  0.79212600  1
  O  310  1  0.08757800  0.43551800  0.82363400  1
  O  331  1  0.63636200  0.86186900  0.45986000  1
  O  332  1  0.66994600  0.82545600  0.42898500  1
  O  353  1  0.86700200  0.14176300  0.96001400  1
  O  354  1  0.83342400  0.17816100  0.92912200  1
  O  375  1  0.10566900  0.61621600  0.20868600  1
  O  376  1  0.07212500  0.58039600  0.17697600  1
  O  397  1  0.39792100  0.38734300  0.70883100  1
  O  398  1  0.43147300  0.42323700  0.67721700  1
  O  419  1  0.14003900  0.13822300  0.95927800  1
  O  420  1  0.17467600  0.17418600  0.92889300  1
  O  441  1  0.36337700  0.86516500  0.45942200  1
  O  442  1  0.32877400  0.82917400  0.42903000  1
  O  463  1  0.61559400  0.38841600  0.71022100  1
  O  464  1  0.57722900  0.41959100  0.67917300  1
  O  485  1  0.88754100  0.61416300  0.21017600  1
  O  486  1  0.92586000  0.58303100  0.17902800  1
  O  507  1  0.36399200  0.14140000  0.54264600  1
  O  508  1  0.32844400  0.17627200  0.57323600  1
  O  529  1  0.13934400  0.86194900  0.04263100  1
  O  530  1  0.17495600  0.82710500  0.07317300  1
  O  551  1  0.89103700  0.38458100  0.79290500  1
  O  552  1  0.92702100  0.41831600  0.82409800  1
  O  573  1  0.61230300  0.61920100  0.29286100  1
  O  574  1  0.57632500  0.58542700  0.32401900  1
  O  593  1  0.95134200  0.99582100  0.21135200  1
  O  594  1  0.04550400  0.96986500  0.23513300  1
  O  621  1  0.55200000  0.00778900  0.71114600  1
  O  622  1  0.45780900  0.03343000  0.73518000  1
  O  649  1  0.25659600  0.69758400  0.46141600  1
  O  650  1  0.28324800  0.79207200  0.48581200  1
  O  677  1  0.24699400  0.30580900  0.96129600  1
  O  678  1  0.22056500  0.21119600  0.98575400  1
  O  705  1  0.74526600  0.30004000  0.01621950  1
  O  706  1  0.71779400  0.20607700  0.99216200  1
  O  733  1  0.75828700  0.70371300  0.51622700  1
  O  734  1  0.78548500  0.79780700  0.49210100  1
  O  761  1  0.45409700  0.49826100  0.71056600  1
  O  762  1  0.54767300  0.47001100  0.73544500  1
  O  789  1  0.04932500  0.50530600  0.21045000  1
  O  790  1  0.95577500  0.53342300  0.23545000  1
  O  819  1  0.86517200  0.86871100  0.27997400  1
  O  820  1  0.83454400  0.82968200  0.31077100  1
  O  841  1  0.63966000  0.13451400  0.77988400  1
  O  842  1  0.67018300  0.17353300  0.81079300  1
  O  863  1  0.37919300  0.60116500  0.52960200  1
  O  864  1  0.41640600  0.56885500  0.56103200  1
  O  885  1  0.12479600  0.40329400  0.02954550  1
  O  886  1  0.08757800  0.43551800  0.06105350  1
  O  907  1  0.63636200  0.86186900  0.69727900  1
  O  908  1  0.66994600  0.82545600  0.66640400  1
  O  929  1  0.86700200  0.14176300  0.19743300  1
  O  930  1  0.83342400  0.17816100  0.16654100  1
  O  951  1  0.10566900  0.61621600  0.44610500  1
  O  952  1  0.07212500  0.58039600  0.41439500  1
  O  973  1  0.39792100  0.38734300  0.94625000  1
  O  974  1  0.43147300  0.42323700  0.91463600  1
  O  995  1  0.14003900  0.13822300  0.19669700  1
  O  996  1  0.17467600  0.17418600  0.16631200  1
  O  1017  1  0.36337700  0.86516500  0.69684100  1
  O  1018  1  0.32877400  0.82917400  0.66644900  1
  O  1039  1  0.61559400  0.38841600  0.94764000  1
  O  1040  1  0.57722900  0.41959100  0.91659200  1
  O  1061  1  0.88754100  0.61416300  0.44759500  1
  O  1062  1  0.92586000  0.58303100  0.41644700  1
  O  1083  1  0.36399200  0.14140000  0.78006500  1
  O  1084  1  0.32844400  0.17627200  0.81065500  1
  O  1105  1  0.13934400  0.86194900  0.28005000  1
  O  1106  1  0.17495600  0.82710500  0.31059200  1
  O  1127  1  0.89103700  0.38458100  0.03032450  1
  O  1128  1  0.92702100  0.41831600  0.06151750  1
  O  1149  1  0.61230300  0.61920100  0.53028000  1
  O  1150  1  0.57632500  0.58542700  0.56143800  1
  O  1169  1  0.95134200  0.99582100  0.44877200  1
  O  1170  1  0.04550400  0.96986500  0.47255300  1
  O  1197  1  0.55200000  0.00778900  0.94856600  1
  O  1198  1  0.45780900  0.03343000  0.97260000  1
  O  1225  1  0.25659600  0.69758400  0.69883600  1
  O  1226  1  0.28324800  0.79207200  0.72323200  1
  O  1253  1  0.24699400  0.30580900  0.19871600  1
  O  1254  1  0.22056500  0.21119600  0.22317400  1
  O  1281  1  0.74526600  0.30004000  0.25363900  1
  O  1282  1  0.71779400  0.20607700  0.22958200  1
  O  1309  1  0.75828700  0.70371300  0.75364700  1
  O  1310  1  0.78548500  0.79780700  0.72952100  1
  O  1337  1  0.45409700  0.49826100  0.94798600  1
  O  1338  1  0.54767300  0.47001100  0.97286500  1
  O  1365  1  0.04932500  0.50530600  0.44787000  1
  O  1366  1  0.95577500  0.53342300  0.47287000  1
  O  1395  1  0.86517200  0.86871100  0.51739400  1
  O  1396  1  0.83454400  0.82968200  0.54819100  1
  O  1417  1  0.63966000  0.13451400  0.01730390  1
  O  1418  1  0.67018300  0.17353300  0.04821290  1
  O  1439  1  0.37919300  0.60116500  0.76702200  1
  O  1440  1  0.41640600  0.56885500  0.79845200  1
  O  1461  1  0.12479600  0.40329400  0.26696500  1
  O  1462  1  0.08757800  0.43551800  0.29847300  1
  O  1483  1  0.63636200  0.86186900  0.93469900  1
  O  1484  1  0.66994600  0.82545600  0.90382400  1
  O  1505  1  0.86700200  0.14176300  0.43485300  1
  O  1506  1  0.83342400  0.17816100  0.40396100  1
  O  1527  1  0.10566900  0.61621600  0.68352500  1
  O  1528  1  0.07212500  0.58039600  0.65181500  1
  O  1549  1  0.39792100  0.38734300  0.18367000  1
  O  1550  1  0.43147300  0.42323700  0.15205600  1
  O  1571  1  0.14003900  0.13822300  0.43411700  1
  O  1572  1  0.17467600  0.17418600  0.40373200  1
  O  1593  1  0.36337700  0.86516500  0.93426100  1
  O  1594  1  0.32877400  0.82917400  0.90386900  1
  O  1615  1  0.61559400  0.38841600  0.18506000  1
  O  1616  1  0.57722900  0.41959100  0.15401200  1
  O  1637  1  0.88754100  0.61416300  0.68501500  1
  O  1638  1  0.92586000  0.58303100  0.65386700  1
  O  1659  1  0.36399200  0.14140000  0.01748490  1
  O  1660  1  0.32844400  0.17627200  0.04807490  1
  O  1681  1  0.13934400  0.86194900  0.51747000  1
  O  1682  1  0.17495600  0.82710500  0.54801200  1
  O  1703  1  0.89103700  0.38458100  0.26774400  1
  O  1704  1  0.92702100  0.41831600  0.29893700  1
  O  1725  1  0.61230300  0.61920100  0.76770000  1
  O  1726  1  0.57632500  0.58542700  0.79885800  1
