# generated using pymatgen
data_H28C39(N4O)2
_symmetry_space_group_name_H-M   'P 1'
_cell_length_a   54.31620000
_cell_length_b   63.73730000
_cell_length_c   63.73810000
_cell_angle_alpha   90.00000000
_cell_angle_beta   90.00030000
_cell_angle_gamma   90.00000000
_symmetry_Int_Tables_number   1
_chemical_formula_structural   H28C39(N4O)2
_chemical_formula_sum   'H448 C624 N128 O32'
_cell_volume   220659.25838763
_cell_formula_units_Z   16
loop_
 _symmetry_equiv_pos_site_id
 _symmetry_equiv_pos_as_xyz
  1  'x, y, z'
loop_
 _atom_site_type_symbol
 _atom_site_label
 _atom_site_symmetry_multiplicity
 _atom_site_fract_x
 _atom_site_fract_y
 _atom_site_fract_z
 _atom_site_occupancy
  H  26  1  0.95387800  0.19185500  0.40467900  1
  H  27  1  0.92103900  0.18534500  0.38109200  1
  H  28  1  0.92393500  0.14821400  0.44725600  1
  H  29  1  0.89098200  0.14184200  0.42359800  1
  H  30  1  0.84280800  0.15317500  0.41023600  1
  H  31  1  0.80805400  0.17559600  0.41359500  1
  H  32  1  0.84152900  0.21952600  0.37331700  1
  H  33  1  0.87598800  0.19686900  0.36960400  1
  H  34  1  0.85305000  0.16037700  0.34805800  1
  H  35  1  0.86187200  0.15961500  0.31180300  1
  H  36  1  0.93698300  0.14995100  0.32549200  1
  H  37  1  0.92799300  0.15040800  0.36178500  1
  H  38  1  0.91366900  0.12148900  0.38773600  1
  H  39  1  0.83888300  0.13413400  0.37585900  1
  H  40  1  0.83060400  0.09778600  0.37506400  1
  H  41  1  0.90558000  0.08509600  0.38659900  1
  H  44  1  0.78320000  0.20336600  0.39308500  1
  H  45  1  0.97415900  0.18617800  0.43802000  1
  H  47  1  0.92313200  0.14937200  0.28925800  1
  H  49  1  0.84513900  0.06181200  0.37459300  1
  H  75  1  0.45422200  0.32619400  0.56599800  1
  H  76  1  0.42137600  0.33271400  0.58955300  1
  H  77  1  0.42370800  0.36908400  0.52295100  1
  H  78  1  0.39073300  0.37547900  0.54660100  1
  H  79  1  0.34236400  0.36482100  0.56055500  1
  H  80  1  0.30761400  0.34237700  0.55738900  1
  H  81  1  0.34188700  0.29806400  0.59675000  1
  H  82  1  0.37633900  0.32076500  0.60031600  1
  H  83  1  0.35308600  0.35691500  0.62230100  1
  H  84  1  0.36188700  0.35772500  0.65854800  1
  H  85  1  0.43680900  0.36842500  0.64488900  1
  H  86  1  0.42782700  0.36790500  0.60859700  1
  H  87  1  0.41363000  0.39627700  0.58208100  1
  H  88  1  0.33910200  0.38367800  0.59505800  1
  H  89  1  0.33085200  0.42002600  0.59591700  1
  H  90  1  0.40558500  0.43266500  0.58325900  1
  H  93  1  0.28322500  0.31438100  0.57827200  1
  H  94  1  0.47439500  0.33165200  0.53262500  1
  H  96  1  0.42300500  0.36859100  0.68112700  1
  H  98  1  0.34534100  0.45599800  0.59596100  1
  H  124  1  0.20013800  0.83674200  0.92184000  1
  H  125  1  0.16748400  0.86051500  0.91474100  1
  H  126  1  0.17778300  0.79913500  0.87094800  1
  H  127  1  0.14519700  0.82267000  0.86411200  1
  H  128  1  0.09973000  0.82911700  0.88314700  1
  H  129  1  0.06656400  0.82226400  0.90641100  1
  H  130  1  0.08807200  0.87349800  0.94391300  1
  H  131  1  0.12120800  0.88010900  0.92083300  1
  H  132  1  0.10364300  0.89622100  0.88083600  1
  H  133  1  0.11246300  0.93257000  0.88039400  1
  H  134  1  0.18839500  0.91895800  0.88284600  1
  H  135  1  0.17952400  0.88265900  0.88286700  1
  H  136  1  0.16418800  0.86278500  0.84798600  1
  H  137  1  0.08803300  0.86044400  0.86043700  1
  H  138  1  0.08002000  0.85836100  0.82399300  1
  H  139  1  0.15620600  0.86127600  0.81153400  1
  H  142  1  0.04221800  0.83116600  0.93709100  1
  H  143  1  0.22261100  0.80447400  0.91409500  1
  H  145  1  0.17446900  0.95501500  0.87733300  1
  H  147  1  0.09592500  0.85152200  0.78817100  1
  H  173  1  0.70007700  0.68107700  0.04848100  1
  H  174  1  0.66742000  0.65730900  0.05559000  1
  H  175  1  0.67789000  0.71857800  0.09950500  1
  H  176  1  0.64530300  0.69505100  0.10634700  1
  H  177  1  0.59983100  0.68870800  0.08717500  1
  H  178  1  0.56667700  0.69558200  0.06390500  1
  H  179  1  0.58800900  0.64421300  0.02651700  1
  H  180  1  0.62113700  0.63758600  0.04959600  1
  H  181  1  0.60366400  0.62154300  0.08962500  1
  H  182  1  0.61249200  0.58519100  0.09003000  1
  H  183  1  0.68841400  0.59881300  0.08738300  1
  H  184  1  0.67954000  0.63511200  0.08740500  1
  H  185  1  0.66418900  0.65489100  0.12240100  1
  H  186  1  0.58804400  0.65745600  0.10993600  1
  H  187  1  0.58003200  0.65956700  0.14637800  1
  H  188  1  0.65620300  0.65642100  0.15885300  1
  H  191  1  0.54228400  0.68665600  0.03325500  1
  H  192  1  0.72266200  0.71326400  0.05630400  1
  H  194  1  0.67450800  0.56275400  0.09294700  1
  H  196  1  0.59594600  0.66631800  0.18220900  1
  H  222  1  0.55826100  0.33028500  0.40195400  1
  H  223  1  0.59300200  0.33378600  0.37955600  1
  H  224  1  0.59144500  0.37076200  0.44586600  1
  H  225  1  0.62591100  0.37458400  0.42324600  1
  H  226  1  0.67111000  0.36313900  0.41172500  1
  H  227  1  0.70397300  0.33959400  0.41826900  1
  H  228  1  0.67404800  0.29689200  0.37473800  1
  H  229  1  0.64107400  0.32051900  0.36832100  1
  H  230  1  0.66374400  0.35634900  0.34788300  1
  H  231  1  0.65563900  0.35743400  0.31149200  1
  H  232  1  0.58068000  0.36903300  0.32418900  1
  H  233  1  0.58897400  0.36828400  0.36053400  1
  H  234  1  0.60308200  0.39608800  0.38680100  1
  H  235  1  0.67800500  0.38238500  0.37672900  1
  H  236  1  0.68697200  0.41867900  0.37621600  1
  H  237  1  0.61188200  0.43234800  0.38599300  1
  H  240  1  0.72449200  0.30644700  0.41247700  1
  H  241  1  0.53321200  0.35010700  0.42974500  1
  H  243  1  0.59515600  0.36933300  0.28820200  1
  H  245  1  0.67306500  0.45490000  0.37550500  1
  H  271  1  0.05916800  0.18876100  0.56805600  1
  H  272  1  0.09374700  0.18465800  0.59050100  1
  H  273  1  0.09091800  0.14688200  0.52468200  1
  H  274  1  0.12527900  0.14258500  0.54730400  1
  H  275  1  0.17063900  0.15486400  0.55824300  1
  H  276  1  0.20352900  0.17837700  0.55162200  1
  H  277  1  0.17443900  0.22066500  0.59596300  1
  H  278  1  0.14146500  0.19708400  0.60245300  1
  H  279  1  0.16378000  0.16082900  0.62245600  1
  H  280  1  0.15565100  0.15977500  0.65885200  1
  H  281  1  0.08043800  0.14945800  0.64611800  1
  H  282  1  0.08874400  0.15018500  0.60976600  1
  H  283  1  0.10304100  0.12168500  0.58413100  1
  H  284  1  0.17816600  0.13539700  0.59304800  1
  H  285  1  0.18713200  0.09910200  0.59353100  1
  H  286  1  0.11185100  0.08541700  0.58491100  1
  H  289  1  0.22451000  0.21123700  0.55779800  1
  H  290  1  0.03353300  0.17153800  0.54008700  1
  H  292  1  0.09498600  0.14862100  0.68210400  1
  H  294  1  0.17316100  0.06289100  0.59475300  1
  H  320  1  0.31602400  0.67966000  0.92187500  1
  H  321  1  0.34914300  0.65635300  0.91490300  1
  H  322  1  0.33835200  0.71793000  0.87146500  1
  H  323  1  0.37142200  0.69482100  0.86474300  1
  H  324  1  0.41707300  0.68838000  0.88395800  1
  H  325  1  0.44976100  0.69532400  0.90771500  1
  H  326  1  0.42786200  0.64387300  0.94474500  1
  H  327  1  0.39523200  0.63717200  0.92119300  1
  H  328  1  0.41354200  0.62135800  0.88121900  1
  H  329  1  0.40500800  0.58495400  0.88060700  1
  H  330  1  0.32894800  0.59813000  0.88257600  1
  H  331  1  0.33753500  0.63447500  0.88275900  1
  H  332  1  0.35292400  0.65474400  0.84821500  1
  H  333  1  0.42898300  0.65734300  0.86104900  1
  H  334  1  0.43722300  0.65956500  0.82464400  1
  H  335  1  0.36113400  0.65640700  0.81181400  1
  H  338  1  0.47234700  0.68735300  0.93982500  1
  H  339  1  0.29206400  0.71071600  0.91334800  1
  H  341  1  0.34319400  0.56217000  0.87709700  1
  H  343  1  0.42153000  0.66632600  0.78873300  1
  H  369  1  0.81598700  0.83813200  0.04855000  1
  H  370  1  0.84911000  0.86143900  0.05551000  1
  H  371  1  0.83839100  0.79983100  0.09891300  1
  H  372  1  0.87146300  0.82294300  0.10562200  1
  H  373  1  0.91710100  0.82941500  0.08645400  1
  H  374  1  0.94979800  0.82247900  0.06270600  1
  H  375  1  0.92785100  0.87388500  0.02563400  1
  H  376  1  0.89521200  0.88058200  0.04917700  1
  H  377  1  0.91355300  0.89640900  0.08913300  1
  H  378  1  0.90503500  0.93281600  0.08974100  1
  H  379  1  0.82896700  0.91966200  0.08784900  1
  H  380  1  0.83753900  0.88331300  0.08766800  1
  H  381  1  0.85292500  0.86301900  0.12217400  1
  H  382  1  0.92898500  0.86046900  0.10933800  1
  H  383  1  0.93722900  0.85824800  0.14574400  1
  H  384  1  0.86113800  0.86135600  0.15857500  1
  H  387  1  0.97241400  0.83046300  0.03062000  1
  H  388  1  0.79204100  0.80706900  0.05708200  1
  H  390  1  0.84323300  0.95562100  0.09329600  1
  H  392  1  0.92154300  0.85146700  0.18165200  1
  H  418  1  0.06773600  0.82233000  0.56300900  1
  H  419  1  0.10037000  0.82946100  0.58679400  1
  H  420  1  0.08994900  0.87332100  0.52547600  1
  H  421  1  0.12252000  0.88018500  0.54901900  1
  H  422  1  0.16806800  0.86108000  0.55544900  1
  H  423  1  0.20122000  0.83779300  0.54860200  1
  H  424  1  0.17971400  0.80034100  0.59986800  1
  H  425  1  0.14659600  0.82344100  0.60647200  1
  H  426  1  0.16412900  0.86349300  0.62254800  1
  H  427  1  0.15530400  0.86389400  0.65890200  1
  H  428  1  0.07938300  0.86123000  0.64528500  1
  H  429  1  0.08825300  0.86125100  0.60898300  1
  H  430  1  0.10354600  0.89623200  0.58916900  1
  H  431  1  0.17971600  0.88388600  0.58666400  1
  H  432  1  0.18765100  0.92034500  0.58459000  1
  H  433  1  0.11145100  0.93269400  0.58766900  1
  H  436  1  0.22552200  0.80707500  0.55749000  1
  H  437  1  0.04527500  0.83004900  0.53072700  1
  H  439  1  0.09331500  0.86689600  0.68133700  1
  H  441  1  0.17175500  0.95618100  0.57802700  1
  H  467  1  0.56764700  0.69538700  0.40729700  1
  H  468  1  0.60028400  0.68826300  0.38351900  1
  H  469  1  0.59004000  0.64455000  0.44496100  1
  H  470  1  0.62261200  0.63768800  0.42141500  1
  H  471  1  0.66816600  0.65662500  0.41486300  1
  H  472  1  0.70132000  0.67991400  0.42169100  1
  H  473  1  0.67960100  0.71749500  0.37058400  1
  H  474  1  0.64648500  0.69438500  0.36399600  1
  H  475  1  0.66413900  0.65436600  0.34783400  1
  H  476  1  0.65532400  0.65394500  0.31148100  1
  H  477  1  0.57939300  0.65639100  0.32508600  1
  H  478  1  0.58825800  0.65639400  0.36138800  1
  H  479  1  0.60351300  0.62155000  0.38131500  1
  H  480  1  0.67969600  0.63387200  0.38357900  1
  H  481  1  0.68762600  0.59741100  0.38563300  1
  H  482  1  0.61140900  0.58508700  0.38279700  1
  H  485  1  0.72555800  0.71068300  0.41283500  1
  H  486  1  0.54519700  0.68768500  0.43958400  1
  H  488  1  0.59335000  0.65079500  0.28903400  1
  H  490  1  0.67173800  0.56158200  0.39226600  1
  H  516  1  0.81898300  0.18186700  0.04784000  1
  H  517  1  0.85161200  0.15813200  0.05512500  1
  H  518  1  0.83880200  0.21792900  0.10057100  1
  H  519  1  0.87135400  0.19449500  0.10756900  1
  H  520  1  0.91722100  0.18943500  0.08703300  1
  H  521  1  0.95026100  0.19666200  0.06372400  1
  H  522  1  0.93060300  0.14426300  0.02711300  1
  H  523  1  0.89761100  0.13732100  0.05014800  1
  H  524  1  0.91455500  0.12197200  0.09110800  1
  H  525  1  0.90651300  0.08552600  0.08929600  1
  H  526  1  0.83067500  0.09823400  0.08286900  1
  H  527  1  0.83870400  0.13464300  0.08525400  1
  H  528  1  0.85382500  0.15350600  0.12255100  1
  H  529  1  0.92981000  0.15904500  0.11034900  1
  H  530  1  0.93756400  0.16122600  0.14681100  1
  H  531  1  0.86158900  0.15510400  0.15905000  1
  H  534  1  0.97510800  0.18768000  0.03328200  1
  H  535  1  0.79565300  0.21359100  0.05607500  1
  H  537  1  0.84661900  0.06233600  0.07719000  1
  H  539  1  0.92145000  0.16671700  0.18264800  1
  H  565  1  0.31899900  0.33588800  0.92254700  1
  H  566  1  0.35163000  0.35962300  0.91525800  1
  H  567  1  0.33874800  0.29987100  0.86976500  1
  H  568  1  0.37130000  0.32330400  0.86276300  1
  H  569  1  0.41718000  0.32832100  0.88334900  1
  H  570  1  0.45020900  0.32108800  0.90666500  1
  H  571  1  0.43061600  0.37353300  0.94323100  1
  H  572  1  0.39763100  0.38048400  0.92019400  1
  H  573  1  0.41453400  0.39580900  0.87922300  1
  H  574  1  0.40649200  0.43225400  0.88105300  1
  H  575  1  0.33066600  0.41954200  0.88756600  1
  H  576  1  0.33869300  0.38313500  0.88516100  1
  H  577  1  0.35381000  0.36431100  0.84781300  1
  H  578  1  0.42978700  0.35867100  0.86001200  1
  H  579  1  0.43753500  0.35648000  0.82354900  1
  H  580  1  0.36156800  0.36270400  0.81131200  1
  H  583  1  0.47505400  0.33006400  0.93711400  1
  H  584  1  0.29561000  0.30421100  0.91427400  1
  H  586  1  0.34661300  0.45544100  0.89322100  1
  H  588  1  0.42141600  0.35104200  0.78770700  1
  H  614  1  0.45184900  0.69556800  0.56448200  1
  H  615  1  0.41871900  0.68862800  0.58778700  1
  H  616  1  0.42937100  0.64525600  0.52614700  1
  H  617  1  0.39629100  0.63856600  0.54925700  1
  H  618  1  0.35060500  0.65764600  0.55580600  1
  H  619  1  0.31789800  0.68139200  0.54888800  1
  H  620  1  0.33997600  0.71853500  0.60019800  1
  H  621  1  0.37262400  0.69499200  0.60687400  1
  H  622  1  0.35423300  0.65500900  0.62275200  1
  H  623  1  0.36275400  0.65437200  0.65916200  1
  H  624  1  0.43881600  0.65626100  0.64600800  1
  H  625  1  0.43024800  0.65647300  0.60966100  1
  H  626  1  0.41496700  0.62203800  0.58934300  1
  H  627  1  0.33887000  0.63471100  0.58683700  1
  H  628  1  0.33073000  0.59828200  0.58466400  1
  H  629  1  0.40686600  0.58562700  0.58772400  1
  H  632  1  0.29535400  0.71353500  0.55682700  1
  H  633  1  0.47575900  0.68705600  0.53340100  1
  H  635  1  0.42450700  0.65060800  0.68194300  1
  H  637  1  0.34642900  0.56235800  0.57815200  1
  H  663  1  0.95170600  0.82213100  0.40597600  1
  H  664  1  0.91859200  0.82909500  0.38266400  1
  H  665  1  0.92941600  0.87258900  0.44419500  1
  H  666  1  0.89634500  0.87930000  0.42108500  1
  H  667  1  0.85064600  0.86009400  0.41462700  1
  H  668  1  0.81793200  0.83635900  0.42155400  1
  H  669  1  0.83984800  0.79930600  0.37012600  1
  H  670  1  0.87250300  0.82283400  0.36344600  1
  H  671  1  0.85422800  0.86285900  0.34762500  1
  H  672  1  0.86276500  0.86347400  0.31121800  1
  H  673  1  0.93881600  0.86137500  0.32439700  1
  H  674  1  0.93023000  0.86119000  0.36074100  1
  H  675  1  0.91491700  0.89574900  0.38096000  1
  H  676  1  0.83882800  0.88307000  0.38363500  1
  H  677  1  0.83069200  0.91949800  0.38581500  1
  H  678  1  0.90681500  0.93216100  0.38258500  1
  H  681  1  0.79526600  0.80430000  0.41354100  1
  H  682  1  0.97567100  0.83067000  0.43702400  1
  H  684  1  0.92454100  0.86707300  0.28845300  1
  H  686  1  0.84640900  0.95542000  0.39230000  1
  H  712  1  0.70007900  0.33714900  0.04737500  1
  H  713  1  0.66701700  0.36043600  0.05459200  1
  H  714  1  0.68054500  0.30060600  0.09985600  1
  H  715  1  0.64752600  0.32361600  0.10679000  1
  H  716  1  0.60138100  0.32866000  0.08598500  1
  H  717  1  0.56874400  0.32142400  0.06223400  1
  H  718  1  0.58872700  0.37409600  0.02615400  1
  H  719  1  0.62127900  0.38104400  0.04959900  1
  H  720  1  0.60381300  0.39606900  0.09061000  1
  H  721  1  0.61168500  0.43255500  0.08895800  1
  H  722  1  0.68761300  0.42013900  0.08272900  1
  H  723  1  0.67975500  0.38369800  0.08496900  1
  H  724  1  0.66454100  0.36455900  0.12204600  1
  H  725  1  0.58864600  0.35874400  0.10954700  1
  H  726  1  0.58072600  0.35644600  0.14598300  1
  H  727  1  0.65661300  0.36282800  0.15850200  1
  H  730  1  0.54548600  0.32966600  0.03046900  1
  H  731  1  0.72500900  0.30677200  0.05641100  1
  H  733  1  0.67150600  0.45597600  0.07704200  1
  H  735  1  0.59668400  0.35105800  0.18189700  1
  H  761  1  0.20009100  0.18061500  0.92296200  1
  H  762  1  0.16702700  0.15732700  0.91574800  1
  H  763  1  0.18052300  0.21717100  0.87050100  1
  H  764  1  0.14750500  0.19415900  0.86357000  1
  H  765  1  0.10135500  0.18909300  0.88434900  1
  H  766  1  0.06871500  0.19632500  0.90809500  1
  H  767  1  0.08873800  0.14368400  0.94420600  1
  H  768  1  0.12129300  0.13673700  0.92076400  1
  H  769  1  0.10380100  0.12170500  0.87976300  1
  H  770  1  0.11166800  0.08521800  0.88142000  1
  H  771  1  0.18760300  0.09762300  0.88760000  1
  H  772  1  0.17975200  0.13406400  0.88535800  1
  H  773  1  0.16453200  0.15321100  0.84830000  1
  H  774  1  0.08863900  0.15900900  0.86080700  1
  H  775  1  0.08071200  0.16130600  0.82437200  1
  H  776  1  0.15659800  0.15493800  0.81184500  1
  H  779  1  0.04543300  0.18807200  0.93984000  1
  H  780  1  0.22501600  0.21099600  0.91392200  1
  H  782  1  0.17149000  0.06179000  0.89330800  1
  H  784  1  0.09666500  0.16670900  0.78845800  1
  H  791  1  0.72729700  0.25280300  0.36657800  1
  H  794  1  0.79030400  0.28048100  0.43292800  1
  H  795  1  0.81263100  0.26813800  0.41718700  1
  H  796  1  0.78063000  0.24806500  0.44679000  1
  H  805  1  0.22710000  0.26512600  0.60341200  1
  H  808  1  0.29061200  0.23698800  0.53760900  1
  H  809  1  0.31282000  0.24939700  0.55341900  1
  H  810  1  0.28113400  0.26933700  0.52348400  1
  H  819  1  0.98061800  0.88333400  0.98424500  1
  H  822  1  0.03739700  0.80998600  0.00099800  1
  H  823  1  0.05983900  0.82453400  0.98749800  1
  H  824  1  0.02264700  0.79836800  0.96918700  1
  H  833  1  0.48077800  0.63434000  0.98600900  1
  H  836  1  0.53720100  0.70794500  0.96953900  1
  H  837  1  0.55969000  0.69347900  0.98307200  1
  H  838  1  0.52225900  0.71944400  0.00132600  1
  H  847  1  0.28703800  0.75981600  0.60977200  1
  H  850  1  0.23052100  0.74331700  0.53622800  1
  H  851  1  0.20804900  0.75686000  0.55070100  1
  H  852  1  0.24546500  0.77509700  0.52471200  1
  H  861  1  0.78711000  0.75788700  0.36069200  1
  H  864  1  0.73033900  0.77456700  0.43406200  1
  H  865  1  0.70789200  0.76106400  0.41952100  1
  H  866  1  0.74513700  0.74275500  0.44563500  1
  H  875  1  0.03670600  0.13489100  0.98582700  1
  H  878  1  0.98057200  0.20873500  0.96984300  1
  H  879  1  0.95819700  0.19446700  0.98371100  1
  H  880  1  0.99617000  0.22026800  0.00138500  1
  H  889  1  0.53656000  0.38296600  0.98464900  1
  H  892  1  0.48072800  0.30891000  0.00039300  1
  H  893  1  0.45831700  0.32310900  0.98650000  1
  H  894  1  0.49648000  0.29748400  0.96887000  1
  H  903  1  0.23048900  0.75787300  0.86137100  1
  H  906  1  0.28760300  0.77478000  0.93451000  1
  H  907  1  0.31000900  0.76133700  0.91986400  1
  H  908  1  0.27302400  0.74292300  0.94616800  1
  H  917  1  0.73043600  0.75995400  0.10896100  1
  H  920  1  0.78772900  0.74291500  0.03594700  1
  H  921  1  0.81011600  0.75632800  0.05064100  1
  H  922  1  0.77325200  0.77479400  0.02425000  1
  H  931  1  0.47742100  0.37783200  0.47923500  1
  H  934  1  0.54013900  0.31112700  0.50655800  1
  H  935  1  0.56254000  0.32695300  0.49441800  1
  H  936  1  0.53061000  0.29753500  0.47399400  1
  H  945  1  0.97797200  0.13881600  0.49033600  1
  H  948  1  0.03952600  0.20705000  0.46490000  1
  H  949  1  0.06215700  0.19113800  0.47660700  1
  H  950  1  0.02982400  0.21966600  0.49781400  1
  H  959  1  0.78657100  0.25938500  0.10937400  1
  H  962  1  0.73084000  0.24351000  0.03528800  1
  H  963  1  0.70837900  0.25737200  0.04946000  1
  H  964  1  0.74653800  0.27505600  0.02386800  1
  H  973  1  0.28662000  0.25834200  0.86102800  1
  H  976  1  0.23074300  0.27432300  0.93501800  1
  H  977  1  0.20829500  0.26048000  0.92081100  1
  H  978  1  0.24636900  0.24276400  0.94647300  1
  H  987  1  0.53735400  0.63506000  0.48630300  1
  H  990  1  0.48014400  0.70810300  0.46922100  1
  H  991  1  0.45775700  0.69343700  0.48266500  1
  H  992  1  0.49464100  0.71984500  0.50107500  1
  H  1001  1  0.03711600  0.88286400  0.48426200  1
  H  1004  1  0.98039200  0.80946800  0.50096700  1
  H  1005  1  0.95793800  0.82402400  0.48748700  1
  H  1006  1  0.99513500  0.79788900  0.46913700  1
  H  1015  1  0.86011100  0.13657900  0.21903900  1
  H  1018  1  0.94147100  0.18847200  0.24208400  1
  H  1019  1  0.94273600  0.17177100  0.26390300  1
  H  1020  1  0.91061700  0.20704500  0.25854000  1
  H  1029  1  0.36004000  0.38116300  0.75134300  1
  H  1032  1  0.44147800  0.32937900  0.72823500  1
  H  1033  1  0.44267700  0.34609200  0.70642100  1
  H  1034  1  0.41065100  0.31075700  0.71179700  1
  H  1043  1  0.11109600  0.02513600  0.86217200  1
  H  1046  1  0.19098600  0.00265600  0.91589100  1
  H  1047  1  0.19316000  0.98092600  0.89915500  1
  H  1048  1  0.15977600  0.98579800  0.93364500  1
  H  1057  1  0.61111700  0.49263900  0.10817500  1
  H  1060  1  0.69102500  0.51509100  0.05446700  1
  H  1061  1  0.69320100  0.53683000  0.07118900  1
  H  1062  1  0.65982000  0.53194400  0.03669900  1
  H  1071  1  0.65811200  0.38100800  0.21837000  1
  H  1074  1  0.57632900  0.32955000  0.24138900  1
  H  1075  1  0.57532100  0.34619800  0.26326600  1
  H  1076  1  0.60706100  0.31070800  0.25771200  1
  H  1085  1  0.15802400  0.13670800  0.75194700  1
  H  1088  1  0.07632600  0.18828400  0.72899300  1
  H  1089  1  0.07523900  0.17162300  0.70713000  1
  H  1090  1  0.10706100  0.20707200  0.71261700  1
  H  1099  1  0.40682600  0.49232500  0.86207800  1
  H  1102  1  0.32682500  0.51453200  0.91579900  1
  H  1103  1  0.32461100  0.53629000  0.89910300  1
  H  1104  1  0.35797600  0.53141900  0.93360300  1
  H  1113  1  0.90688500  0.02545000  0.10825900  1
  H  1116  1  0.82679600  0.00325400  0.05463000  1
  H  1117  1  0.82461700  0.98148300  0.07131200  1
  H  1118  1  0.85792500  0.98638900  0.03677600  1
  H  1127  1  0.15701500  0.88155000  0.75147000  1
  H  1130  1  0.07625600  0.82877100  0.72904900  1
  H  1131  1  0.07430700  0.84552500  0.70732100  1
  H  1132  1  0.10715700  0.81065900  0.71215900  1
  H  1141  1  0.65701400  0.63623000  0.21889700  1
  H  1144  1  0.57625000  0.68899100  0.24135900  1
  H  1145  1  0.57432500  0.67222300  0.26307800  1
  H  1146  1  0.60714200  0.70711300  0.25825000  1
  H  1155  1  0.36056500  0.63635300  0.75180800  1
  H  1158  1  0.44154300  0.68899500  0.72961700  1
  H  1159  1  0.44347900  0.67226900  0.70786300  1
  H  1160  1  0.41071600  0.70719000  0.71271700  1
  H  1169  1  0.86056200  0.88139900  0.21859400  1
  H  1172  1  0.94158200  0.82878800  0.24074600  1
  H  1173  1  0.94351900  0.84550000  0.26250800  1
  H  1174  1  0.91077000  0.81057100  0.25764100  1
  H  1183  1  0.60973800  0.52510100  0.36328500  1
  H  1186  1  0.69195200  0.50216400  0.41422900  1
  H  1187  1  0.69299300  0.48033600  0.39753100  1
  H  1188  1  0.66140900  0.48569200  0.43315700  1
  H  1197  1  0.10984300  0.99267600  0.60713300  1
  H  1200  1  0.19195600  0.01559600  0.55606500  1
  H  1201  1  0.19304000  0.03741600  0.57277100  1
  H  1202  1  0.16139400  0.03209300  0.53718000  1
  H  1211  1  0.90836300  0.99199500  0.36333100  1
  H  1214  1  0.82597700  0.01491000  0.41411900  1
  H  1215  1  0.82509000  0.03678400  0.39746100  1
  H  1216  1  0.85649100  0.03127600  0.43317800  1
  H  1225  1  0.40853800  0.52579900  0.60691000  1
  H  1228  1  0.32588800  0.50285600  0.55644100  1
  H  1229  1  0.32513500  0.48095900  0.57307300  1
  H  1230  1  0.35631900  0.48655300  0.53723300  1
  C  1  1  0.86703700  0.08746600  0.38140200  1
  C  2  1  0.84818200  0.10250900  0.37843700  1
  C  3  1  0.85305900  0.12420100  0.37928200  1
  C  4  1  0.87682600  0.13227300  0.38390300  1
  C  5  1  0.89576500  0.11692400  0.38587400  1
  C  6  1  0.89106100  0.09520900  0.38503400  1
  C  7  1  0.88307600  0.15583300  0.38280200  1
  C  8  1  0.88977200  0.15718700  0.35935100  1
  C  9  1  0.91388500  0.15338300  0.35162900  1
  C  10  1  0.91919200  0.15276700  0.32999000  1
  C  11  1  0.90052200  0.15529400  0.31469000  1
  C  12  1  0.87624600  0.15832200  0.32210600  1
  C  13  1  0.87108900  0.15889600  0.34374600  1
  C  14  1  0.86250800  0.17161700  0.38815500  1
  C  15  1  0.90325100  0.16156600  0.39879700  1
  C  16  1  0.92141800  0.17705000  0.39480300  1
  C  17  1  0.94090600  0.18100100  0.40891200  1
  C  18  1  0.94306000  0.17019100  0.42827600  1
  C  19  1  0.92384100  0.15603300  0.43323600  1
  C  20  1  0.90427100  0.15227500  0.41911000  1
  C  21  1  0.84296300  0.16704800  0.40221400  1
  C  22  1  0.82241100  0.18045200  0.40439100  1
  C  23  1  0.82094000  0.19983400  0.39360000  1
  C  24  1  0.84164100  0.20571300  0.38150700  1
  C  25  1  0.86199400  0.19210600  0.37921200  1
  C  42  1  0.96326800  0.17414600  0.44159100  1
  C  43  1  0.86170900  0.06601600  0.37973100  1
  C  46  1  0.90626100  0.15388200  0.29329200  1
  C  48  1  0.79892600  0.21136600  0.39353400  1
  C  50  1  0.36714700  0.43032400  0.58900400  1
  C  51  1  0.34835300  0.41529400  0.59227700  1
  C  52  1  0.35320800  0.39360000  0.59139200  1
  C  53  1  0.37685700  0.38549500  0.58639700  1
  C  54  1  0.39575900  0.40084200  0.58415600  1
  C  55  1  0.39108600  0.42256300  0.58502700  1
  C  56  1  0.38307800  0.36193400  0.58755000  1
  C  57  1  0.38975000  0.36056600  0.61100400  1
  C  58  1  0.41377400  0.36473100  0.61875000  1
  C  59  1  0.41907200  0.36537300  0.64038700  1
  C  60  1  0.40045500  0.36256000  0.65568000  1
  C  61  1  0.37623800  0.35922300  0.64825100  1
  C  62  1  0.37110000  0.35860900  0.62660800  1
  C  63  1  0.36250000  0.34616900  0.58217500  1
  C  64  1  0.40327600  0.35613800  0.57159900  1
  C  65  1  0.42163100  0.34086000  0.57575200  1
  C  66  1  0.44111900  0.33689100  0.56165300  1
  C  67  1  0.44311100  0.34748700  0.54216100  1
  C  68  1  0.42372500  0.36142900  0.53706200  1
  C  69  1  0.40414100  0.36519300  0.55117600  1
  C  70  1  0.34269500  0.35086500  0.56842300  1
  C  71  1  0.32214400  0.33744600  0.56635000  1
  C  72  1  0.32091900  0.31793900  0.57693100  1
  C  73  1  0.34183000  0.31196500  0.58870900  1
  C  74  1  0.36219200  0.32558200  0.59089800  1
  C  91  1  0.46335000  0.34352900  0.52888000  1
  C  92  1  0.36185500  0.45177900  0.59070600  1
  C  95  1  0.40617200  0.36398600  0.67708200  1
  C  97  1  0.29892200  0.30640000  0.57719300  1
  C  99  1  0.11723800  0.85935900  0.81387600  1
  C  100  1  0.09797400  0.85904000  0.82883400  1
  C  101  1  0.10279100  0.85988100  0.85056100  1
  C  102  1  0.12713700  0.86045500  0.85862800  1
  C  103  1  0.14622000  0.86168800  0.84332000  1
  C  104  1  0.14154900  0.86092900  0.82162200  1
  C  105  1  0.13360200  0.86168200  0.88213500  1
  C  106  1  0.14047300  0.88509500  0.88332000  1
  C  107  1  0.16499500  0.89278500  0.88336400  1
  C  108  1  0.17031000  0.91443000  0.88295300  1
  C  109  1  0.15139300  0.92969900  0.88215900  1
  C  110  1  0.12687100  0.92228900  0.88156900  1
  C  111  1  0.12170200  0.90065500  0.88183900  1
  C  112  1  0.11307600  0.85658500  0.89809100  1
  C  113  1  0.15380200  0.84549200  0.88744200  1
  C  114  1  0.16953200  0.84783900  0.90506900  1
  C  115  1  0.18890100  0.83365900  0.90932500  1
  C  116  1  0.19318700  0.81570800  0.89668400  1
  C  117  1  0.17624900  0.81219600  0.88019500  1
  C  118  1  0.15693100  0.82641600  0.87606400  1
  C  119  1  0.09741600  0.83892000  0.89568600  1
  C  120  1  0.07773200  0.83480500  0.90957900  1
  C  121  1  0.07304200  0.84760700  0.92733900  1
  C  122  1  0.08992800  0.86410900  0.93098500  1
  C  123  1  0.10955000  0.86812600  0.91702200  1
  C  140  1  0.21304000  0.80212000  0.90100100  1
  C  141  1  0.11203100  0.85761100  0.79244200  1
  C  144  1  0.15728900  0.95105700  0.88095400  1
  C  146  1  0.05272900  0.84347800  0.94049000  1
  C  148  1  0.61724400  0.65844800  0.15650300  1
  C  149  1  0.59798400  0.65882800  0.14154000  1
  C  150  1  0.60280200  0.65797400  0.11981400  1
  C  151  1  0.62714900  0.65730600  0.11175300  1
  C  152  1  0.64622400  0.65603500  0.12706500  1
  C  153  1  0.64154900  0.65681000  0.14876200  1
  C  154  1  0.63362000  0.65608500  0.08824700  1
  C  155  1  0.64048700  0.63267000  0.08707100  1
  C  156  1  0.66501000  0.62498600  0.08692000  1
  C  157  1  0.67032700  0.60333900  0.08732900  1
  C  158  1  0.65141600  0.58806800  0.08817500  1
  C  159  1  0.62689400  0.59547500  0.08883800  1
  C  160  1  0.62172100  0.61711000  0.08857900  1
  C  161  1  0.61309700  0.66118600  0.07228400  1
  C  162  1  0.65382600  0.67227300  0.08294900  1
  C  163  1  0.66950600  0.66995900  0.06528700  1
  C  164  1  0.68888000  0.68413500  0.06103000  1
  C  165  1  0.69321400  0.70205500  0.07370100  1
  C  166  1  0.67632200  0.70554000  0.09023100  1
  C  167  1  0.65699800  0.69132700  0.09436200  1
  C  168  1  0.59749100  0.67888800  0.07465400  1
  C  169  1  0.57780200  0.68300700  0.06076600  1
  C  170  1  0.57306900  0.67017600  0.04303300  1
  C  171  1  0.58990000  0.65362700  0.03942200  1
  C  172  1  0.60951800  0.64960100  0.05338900  1
  C  189  1  0.71307100  0.71563900  0.06938300  1
  C  190  1  0.61203900  0.66020400  0.17793700  1
  C  193  1  0.65731800  0.56671200  0.08936100  1
  C  195  1  0.55276600  0.67432100  0.02987700  1
  C  197  1  0.65052300  0.42947400  0.38161800  1
  C  198  1  0.66919500  0.41417700  0.37908700  1
  C  199  1  0.66390000  0.39253600  0.37972900  1
  C  200  1  0.63979900  0.38480300  0.38357700  1
  C  201  1  0.62111500  0.40040600  0.38529200  1
  C  202  1  0.62625400  0.42204800  0.38467700  1
  C  203  1  0.63313900  0.36134600  0.38223100  1
  C  204  1  0.62691100  0.36021300  0.35867400  1
  C  205  1  0.60314100  0.36482700  0.35060100  1
  C  206  1  0.59825700  0.36566000  0.32891100  1
  C  207  1  0.61710000  0.36265400  0.31386700  1
  C  208  1  0.64112400  0.35902200  0.32160600  1
  C  209  1  0.64583900  0.35821900  0.34332000  1
  C  210  1  0.65333000  0.34537200  0.38798700  1
  C  211  1  0.61255600  0.35596900  0.39798900  1
  C  212  1  0.59307800  0.34185200  0.39340500  1
  C  213  1  0.57253300  0.33958900  0.40679800  1
  C  214  1  0.57096100  0.35040500  0.42616200  1
  C  215  1  0.59159200  0.36259100  0.43204100  1
  C  216  1  0.61197800  0.36491700  0.41847500  1
  C  217  1  0.67148900  0.34940600  0.40346700  1
  C  218  1  0.69099700  0.33532200  0.40743300  1
  C  219  1  0.69316600  0.31593400  0.39666500  1
  C  220  1  0.67393900  0.31092800  0.38253200  1
  C  221  1  0.65436100  0.32503900  0.37874300  1
  C  238  1  0.54896000  0.35028900  0.43772500  1
  C  239  1  0.65624300  0.45087300  0.38014900  1
  C  242  1  0.61175900  0.36427600  0.29241700  1
  C  244  1  0.71341600  0.30266600  0.40063000  1
  C  246  1  0.15057700  0.08830100  0.58869400  1
  C  247  1  0.16929900  0.10360200  0.59092200  1
  C  248  1  0.16400100  0.12524200  0.59028200  1
  C  249  1  0.13982200  0.13296100  0.58679400  1
  C  250  1  0.12109900  0.11736100  0.58539300  1
  C  251  1  0.12625000  0.09571900  0.58597800  1
  C  252  1  0.13313000  0.15641400  0.58811400  1
  C  253  1  0.12687600  0.15754200  0.61166500  1
  C  254  1  0.10298900  0.15336000  0.61971100  1
  C  255  1  0.09809300  0.15253600  0.64140300  1
  C  256  1  0.11700100  0.15518400  0.65645700  1
  C  257  1  0.14110500  0.15844700  0.64873200  1
  C  258  1  0.14584200  0.15921100  0.62702100  1
  C  259  1  0.15331600  0.17240300  0.58238500  1
  C  260  1  0.11253900  0.16177800  0.57235800  1
  C  261  1  0.09353500  0.17641200  0.57675900  1
  C  262  1  0.07305700  0.17898000  0.56334500  1
  C  263  1  0.07104600  0.16792800  0.54413200  1
  C  264  1  0.09127000  0.15515800  0.53843800  1
  C  265  1  0.11159000  0.15253000  0.55202000  1
  C  266  1  0.17121500  0.16850100  0.56665400  1
  C  267  1  0.19072600  0.18256800  0.56263900  1
  C  268  1  0.19314500  0.20182400  0.57360600  1
  C  269  1  0.17415400  0.20672400  0.58800500  1
  C  270  1  0.15458200  0.19262500  0.59185200  1
  C  287  1  0.04915300  0.16881600  0.53238200  1
  C  288  1  0.15631700  0.06690600  0.59015900  1
  C  291  1  0.11163500  0.15357300  0.67790400  1
  C  293  1  0.21342500  0.21505800  0.56962400  1
  C  295  1  0.40007800  0.65844600  0.81434500  1
  C  296  1  0.41924200  0.65880400  0.82939900  1
  C  297  1  0.41428900  0.65787800  0.85110200  1
  C  298  1  0.38989500  0.65716000  0.85904500  1
  C  299  1  0.37091500  0.65593300  0.84364100  1
  C  300  1  0.37572400  0.65678200  0.82197200  1
  C  301  1  0.38328200  0.65572600  0.88250700  1
  C  302  1  0.37660100  0.63225900  0.88346500  1
  C  303  1  0.35213800  0.62443200  0.88332300  1
  C  304  1  0.34699600  0.60275800  0.88281400  1
  C  305  1  0.36604000  0.58760200  0.88209700  1
  C  306  1  0.39051000  0.59515400  0.88168300  1
  C  307  1  0.39550800  0.61681600  0.88206600  1
  C  308  1  0.40361800  0.66081400  0.89864200  1
  C  309  1  0.36289900  0.67174000  0.88783500  1
  C  310  1  0.34704400  0.66909900  0.90533400  1
  C  311  1  0.32737600  0.68299600  0.90949800  1
  C  312  1  0.32292200  0.70097600  0.89693700  1
  C  313  1  0.34003300  0.70484500  0.88066000  1
  C  314  1  0.35963000  0.69088000  0.87658900  1
  C  315  1  0.41923800  0.67853800  0.89648500  1
  C  316  1  0.43863600  0.68270200  0.91066000  1
  C  317  1  0.44305000  0.66987900  0.92845800  1
  C  318  1  0.42623800  0.65325500  0.93179000  1
  C  319  1  0.40690100  0.64920200  0.91755800  1
  C  336  1  0.30262800  0.71413600  0.90107600  1
  C  337  1  0.40540800  0.66022200  0.79293400  1
  C  340  1  0.36031500  0.56621600  0.88083000  1
  C  342  1  0.46288100  0.67418600  0.94207800  1
  C  344  1  0.90008400  0.85934000  0.15604300  1
  C  345  1  0.91924800  0.85899800  0.14098900  1
  C  346  1  0.91429300  0.85992200  0.11928700  1
  C  347  1  0.88989700  0.86062200  0.11134300  1
  C  348  1  0.87091800  0.86183100  0.12674600  1
  C  349  1  0.87572800  0.86098700  0.14841700  1
  C  350  1  0.88328400  0.86205200  0.08788100  1
  C  351  1  0.87660300  0.88551900  0.08691800  1
  C  352  1  0.85214400  0.89335300  0.08708900  1
  C  353  1  0.84701300  0.91502800  0.08760200  1
  C  354  1  0.86606500  0.93017700  0.08829100  1
  C  355  1  0.89053100  0.92262100  0.08868300  1
  C  356  1  0.89552200  0.90095600  0.08830200  1
  C  357  1  0.90361300  0.85695800  0.07174200  1
  C  358  1  0.86290000  0.84603800  0.08255700  1
  C  359  1  0.84701500  0.84869400  0.06507900  1
  C  360  1  0.82735400  0.83479100  0.06091500  1
  C  361  1  0.82292600  0.81679800  0.07346300  1
  C  362  1  0.84005900  0.81292100  0.08972400  1
  C  363  1  0.85965400  0.82688900  0.09378900  1
  C  364  1  0.91925300  0.83924800  0.07391700  1
  C  365  1  0.93865600  0.83508700  0.05974700  1
  C  366  1  0.94306400  0.84790100  0.04194300  1
  C  367  1  0.92623100  0.86450600  0.03859300  1
  C  368  1  0.90688500  0.86855600  0.05281700  1
  C  385  1  0.80262900  0.80363800  0.06933900  1
  C  386  1  0.90541600  0.85756400  0.17745400  1
  C  389  1  0.86034800  0.95156800  0.08955100  1
  C  391  1  0.96290500  0.84360200  0.02833100  1
  C  393  1  0.15042000  0.93041900  0.58567400  1
  C  394  1  0.16970800  0.91548000  0.58530500  1
  C  395  1  0.16493700  0.89374200  0.58614800  1
  C  396  1  0.14061100  0.88563800  0.58678500  1
  C  397  1  0.12150200  0.90092300  0.58804400  1
  C  398  1  0.12612900  0.92262900  0.58727900  1
  C  399  1  0.13418100  0.86212000  0.58800700  1
  C  400  1  0.12730600  0.86093500  0.61142100  1
  C  401  1  0.10278400  0.86079600  0.61910900  1
  C  402  1  0.09746800  0.86118300  0.64075700  1
  C  403  1  0.11638100  0.86203500  0.65602600  1
  C  404  1  0.14090200  0.86268500  0.64861700  1
  C  405  1  0.14607300  0.86244300  0.62698200  1
  C  406  1  0.15471800  0.84616100  0.58292500  1
  C  407  1  0.11399300  0.85679800  0.57180400  1
  C  408  1  0.09829900  0.83914400  0.57413100  1
  C  409  1  0.07893500  0.83487700  0.55994600  1
  C  410  1  0.07461500  0.84752900  0.54201100  1
  C  411  1  0.09150700  0.86405900  0.53852600  1
  C  412  1  0.11081700  0.86820600  0.55274800  1
  C  413  1  0.17038900  0.84855300  0.56526500  1
  C  414  1  0.19005900  0.83464500  0.56115300  1
  C  415  1  0.19474700  0.81688600  0.57396400  1
  C  416  1  0.17786500  0.81326500  0.59047500  1
  C  417  1  0.15825300  0.82724200  0.59448700  1
  C  434  1  0.05478500  0.84318000  0.52840500  1
  C  435  1  0.15558400  0.95187300  0.58396200  1
  C  438  1  0.11048000  0.86322300  0.67738500  1
  C  440  1  0.21503000  0.80370000  0.56981700  1
  C  442  1  0.65038700  0.58735000  0.38467400  1
  C  443  1  0.66968300  0.60228300  0.38497800  1
  C  444  1  0.66491600  0.62402100  0.38415600  1
  C  445  1  0.64059000  0.63213400  0.38360400  1
  C  446  1  0.62147300  0.61685500  0.38238600  1
  C  447  1  0.62609200  0.59514800  0.38313900  1
  C  448  1  0.63417600  0.65565400  0.38237200  1
  C  449  1  0.62730900  0.65684300  0.35895800  1
  C  450  1  0.60278900  0.65689300  0.35126400  1
  C  451  1  0.59747600  0.65649300  0.32961700  1
  C  452  1  0.61639500  0.65570100  0.31435000  1
  C  453  1  0.64091600  0.65511600  0.32176200  1
  C  454  1  0.64608200  0.65537000  0.34339900  1
  C  455  1  0.65471900  0.67160400  0.38745400  1
  C  456  1  0.61398700  0.66098700  0.39856800  1
  C  457  1  0.59824700  0.67860600  0.39620500  1
  C  458  1  0.57888300  0.68287300  0.41039000  1
  C  459  1  0.57461400  0.67025900  0.42836200  1
  C  460  1  0.59156200  0.65377900  0.43188600  1
  C  461  1  0.61087300  0.64963400  0.41766300  1
  C  462  1  0.67043800  0.66918400  0.40507900  1
  C  463  1  0.69011500  0.68309000  0.40917700  1
  C  464  1  0.69474200  0.70088600  0.39640300  1
  C  465  1  0.67779800  0.70454300  0.37994700  1
  C  466  1  0.65818500  0.69056300  0.37594600  1
  C  483  1  0.55476900  0.67459400  0.44195600  1
  C  484  1  0.65554700  0.56589500  0.38637300  1
  C  487  1  0.61050000  0.65451100  0.29298900  1
  C  489  1  0.71503400  0.71406700  0.40052800  1
  C  491  1  0.90041700  0.15863100  0.15683800  1
  C  492  1  0.91968600  0.15982000  0.14192300  1
  C  493  1  0.91500000  0.15891600  0.12017800  1
  C  494  1  0.89075000  0.15734600  0.11204700  1
  C  495  1  0.87169800  0.15527300  0.12729400  1
  C  496  1  0.87624800  0.15610000  0.14901000  1
  C  497  1  0.88433000  0.15617400  0.08852700  1
  C  498  1  0.87773900  0.13270600  0.08714000  1
  C  499  1  0.85343300  0.12472700  0.08541200  1
  C  500  1  0.84858200  0.10301400  0.08438600  1
  C  501  1  0.86772500  0.08798800  0.08561000  1
  C  502  1  0.89194100  0.09565800  0.08827700  1
  C  503  1  0.89665800  0.11734100  0.08922600  1
  C  504  1  0.90484700  0.16139400  0.07256800  1
  C  505  1  0.86398400  0.17229600  0.08332000  1
  C  506  1  0.84899000  0.17043400  0.06517000  1
  C  507  1  0.82963900  0.18460100  0.06079700  1
  C  508  1  0.82464000  0.20210800  0.07386400  1
  C  509  1  0.84083500  0.20517700  0.09096900  1
  C  510  1  0.86012200  0.19096700  0.09521500  1
  C  511  1  0.91992500  0.17946300  0.07468600  1
  C  512  1  0.93953100  0.18379500  0.06076900  1
  C  513  1  0.94471300  0.17079500  0.04325000  1
  C  514  1  0.92840500  0.15383000  0.03987100  1
  C  515  1  0.90887100  0.14960700  0.05385200  1
  C  532  1  0.80487100  0.21573400  0.06938600  1
  C  533  1  0.90547600  0.16043000  0.17830400  1
  C  536  1  0.86251500  0.06656400  0.08369400  1
  C  538  1  0.96491200  0.17514100  0.03004400  1
  C  540  1  0.40039100  0.35912900  0.81352300  1
  C  541  1  0.41965800  0.35791000  0.82843700  1
  C  542  1  0.41497800  0.35882000  0.85018400  1
  C  543  1  0.39073100  0.36043900  0.85831400  1
  C  544  1  0.37167900  0.36252200  0.84306900  1
  C  545  1  0.37622700  0.36168300  0.82135300  1
  C  546  1  0.38431300  0.36160500  0.88183700  1
  C  547  1  0.37772400  0.38507300  0.88321900  1
  C  548  1  0.35342200  0.39304900  0.88500100  1
  C  549  1  0.34857000  0.41476200  0.88602700  1
  C  550  1  0.36771200  0.42978900  0.88478200  1
  C  551  1  0.39192600  0.42212200  0.88209300  1
  C  552  1  0.39664100  0.40043900  0.88112800  1
  C  553  1  0.40482800  0.35637800  0.89779800  1
  C  554  1  0.36396500  0.34548200  0.88703900  1
  C  555  1  0.34899200  0.34733000  0.90520300  1
  C  556  1  0.32963700  0.33316600  0.90957500  1
  C  557  1  0.32462000  0.31567200  0.89649800  1
  C  558  1  0.34079400  0.31261600  0.87937700  1
  C  559  1  0.36008400  0.32682300  0.87513100  1
  C  560  1  0.41988800  0.33829800  0.89569200  1
  C  561  1  0.43949500  0.33396600  0.90960700  1
  C  562  1  0.44469300  0.34697600  0.92711600  1
  C  563  1  0.42840500  0.36395800  0.93048100  1
  C  564  1  0.40887600  0.36818600  0.91649800  1
  C  581  1  0.30484900  0.30204800  0.90097600  1
  C  582  1  0.40544500  0.35733100  0.79205600  1
  C  585  1  0.36250200  0.45121300  0.88670200  1
  C  587  1  0.46488000  0.34261900  0.94033300  1
  C  589  1  0.36790700  0.58806200  0.58572700  1
  C  590  1  0.34870100  0.60307700  0.58538000  1
  C  591  1  0.35359100  0.62479400  0.58627400  1
  C  592  1  0.37796300  0.63279300  0.58696800  1
  C  593  1  0.39698700  0.61742800  0.58816500  1
  C  594  1  0.39224200  0.59574800  0.58734000  1
  C  595  1  0.38451400  0.65626700  0.58839100  1
  C  596  1  0.39118200  0.65723700  0.61186200  1
  C  597  1  0.41564100  0.65707800  0.61969900  1
  C  598  1  0.42077200  0.65654000  0.64137300  1
  C  599  1  0.40172000  0.65584000  0.65652300  1
  C  600  1  0.37725400  0.65545800  0.64896500  1
  C  601  1  0.37226500  0.65584800  0.62730000  1
  C  602  1  0.36415500  0.67238600  0.58330700  1
  C  603  1  0.40488500  0.66160600  0.57236900  1
  C  604  1  0.42080100  0.67906100  0.57503800  1
  C  605  1  0.44046600  0.68321500  0.56113300  1
  C  606  1  0.44487900  0.67067500  0.54313200  1
  C  607  1  0.42771800  0.65443800  0.53924500  1
  C  608  1  0.40810900  0.65039300  0.55320300  1
  C  609  1  0.34846900  0.67018800  0.56563000  1
  C  610  1  0.32906600  0.68436500  0.56147600  1
  C  611  1  0.32469200  0.70219200  0.57426900  1
  C  612  1  0.34156500  0.70555900  0.59084100  1
  C  613  1  0.36091300  0.69133300  0.59488000  1
  C  630  1  0.46518400  0.67479000  0.52997400  1
  C  631  1  0.36264300  0.56662700  0.58402600  1
  C  634  1  0.40743700  0.65451300  0.67790700  1
  C  636  1  0.30485400  0.71581300  0.56997100  1
  C  638  1  0.86786300  0.92972200  0.38465900  1
  C  639  1  0.84865900  0.91470400  0.38505300  1
  C  640  1  0.85354900  0.89298700  0.38415700  1
  C  641  1  0.87791900  0.88499200  0.38341500  1
  C  642  1  0.89693900  0.90035800  0.38216900  1
  C  643  1  0.89219300  0.92203800  0.38299600  1
  C  644  1  0.88447900  0.86151700  0.38199500  1
  C  645  1  0.89116200  0.86054200  0.35852700  1
  C  646  1  0.91562400  0.86062800  0.35069900  1
  C  647  1  0.92076800  0.86115200  0.32902600  1
  C  648  1  0.90172600  0.86190000  0.31387000  1
  C  649  1  0.87725800  0.86234900  0.32141900  1
  C  650  1  0.87226000  0.86197700  0.34308300  1
  C  651  1  0.86411500  0.84540100  0.38707200  1
  C  652  1  0.90484900  0.85618300  0.39802300  1
  C  653  1  0.92069700  0.83867400  0.39540000  1
  C  654  1  0.94036100  0.83451400  0.40930300  1
  C  655  1  0.94482800  0.84708900  0.42727000  1
  C  656  1  0.92772600  0.86338000  0.43112300  1
  C  657  1  0.90812900  0.86744300  0.41715500  1
  C  658  1  0.84846800  0.84757700  0.40477700  1
  C  659  1  0.82906600  0.83340200  0.40894000  1
  C  660  1  0.82464800  0.81560100  0.39612300  1
  C  661  1  0.84147200  0.81226100  0.37951000  1
  C  662  1  0.86082500  0.82648100  0.37546700  1
  C  679  1  0.96512400  0.84295500  0.44043500  1
  C  680  1  0.86260200  0.95115400  0.38637700  1
  C  683  1  0.90745700  0.86321000  0.29248500  1
  C  685  1  0.80479600  0.80199300  0.40041600  1
  C  687  1  0.61781100  0.35917100  0.15614400  1
  C  688  1  0.59861900  0.35793200  0.14115900  1
  C  689  1  0.60340200  0.35891100  0.11943100  1
  C  690  1  0.62768400  0.36062100  0.11139600  1
  C  691  1  0.64665500  0.36270100  0.12671600  1
  C  692  1  0.64200600  0.36178800  0.14840900  1
  C  693  1  0.63421800  0.36198100  0.08791400  1
  C  694  1  0.64070100  0.38548700  0.08673600  1
  C  695  1  0.66497500  0.39355900  0.08511500  1
  C  696  1  0.66972300  0.41529100  0.08417500  1
  C  697  1  0.65049900  0.43024100  0.08537700  1
  C  698  1  0.62630900  0.42247800  0.08795100  1
  C  699  1  0.62169500  0.40077300  0.08882000  1
  C  700  1  0.61383800  0.35681900  0.07180800  1
  C  701  1  0.65469300  0.34599400  0.08266400  1
  C  702  1  0.66972700  0.34809000  0.06456700  1
  C  703  1  0.68936200  0.33420000  0.06025000  1
  C  704  1  0.69459800  0.31671900  0.07328500  1
  C  705  1  0.67830800  0.31334100  0.09026500  1
  C  706  1  0.65875800  0.32730400  0.09448100  1
  C  707  1  0.59878100  0.33870900  0.07368200  1
  C  708  1  0.57942800  0.33436600  0.05950500  1
  C  709  1  0.57448300  0.34742400  0.04198200  1
  C  710  1  0.59071900  0.36450100  0.03891700  1
  C  711  1  0.61000600  0.36871800  0.05313500  1
  C  728  1  0.71481900  0.30353800  0.06895300  1
  C  729  1  0.61267000  0.35734800  0.17759200  1
  C  732  1  0.65561700  0.45168400  0.08351900  1
  C  734  1  0.55473000  0.34296200  0.02832700  1
  C  736  1  0.11779500  0.15858800  0.81420600  1
  C  737  1  0.09860700  0.15982300  0.82919400  1
  C  738  1  0.10339500  0.15884700  0.85092200  1
  C  739  1  0.12767800  0.15714500  0.85895500  1
  C  740  1  0.14664700  0.15507400  0.84363100  1
  C  741  1  0.14199200  0.15597500  0.82193800  1
  C  742  1  0.13421400  0.15578700  0.88243700  1
  C  743  1  0.14069500  0.13228200  0.88362000  1
  C  744  1  0.16497000  0.12420600  0.88522200  1
  C  745  1  0.16971400  0.10247500  0.88616100  1
  C  746  1  0.15048300  0.08752700  0.88497700  1
  C  747  1  0.12629400  0.09529400  0.88241600  1
  C  748  1  0.12168400  0.11699800  0.88154500  1
  C  749  1  0.11384300  0.16095400  0.89854900  1
  C  750  1  0.15469300  0.17177200  0.88768300  1
  C  751  1  0.16974500  0.16966800  0.90577000  1
  C  752  1  0.18936900  0.18356600  0.91009100  1
  C  753  1  0.19459000  0.20105300  0.89706200  1
  C  754  1  0.17829500  0.20443300  0.88008700  1
  C  755  1  0.15874500  0.19046800  0.87587200  1
  C  756  1  0.09878200  0.17906200  0.89666800  1
  C  757  1  0.07941600  0.18339500  0.91083500  1
  C  758  1  0.07447500  0.17034000  0.92836500  1
  C  759  1  0.09072800  0.15327700  0.93144300  1
  C  760  1  0.11002000  0.14906300  0.91722700  1
  C  777  1  0.21481500  0.21423400  0.90138800  1
  C  778  1  0.11265000  0.16041300  0.79275700  1
  C  781  1  0.15559900  0.06608300  0.88683400  1
  C  783  1  0.05471500  0.17479700  0.94201300  1
  C  785  1  0.77805800  0.24435900  0.39412700  1
  C  787  1  0.74021100  0.25542500  0.37792800  1
  C  788  1  0.73817100  0.27276300  0.39157800  1
  C  790  1  0.77624400  0.26180400  0.40786900  1
  C  792  1  0.79463600  0.26600300  0.42448600  1
  C  799  1  0.27806800  0.27338900  0.57608200  1
  C  801  1  0.24010500  0.26242200  0.59215900  1
  C  802  1  0.23818100  0.24498100  0.57862800  1
  C  804  1  0.27636700  0.25583900  0.56246200  1
  C  806  1  0.29489600  0.25151200  0.54598900  1
  C  813  1  0.02707400  0.85306900  0.96956600  1
  C  815  1  0.99192800  0.87053300  0.98449700  1
  C  816  1  0.98842200  0.85436900  0.99928300  1
  C  818  1  0.02399600  0.83682200  0.98464500  1
  C  820  1  0.04096700  0.81874500  0.98655300  1
  C  827  1  0.52710300  0.66469700  0.00079000  1
  C  829  1  0.49202300  0.64718500  0.98581300  1
  C  830  1  0.48843700  0.66339500  0.97109200  1
  C  832  1  0.52391200  0.68102200  0.98581300  1
  C  834  1  0.54077600  0.69917900  0.98397900  1
  C  841  1  0.24066300  0.77458200  0.57945800  1
  C  843  1  0.27576000  0.75959800  0.59694900  1
  C  844  1  0.27931700  0.74485600  0.58075100  1
  C  846  1  0.24383500  0.75959400  0.56313800  1
  C  848  1  0.22695600  0.75776000  0.54499100  1
  C  855  1  0.74061600  0.74321500  0.39091500  1
  C  857  1  0.77578200  0.75814500  0.37348200  1
  C  858  1  0.77927600  0.77293200  0.38964600  1
  C  860  1  0.74372200  0.75825300  0.40719800  1
  C  862  1  0.72677300  0.76012800  0.42529200  1
  C  869  1  0.99075500  0.16546000  0.00103000  1
  C  871  1  0.02555600  0.14779700  0.98574300  1
  C  872  1  0.02915400  0.16405300  0.97107600  1
  C  874  1  0.99391800  0.18179900  0.98605800  1
  C  876  1  0.97717100  0.20004900  0.98436200  1
  C  883  1  0.49071400  0.35232900  0.96936600  1
  C  885  1  0.52546600  0.37002700  0.98468700  1
  C  886  1  0.52913200  0.35373000  0.99929600  1
  C  888  1  0.49397800  0.33591900  0.98424600  1
  C  890  1  0.47732400  0.31760400  0.98587900  1
  C  897  1  0.27712000  0.74330900  0.89148200  1
  C  899  1  0.24188400  0.75817300  0.87411700  1
  C  900  1  0.23848300  0.77301800  0.89024300  1
  C  902  1  0.27411200  0.75840500  0.90772000  1
  C  904  1  0.29117300  0.76034700  0.92573200  1
  C  911  1  0.77715400  0.77444800  0.07891400  1
  C  913  1  0.74186600  0.75962600  0.09623800  1
  C  914  1  0.73850800  0.74474600  0.08013700  1
  C  916  1  0.77419100  0.75931500  0.06270500  1
  C  918  1  0.79130000  0.75734500  0.04473100  1
  C  925  1  0.52808600  0.35019500  0.47068500  1
  C  927  1  0.49027600  0.36641800  0.48179100  1
  C  928  1  0.48814600  0.35265700  0.49903200  1
  C  930  1  0.52619300  0.33634500  0.48803500  1
  C  932  1  0.54454900  0.31968200  0.49216300  1
  C  939  1  0.02811700  0.16685500  0.49965100  1
  C  941  1  0.99059100  0.15049200  0.48813000  1
  C  942  1  0.98818300  0.16472100  0.47129700  1
  C  944  1  0.02594900  0.18120600  0.48273700  1
  C  946  1  0.04406500  0.19815700  0.47905900  1
  C  953  1  0.74069300  0.27455300  0.07871800  1
  C  955  1  0.77547100  0.25930800  0.09643800  1
  C  956  1  0.77918400  0.24470300  0.08014800  1
  C  958  1  0.74402000  0.25968800  0.06230500  1
  C  960  1  0.72739100  0.25802200  0.04397400  1
  C  967  1  0.24067100  0.24323000  0.89163600  1
  C  969  1  0.27548900  0.25844000  0.87394600  1
  C  970  1  0.27916900  0.27307400  0.89021800  1
  C  972  1  0.24395900  0.25812400  0.90802600  1
  C  974  1  0.22729300  0.25981300  0.92633100  1
  C  981  1  0.49073100  0.66520200  0.50084100  1
  C  983  1  0.52596100  0.64780700  0.48598500  1
  C  984  1  0.52934300  0.66389700  0.47109600  1
  C  986  1  0.49367800  0.68136500  0.48565700  1
  C  988  1  0.47657500  0.69934200  0.48366600  1
  C  995  1  0.99068300  0.85258500  0.46957600  1
  C  997  1  0.02581400  0.87005700  0.48450500  1
  C  998  1  0.02930500  0.85390500  0.49930700  1
  C  1000  1  0.99377200  0.83632500  0.48463600  1
  C  1002  1  0.97681100  0.81824000  0.48653100  1
  C  1009  1  0.89308600  0.15684300  0.25764100  1
  C  1011  1  0.87408400  0.14485800  0.22585900  1
  C  1012  1  0.89197000  0.15511200  0.21361200  1
  C  1014  1  0.91096100  0.16765800  0.24543500  1
  C  1016  1  0.93032200  0.18131000  0.25445800  1
  C  1023  1  0.39301900  0.36094200  0.71272300  1
  C  1025  1  0.37402100  0.37289900  0.74451400  1
  C  1026  1  0.39192800  0.36266000  0.75675200  1
  C  1028  1  0.41091100  0.35013900  0.72491700  1
  C  1030  1  0.43029700  0.33652500  0.71587400  1
  C  1037  1  0.14383400  0.98672500  0.88308800  1
  C  1039  1  0.12489200  0.01840000  0.87073300  1
  C  1040  1  0.14239300  0.03075000  0.88133400  1
  C  1042  1  0.16124500  0.99904400  0.89432300  1
  C  1044  1  0.18027400  0.99018600  0.90841700  1
  C  1051  1  0.64384000  0.53103900  0.08722900  1
  C  1053  1  0.62491400  0.49937300  0.09961600  1
  C  1054  1  0.64241300  0.48701900  0.08901700  1
  C  1056  1  0.66128200  0.51872000  0.07603000  1
  C  1058  1  0.68031500  0.52756700  0.06193200  1
  C  1065  1  0.62501700  0.36083300  0.25692900  1
  C  1067  1  0.64408500  0.37278600  0.22518200  1
  C  1068  1  0.62613000  0.36263200  0.21292300  1
  C  1070  1  0.60706100  0.35013100  0.24471700  1
  C  1072  1  0.58759500  0.33659400  0.25375200  1
  C  1079  1  0.12492800  0.15692500  0.71340600  1
  C  1081  1  0.14400600  0.14494800  0.74514500  1
  C  1082  1  0.12608200  0.15512500  0.75741900  1
  C  1084  1  0.10701000  0.16765700  0.72563600  1
  C  1086  1  0.08755300  0.18121600  0.71661900  1
  C  1093  1  0.37394400  0.53061900  0.88304200  1
  C  1095  1  0.39300500  0.49901400  0.87064600  1
  C  1096  1  0.37554600  0.48660200  0.88122800  1
  C  1098  1  0.35657500  0.51823800  0.89425600  1
  C  1100  1  0.33751100  0.52703500  0.90835500  1
  C  1107  1  0.87399800  0.98716300  0.08729800  1
  C  1109  1  0.89305100  0.01876200  0.09970500  1
  C  1110  1  0.87557700  0.03117500  0.08914300  1
  C  1112  1  0.85658100  0.99954000  0.07613500  1
  C  1114  1  0.83749800  0.99074800  0.06205200  1
  C  1121  1  0.12395900  0.86097500  0.71307000  1
  C  1123  1  0.14308700  0.87314200  0.74473900  1
  C  1124  1  0.12541700  0.86275500  0.75709700  1
  C  1126  1  0.10632700  0.85000000  0.72539900  1
  C  1128  1  0.08706400  0.83612100  0.71656600  1
  C  1135  1  0.62397300  0.65679600  0.25730900  1
  C  1137  1  0.64308900  0.64463700  0.22563200  1
  C  1138  1  0.62541600  0.65502900  0.21328200  1
  C  1140  1  0.60634100  0.66778200  0.24498800  1
  C  1142  1  0.58706800  0.68164200  0.25383400  1
  C  1149  1  0.39385000  0.65685200  0.71351500  1
  C  1151  1  0.37455200  0.64472400  0.74512100  1
  C  1152  1  0.39221100  0.65506100  0.75753500  1
  C  1154  1  0.41142100  0.66783200  0.72590000  1
  C  1156  1  0.43073600  0.68168600  0.71711000  1
  C  1163  1  0.89384600  0.86087700  0.25687100  1
  C  1165  1  0.87455600  0.87303200  0.22527600  1
  C  1166  1  0.89221500  0.86270500  0.21285500  1
  C  1168  1  0.91145100  0.84993900  0.24448400  1
  C  1170  1  0.93077500  0.83608600  0.25325900  1
  C  1177  1  0.64308700  0.48653500  0.38317400  1
  C  1179  1  0.62385900  0.51829800  0.37139600  1
  C  1180  1  0.64190800  0.53056700  0.38140900  1
  C  1182  1  0.66112700  0.49876600  0.39376100  1
  C  1184  1  0.68071300  0.48977400  0.40720200  1
  C  1191  1  0.14315500  0.03123700  0.58718900  1
  C  1193  1  0.12394600  0.99947700  0.59900000  1
  C  1194  1  0.14197300  0.98720400  0.58895800  1
  C  1196  1  0.16116700  0.01900200  0.57657100  1
  C  1198  1  0.18073600  0.02798900  0.56311100  1
  C  1205  1  0.87492900  0.03052000  0.38317300  1
  C  1207  1  0.89421300  0.99878900  0.37141100  1
  C  1208  1  0.87613700  0.98650700  0.38138000  1
  C  1210  1  0.85690300  0.01827800  0.39375700  1
  C  1212  1  0.83728900  0.02728800  0.40715300  1
  C  1219  1  0.37505400  0.48726900  0.58714800  1
  C  1221  1  0.39435000  0.51900100  0.59888100  1
  C  1222  1  0.37621800  0.53127800  0.58897900  1
  C  1224  1  0.35693800  0.49950000  0.57666800  1
  C  1226  1  0.33726100  0.49048400  0.56334100  1
  N  786  1  0.75979000  0.24216000  0.37961500  1
  N  789  1  0.75653500  0.27497900  0.40597700  1
  N  797  1  0.79776600  0.23156500  0.39433900  1
  N  798  1  0.71922400  0.28628000  0.38975400  1
  N  800  1  0.25968100  0.27568900  0.59047100  1
  N  803  1  0.25665500  0.24266600  0.56434600  1
  N  811  1  0.29773600  0.28623600  0.57579200  1
  N  812  1  0.21922900  0.23147400  0.58045400  1
  N  814  1  0.01094700  0.86937000  0.97065300  1
  N  817  1  0.00495900  0.83829900  0.99862400  1
  N  825  1  0.04605400  0.85500800  0.95615400  1
  N  826  1  0.97001200  0.85578900  0.01331400  1
  N  828  1  0.51104500  0.64835000  0.99965200  1
  N  831  1  0.50488300  0.67953000  0.97182800  1
  N  839  1  0.54606000  0.66277700  0.01423200  1
  N  840  1  0.47003000  0.66197200  0.95705900  1
  N  842  1  0.25675200  0.77345100  0.59578300  1
  N  845  1  0.26285500  0.74559800  0.56462600  1
  N  853  1  0.22172000  0.78805000  0.58136300  1
  N  854  1  0.29773100  0.73082200  0.58216500  1
  N  856  1  0.75676700  0.74429400  0.37463300  1
  N  859  1  0.76275300  0.77224200  0.40572800  1
  N  867  1  0.72167300  0.72975000  0.38900600  1
  N  868  1  0.79769500  0.78696300  0.38824100  1
  N  870  1  0.00666400  0.14902200  0.99970200  1
  N  873  1  0.01282800  0.18026600  0.97195900  1
  N  881  1  0.97188400  0.16350500  0.01455200  1
  N  882  1  0.04745900  0.16258600  0.95696000  1
  N  884  1  0.50656800  0.36880100  0.97073200  1
  N  887  1  0.51288200  0.33746300  0.99834700  1
  N  895  1  0.47186700  0.35426300  0.95581300  1
  N  896  1  0.54743700  0.35519700  0.01341300  1
  N  898  1  0.26089500  0.74432200  0.87525200  1
  N  901  1  0.25508400  0.77239400  0.90626600  1
  N  909  1  0.29605400  0.72985000  0.88957400  1
  N  910  1  0.22007800  0.78705100  0.88885100  1
  N  912  1  0.76088200  0.77347200  0.09511500  1
  N  915  1  0.75515500  0.74533400  0.06414600  1
  N  923  1  0.79608700  0.78790300  0.08082500  1
  N  924  1  0.72009900  0.73072000  0.08152300  1
  N  926  1  0.50988700  0.36477700  0.46855400  1
  N  929  1  0.50646300  0.33819900  0.50118900  1
  N  937  1  0.54783300  0.35008700  0.45794000  1
  N  938  1  0.46919400  0.35446100  0.51254300  1
  N  940  1  0.01022100  0.15196700  0.50136300  1
  N  943  1  0.00623100  0.17947900  0.46954500  1
  N  951  1  0.04793100  0.16654100  0.51229200  1
  N  952  1  0.96926400  0.16300500  0.45774500  1
  N  954  1  0.75654300  0.27322900  0.09519400  1
  N  957  1  0.76295700  0.24562100  0.06386600  1
  N  965  1  0.72181800  0.28807800  0.08061600  1
  N  966  1  0.79752500  0.23062300  0.08162700  1
  N  968  1  0.25655700  0.24452200  0.87518300  1
  N  971  1  0.26290500  0.27218400  0.90647600  1
  N  979  1  0.22179600  0.22970700  0.88973300  1
  N  980  1  0.29751400  0.28714900  0.88874300  1
  N  982  1  0.50695600  0.64896700  0.49984100  1
  N  985  1  0.51270600  0.67989400  0.47167000  1
  N  993  1  0.47176800  0.66328000  0.51426800  1
  N  994  1  0.54773800  0.66247500  0.45705400  1
  N  996  1  0.00680700  0.86888700  0.47065100  1
  N  999  1  0.01278800  0.83781900  0.49863400  1
  N  1007  1  0.97174000  0.85448200  0.45612100  1
  N  1008  1  0.04769400  0.85533400  0.51335400  1
  N  1010  1  0.87526300  0.14623000  0.24708800  1
  N  1013  1  0.90945100  0.16624600  0.22411200  1
  N  1021  1  0.89069800  0.15755900  0.27848700  1
  N  1022  1  0.89045000  0.15437600  0.19272500  1
  N  1024  1  0.37518700  0.37153600  0.72328300  1
  N  1027  1  0.40941800  0.35154600  0.74624200  1
  N  1035  1  0.39062800  0.36022100  0.69187700  1
  N  1036  1  0.39041600  0.36339000  0.77763700  1
  N  1038  1  0.12621600  0.99718100  0.87213000  1
  N  1041  1  0.15960400  0.02035400  0.89285900  1
  N  1049  1  0.14149500  0.96587500  0.88374200  1
  N  1050  1  0.14074000  0.05162400  0.88057600  1
  N  1052  1  0.62623200  0.52059300  0.09820200  1
  N  1055  1  0.65963400  0.49741000  0.07749900  1
  N  1063  1  0.64152000  0.55189300  0.08659600  1
  N  1064  1  0.64076100  0.46614500  0.08977800  1
  N  1066  1  0.64291200  0.37138500  0.24640800  1
  N  1069  1  0.60857000  0.35156800  0.22339700  1
  N  1077  1  0.62732200  0.36002300  0.27777400  1
  N  1078  1  0.62766800  0.36338200  0.19204300  1
  N  1080  1  0.14281300  0.14635000  0.72391900  1
  N  1083  1  0.10853400  0.16621300  0.74695400  1
  N  1091  1  0.12722400  0.15772400  0.69256000  1
  N  1092  1  0.12763500  0.15437300  0.77829800  1
  N  1094  1  0.39160200  0.52022900  0.87207200  1
  N  1097  1  0.35829300  0.49693500  0.89276600  1
  N  1105  1  0.37618300  0.55147600  0.88372700  1
  N  1106  1  0.37727400  0.46573400  0.88043600  1
  N  1108  1  0.89166100  0.99754800  0.09826600  1
  N  1111  1  0.85830300  0.02084300  0.07763000  1
  N  1119  1  0.87621600  0.96630200  0.08663000  1
  N  1120  1  0.87730100  0.05204300  0.08993900  1
  N  1122  1  0.14173500  0.87174800  0.72351900  1
  N  1125  1  0.10800100  0.85145100  0.74670900  1
  N  1133  1  0.12624600  0.86035800  0.69221000  1
  N  1134  1  0.12708500  0.86349700  0.77797200  1
  N  1136  1  0.64174500  0.64602400  0.24685400  1
  N  1139  1  0.60800300  0.66633200  0.22367600  1
  N  1147  1  0.62626300  0.65741400  0.27816900  1
  N  1148  1  0.62707900  0.65428900  0.19240600  1
  N  1150  1  0.37598600  0.64612700  0.72390600  1
  N  1153  1  0.40967400  0.66636500  0.74720500  1
  N  1161  1  0.39162000  0.65756200  0.69265500  1
  N  1162  1  0.39044200  0.65432200  0.77840300  1
  N  1164  1  0.87598400  0.87161200  0.24648900  1
  N  1167  1  0.90969400  0.85141200  0.22318000  1
  N  1175  1  0.89163500  0.86018900  0.27773400  1
  N  1176  1  0.89044600  0.86345000  0.19198800  1
  N  1178  1  0.62507900  0.49707000  0.37277200  1
  N  1181  1  0.65957900  0.52008800  0.39234400  1
  N  1189  1  0.64072100  0.46568300  0.38392700  1
  N  1190  1  0.64034500  0.55145400  0.38069000  1
  N  1192  1  0.12516800  0.02070500  0.59762000  1
  N  1195  1  0.15962100  0.99767900  0.57799600  1
  N  1203  1  0.14078600  0.05208800  0.58643600  1
  N  1204  1  0.14040700  0.96631800  0.58968100  1
  N  1206  1  0.89298700  0.02001500  0.37280500  1
  N  1209  1  0.85845200  0.99695900  0.39232000  1
  N  1217  1  0.87724200  0.05136300  0.38403500  1
  N  1218  1  0.87774300  0.96563100  0.38066900  1
  N  1220  1  0.39314500  0.49777400  0.59747200  1
  N  1223  1  0.35847900  0.52081900  0.57810600  1
  N  1231  1  0.37735500  0.46642400  0.58628200  1
  N  1232  1  0.37781200  0.55215400  0.58968800  1
  O  793  1  0.79629900  0.24898600  0.43906900  1
  O  807  1  0.29673300  0.26843500  0.53131000  1
  O  821  1  0.03913900  0.80478300  0.96906600  1
  O  835  1  0.53879400  0.71310400  0.00148200  1
  O  849  1  0.22893600  0.77525900  0.53106200  1
  O  863  1  0.72863800  0.74262900  0.43923300  1
  O  877  1  0.97958700  0.21403000  0.00177900  1
  O  891  1  0.47986800  0.30365700  0.96844800  1
  O  905  1  0.28948300  0.74284900  0.93968900  1
  O  919  1  0.78969100  0.77484300  0.03076500  1
  O  933  1  0.54628300  0.30523600  0.47503500  1
  O  947  1  0.04560100  0.21215200  0.49657000  1
  O  961  1  0.72991500  0.27545200  0.03002400  1
  O  975  1  0.22975900  0.24238400  0.94028900  1
  O  989  1  0.47820000  0.71333400  0.50114000  1
  O  1003  1  0.97863900  0.80429800  0.46903000  1
  O  1017  1  0.92024700  0.19746800  0.26746400  1
  O  1031  1  0.42024900  0.32035400  0.70286900  1
  O  1045  1  0.16986700  0.97701500  0.92428600  1
  O  1059  1  0.66991300  0.54073000  0.04605400  1
  O  1073  1  0.59756100  0.32033000  0.26668900  1
  O  1087  1  0.09752500  0.19745700  0.70365800  1
  O  1101  1  0.34787100  0.54020000  0.92425300  1
  O  1115  1  0.84783800  0.97759900  0.04613300  1
  O  1129  1  0.09719800  0.82013000  0.70338500  1
  O  1143  1  0.59719400  0.69763100  0.26702000  1
  O  1157  1  0.42066300  0.69771200  0.70394200  1
  O  1171  1  0.92071500  0.82004700  0.26642100  1
  O  1185  1  0.67090500  0.47676900  0.42348300  1
  O  1199  1  0.17091300  0.04100600  0.54684800  1
  O  1213  1  0.84706800  0.04023900  0.42348700  1
  O  1227  1  0.34697000  0.47756500  0.54695100  1
