# generated using pymatgen
data_H24C39(NO)4
_symmetry_space_group_name_H-M   'P 1'
_cell_length_a   19.37560000
_cell_length_b   52.66870000
_cell_length_c   52.66870000
_cell_angle_alpha   90.00000000
_cell_angle_beta   90.00000000
_cell_angle_gamma   90.00000000
_symmetry_Int_Tables_number   1
_chemical_formula_structural   H24C39(NO)4
_chemical_formula_sum   'H384 C624 N64 O64'
_cell_volume   53747.75861417
_cell_formula_units_Z   16
loop_
 _symmetry_equiv_pos_site_id
 _symmetry_equiv_pos_as_xyz
  1  'x, y, z'
loop_
 _atom_site_type_symbol
 _atom_site_label
 _atom_site_symmetry_multiplicity
 _atom_site_fract_x
 _atom_site_fract_y
 _atom_site_fract_z
 _atom_site_occupancy
  C  1  1  0.19079400  0.07182100  0.99126100  1
  C  2  1  0.16422600  0.07861300  0.96745900  1
  C  3  1  0.20094800  0.09845900  0.95752300  1
  C  4  1  0.25775400  0.10358400  0.97304100  1
  C  5  1  0.30339900  0.12327800  0.96539200  1
  C  6  1  0.28921700  0.13755400  0.94302300  1
  C  7  1  0.22693300  0.13330300  0.92965700  1
  C  8  1  0.18323000  0.11341600  0.93646200  1
  C  9  1  0.10848900  0.06635400  0.95577300  1
  C  10  1  0.07593200  0.04672300  0.96876500  1
  C  11  1  0.09597100  0.03986500  0.99371200  1
  C  12  1  0.15395400  0.05270800  0.00481700  1
  C  13  1  0.32045400  0.07406100  0.00352500  1
  C  14  1  0.35106700  0.08577100  0.02458800  1
  C  15  1  0.31110100  0.10571500  0.03256400  1
  C  16  1  0.24928600  0.10596800  0.01882800  1
  C  17  1  0.32710900  0.12365700  0.05135600  1
  C  18  1  0.27736200  0.14169700  0.05773900  1
  C  19  1  0.21146400  0.14122900  0.04614300  1
  C  20  1  0.19790600  0.12374800  0.02612500  1
  C  21  1  0.35587300  0.05279200  0.99307000  1
  C  22  1  0.41692300  0.04273900  0.00472800  1
  C  23  1  0.44253300  0.05505300  0.02672000  1
  C  24  1  0.41099000  0.07674200  0.03645400  1
  C  37  1  0.25416300  0.08783000  0.99685800  1
  C  38  1  0.69056800  0.43082100  0.01147200  1
  C  39  1  0.66414900  0.42409500  0.03531700  1
  C  40  1  0.70096600  0.40428400  0.04527600  1
  C  41  1  0.75768600  0.39912700  0.02972600  1
  C  42  1  0.80338500  0.37945100  0.03737800  1
  C  43  1  0.78942700  0.36526300  0.05981800  1
  C  44  1  0.72737200  0.36960900  0.07329700  1
  C  45  1  0.68359000  0.38946500  0.06647500  1
  C  46  1  0.60840800  0.43636400  0.04699500  1
  C  47  1  0.57571600  0.45593500  0.03396000  1
  C  48  1  0.59557800  0.46270000  0.00897000  1
  C  49  1  0.65356000  0.44985700  0.99787000  1
  C  50  1  0.82010200  0.42852800  0.99904700  1
  C  51  1  0.85041900  0.41678500  0.97794500  1
  C  52  1  0.81046600  0.39676500  0.97013800  1
  C  53  1  0.74881700  0.39656200  0.98396800  1
  C  54  1  0.82630800  0.37870500  0.95144200  1
  C  55  1  0.77659900  0.36056200  0.94528800  1
  C  56  1  0.71076900  0.36107800  0.95696300  1
  C  57  1  0.69740400  0.37872800  0.97684400  1
  C  58  1  0.85570900  0.44978500  0.00943400  1
  C  59  1  0.91669300  0.45979500  0.99769200  1
  C  60  1  0.94215600  0.44739900  0.97572400  1
  C  61  1  0.91036800  0.42573300  0.96603500  1
  C  74  1  0.75388000  0.41478900  0.00585600  1
  C  75  1  0.43822400  0.26129000  0.82452600  1
  C  76  1  0.41104000  0.28487900  0.83175800  1
  C  77  1  0.44948600  0.29513900  0.85099500  1
  C  78  1  0.50705300  0.27980400  0.85551600  1
  C  79  1  0.55446900  0.28775900  0.87450800  1
  C  80  1  0.54167800  0.31038400  0.88853800  1
  C  81  1  0.47930200  0.32381900  0.88476300  1
  C  82  1  0.43349600  0.31658100  0.86568500  1
  C  83  1  0.35336900  0.29614900  0.82033900  1
  C  84  1  0.31994300  0.28307500  0.80096600  1
  C  85  1  0.34159200  0.25853100  0.79338000  1
  C  86  1  0.40119400  0.24774700  0.80546900  1
  C  87  1  0.56840200  0.24850100  0.82650600  1
  C  88  1  0.59906400  0.22791700  0.83907000  1
  C  89  1  0.55877900  0.22053100  0.85916900  1
  C  90  1  0.49702500  0.23427200  0.85880100  1
  C  91  1  0.57386200  0.20209500  0.87759200  1
  C  92  1  0.52324200  0.19608200  0.89545200  1
  C  93  1  0.45731000  0.20762100  0.89429200  1
  C  94  1  0.44467600  0.22723800  0.87628200  1
  C  95  1  0.60384100  0.25812100  0.80483900  1
  C  96  1  0.66551400  0.24627900  0.79553200  1
  C  97  1  0.69137900  0.22488700  0.80876900  1
  C  98  1  0.65930000  0.21582800  0.83063800  1
  C  111  1  0.50233700  0.25576700  0.84014100  1
  C  112  1  0.93809100  0.24133300  0.17804400  1
  C  113  1  0.91077300  0.21777800  0.17076100  1
  C  114  1  0.94914400  0.20754500  0.15148800  1
  C  115  1  0.00686400  0.22282300  0.14705200  1
  C  116  1  0.05440700  0.21482800  0.12812300  1
  C  117  1  0.04155500  0.19223900  0.11404700  1
  C  118  1  0.97916000  0.17880800  0.11778400  1
  C  119  1  0.93329400  0.18605800  0.13684100  1
  C  120  1  0.85296300  0.20655200  0.18212900  1
  C  121  1  0.81963300  0.21960900  0.20153500  1
  C  122  1  0.84143000  0.24412000  0.20917200  1
  C  123  1  0.90109400  0.25488200  0.19710400  1
  C  124  1  0.06839300  0.25405400  0.17608500  1
  C  125  1  0.09931300  0.27452900  0.16342900  1
  C  126  1  0.05907700  0.28192300  0.14331500  1
  C  127  1  0.99703100  0.26835900  0.14382000  1
  C  128  1  0.07432500  0.30029000  0.12483800  1
  C  129  1  0.02366100  0.30639800  0.10702900  1
  C  130  1  0.95762500  0.29496700  0.10827700  1
  C  131  1  0.94474900  0.27540300  0.12631400  1
  C  132  1  0.10373300  0.24447200  0.19779300  1
  C  133  1  0.16564500  0.25621700  0.20701300  1
  C  134  1  0.19186300  0.27746700  0.19363700  1
  C  135  1  0.15990400  0.28647200  0.17172400  1
  C  148  1  0.00225900  0.24684300  0.16246000  1
  C  149  1  0.81949000  0.92739000  0.01157600  1
  C  150  1  0.84839200  0.91470900  0.03252700  1
  C  151  1  0.80590200  0.89558000  0.04061300  1
  C  152  1  0.74525800  0.89616300  0.02627400  1
  C  153  1  0.69196000  0.87891500  0.03300800  1
  C  154  1  0.70150200  0.86190500  0.05367200  1
  C  155  1  0.76504900  0.86125400  0.06678500  1
  C  156  1  0.81747500  0.87823700  0.06044100  1
  C  157  1  0.90922500  0.92217600  0.04475300  1
  C  158  1  0.94416500  0.94328000  0.03561300  1
  C  159  1  0.91982800  0.95710600  0.01434700  1
  C  160  1  0.85661400  0.94904200  0.00250000  1
  C  161  1  0.68759500  0.92696300  0.99571700  1
  C  162  1  0.65593400  0.91249300  0.97654800  1
  C  163  1  0.69785600  0.89278900  0.96937500  1
  C  164  1  0.76101300  0.89506500  0.98201400  1
  C  165  1  0.68302300  0.87313000  0.95220900  1
  C  166  1  0.73459800  0.85549500  0.94671400  1
  C  167  1  0.80105000  0.85801300  0.95757300  1
  C  168  1  0.81397800  0.87757500  0.97558900  1
  C  169  1  0.65205600  0.94949400  0.00336000  1
  C  170  1  0.58709800  0.95646400  0.99216500  1
  C  171  1  0.55924300  0.94064400  0.97297700  1
  C  172  1  0.59303900  0.91876400  0.96506500  1
  C  185  1  0.75379700  0.91354500  0.00370000  1
  C  186  1  0.31907400  0.57520500  0.99101400  1
  C  187  1  0.34806000  0.58774400  0.96999400  1
  C  188  1  0.30589400  0.60694100  0.96185800  1
  C  189  1  0.24523400  0.60651000  0.97618500  1
  C  190  1  0.19185300  0.62363100  0.96919500  1
  C  191  1  0.20159100  0.64049300  0.94841900  1
  C  192  1  0.26538200  0.64115000  0.93547100  1
  C  193  1  0.31772800  0.62419800  0.94197500  1
  C  194  1  0.40893600  0.58020600  0.95784100  1
  C  195  1  0.44365800  0.55908700  0.96705300  1
  C  196  1  0.41925100  0.54539600  0.98839400  1
  C  197  1  0.35607000  0.55356600  0.00019600  1
  C  198  1  0.18694600  0.57579200  0.00669000  1
  C  199  1  0.15491000  0.59045000  0.02563400  1
  C  200  1  0.19699800  0.61007000  0.03291100  1
  C  201  1  0.26031100  0.60769700  0.02040500  1
  C  202  1  0.18227400  0.62968000  0.05014300  1
  C  203  1  0.23425800  0.64704500  0.05594800  1
  C  204  1  0.30090700  0.64435300  0.04531200  1
  C  205  1  0.31371700  0.62488400  0.02717000  1
  C  206  1  0.15165700  0.55313500  0.99924100  1
  C  207  1  0.08650400  0.54625300  0.01034300  1
  C  208  1  0.05824700  0.56229600  0.02926700  1
  C  209  1  0.09184600  0.58426400  0.03703600  1
  C  222  1  0.25337200  0.58912000  0.99878700  1
  C  223  1  0.56420600  0.74405900  0.17982100  1
  C  224  1  0.59415300  0.72142500  0.17121400  1
  C  225  1  0.55655500  0.71164100  0.15154500  1
  C  226  1  0.49645200  0.72595900  0.14821400  1
  C  227  1  0.44900700  0.71769800  0.12935100  1
  C  228  1  0.46429800  0.69587500  0.11435200  1
  C  229  1  0.52918500  0.68382800  0.11685900  1
  C  230  1  0.57500000  0.69123800  0.13582500  1
  C  231  1  0.65265800  0.71025100  0.18214500  1
  C  232  1  0.68421800  0.72253200  0.20242400  1
  C  233  1  0.66008400  0.74629700  0.21135300  1
  C  234  1  0.59964200  0.75696400  0.19972600  1
  C  235  1  0.43358900  0.75435900  0.18018400  1
  C  236  1  0.40203500  0.77647500  0.17104500  1
  C  237  1  0.43876500  0.78605700  0.15107500  1
  C  238  1  0.49975000  0.77221800  0.14785700  1
  C  239  1  0.41887900  0.80611500  0.13520400  1
  C  240  1  0.46419900  0.81376800  0.11623900  1
  C  241  1  0.52994600  0.80228900  0.11362400  1
  C  242  1  0.54640800  0.78061600  0.12874000  1
  C  243  1  0.39977500  0.74197600  0.20081200  1
  C  244  1  0.33889800  0.75248500  0.21222900  1
  C  245  1  0.31292700  0.77570600  0.20263800  1
  C  246  1  0.34319400  0.78755000  0.18186200  1
  C  259  1  0.49863000  0.74920000  0.16488900  1
  C  260  1  0.06403900  0.75873700  0.82269600  1
  C  261  1  0.09382700  0.78147400  0.83110700  1
  C  262  1  0.05634700  0.79133200  0.85076200  1
  C  263  1  0.99639100  0.77697600  0.85425300  1
  C  264  1  0.94941900  0.78513400  0.87331800  1
  C  265  1  0.96496200  0.80693100  0.88831300  1
  C  266  1  0.02977200  0.81900100  0.88564000  1
  C  267  1  0.07520100  0.81165100  0.86652600  1
  C  268  1  0.15213300  0.79265700  0.82004700  1
  C  269  1  0.18371200  0.78026800  0.79984200  1
  C  270  1  0.15983900  0.75638100  0.79114400  1
  C  271  1  0.09955500  0.74571800  0.80288300  1
  C  272  1  0.93344400  0.74831900  0.82258200  1
  C  273  1  0.90193000  0.72630400  0.83198200  1
  C  274  1  0.93886000  0.71691200  0.85200000  1
  C  275  1  0.99992400  0.73076600  0.85495200  1
  C  276  1  0.91926800  0.69698700  0.86809700  1
  C  277  1  0.96503200  0.68945100  0.88697700  1
  C  278  1  0.03081000  0.70095900  0.88928700  1
  C  279  1  0.04710400  0.72245800  0.87392000  1
  C  280  1  0.89948200  0.76052200  0.80188800  1
  C  281  1  0.83861200  0.74989500  0.79057800  1
  C  282  1  0.81265500  0.72678100  0.80043800  1
  C  283  1  0.84303800  0.71513100  0.82131000  1
  C  296  1  0.99861500  0.75363000  0.83773100  1
  C  297  1  0.68730900  0.57334600  0.49493000  1
  C  298  1  0.65708800  0.58180500  0.47228300  1
  C  299  1  0.69491600  0.60123800  0.46217200  1
  C  300  1  0.75510000  0.60466900  0.47641200  1
  C  301  1  0.80237400  0.62354100  0.46807300  1
  C  302  1  0.78684200  0.63844800  0.44622700  1
  C  303  1  0.72199900  0.63580300  0.43418000  1
  C  304  1  0.67629000  0.61685600  0.44171000  1
  C  305  1  0.59787500  0.57105900  0.46144700  1
  C  306  1  0.56619500  0.55096100  0.47396900  1
  C  307  1  0.59092800  0.54203900  0.49765400  1
  C  308  1  0.65181900  0.55360400  0.50805700  1
  C  309  1  0.81844800  0.57325500  0.50521100  1
  C  310  1  0.85049100  0.58310600  0.52693400  1
  C  311  1  0.81357300  0.60319100  0.53613500  1
  C  312  1  0.75198400  0.60572600  0.52251900  1
  C  313  1  0.83370400  0.61974800  0.55560900  1
  C  314  1  0.78793000  0.63868300  0.56298500  1
  C  315  1  0.72172600  0.64056700  0.55175100  1
  C  316  1  0.70481600  0.62475500  0.53066100  1
  C  317  1  0.85251900  0.55246700  0.49321500  1
  C  318  1  0.91406800  0.54160300  0.50377800  1
  C  319  1  0.94036100  0.55181900  0.52667400  1
  C  320  1  0.90980000  0.57275800  0.53811100  1
  C  333  1  0.75305400  0.58827600  0.49984200  1
  C  334  1  0.18706900  0.92947600  0.50791100  1
  C  335  1  0.15707700  0.92120200  0.53067000  1
  C  336  1  0.19489300  0.90180700  0.54085500  1
  C  337  1  0.25485900  0.89822600  0.52653500  1
  C  338  1  0.30200700  0.87930400  0.53484900  1
  C  339  1  0.28658600  0.86451600  0.55677700  1
  C  340  1  0.22204600  0.86736400  0.56899100  1
  C  341  1  0.17645600  0.88635400  0.56146600  1
  C  342  1  0.09799800  0.93204300  0.54151200  1
  C  343  1  0.06615300  0.95202300  0.52886500  1
  C  344  1  0.09056100  0.96072300  0.50505200  1
  C  345  1  0.15143100  0.94911400  0.49467700  1
  C  346  1  0.31820100  0.92922200  0.49733900  1
  C  347  1  0.35006600  0.91894300  0.47577600  1
  C  348  1  0.31280000  0.89877500  0.46691300  1
  C  349  1  0.25107600  0.89672800  0.48052700  1
  C  350  1  0.33238000  0.88181600  0.44769500  1
  C  351  1  0.28607000  0.86290400  0.44065100  1
  C  352  1  0.21988800  0.86149900  0.45195700  1
  C  353  1  0.20324800  0.87783700  0.47265100  1
  C  354  1  0.35260100  0.95011300  0.50902200  1
  C  355  1  0.41427700  0.96070800  0.49829000  1
  C  356  1  0.44055800  0.95000100  0.47561100  1
  C  357  1  0.40966800  0.92894100  0.46449400  1
  C  370  1  0.25261900  0.91443300  0.50298400  1
  C  371  1  0.93323900  0.76050900  0.32527100  1
  C  372  1  0.90358600  0.78132400  0.33795800  1
  C  373  1  0.94622500  0.78978200  0.35685900  1
  C  374  1  0.00743400  0.77576700  0.35617400  1
  C  375  1  0.06100300  0.78302100  0.37310200  1
  C  376  1  0.05092700  0.80375300  0.38997200  1
  C  377  1  0.98670600  0.81639400  0.39086600  1
  C  378  1  0.93413200  0.80962900  0.37412700  1
  C  379  1  0.84200600  0.79316000  0.33066500  1
  C  380  1  0.80726100  0.78388300  0.30958100  1
  C  381  1  0.83281900  0.76293900  0.29559700  1
  C  382  1  0.89653600  0.75139100  0.30354700  1
  C  383  1  0.06562700  0.74446500  0.32612900  1
  C  384  1  0.09722200  0.72583600  0.34132800  1
  C  385  1  0.05492300  0.71921300  0.36108900  1
  C  386  1  0.99175800  0.73170200  0.35820300  1
  C  387  1  0.06924500  0.70255400  0.38122700  1
  C  388  1  0.01688600  0.69724500  0.39859500  1
  C  389  1  0.95028100  0.70775600  0.39533900  1
  C  390  1  0.93792000  0.72535700  0.37535200  1
  C  391  1  0.10137400  0.75120700  0.30335100  1
  C  392  1  0.16637200  0.73973000  0.29691300  1
  C  393  1  0.19396000  0.72107200  0.31339500  1
  C  394  1  0.15995200  0.71399700  0.33550100  1
  C  407  1  0.99917000  0.75289500  0.33915000  1
  C  408  1  0.43322300  0.74204600  0.67741000  1
  C  409  1  0.40394000  0.72110000  0.66482000  1
  C  410  1  0.44647600  0.71276700  0.64582800  1
  C  411  1  0.50723900  0.72704100  0.64633300  1
  C  412  1  0.56066300  0.72002400  0.62925800  1
  C  413  1  0.55090300  0.69928700  0.61237700  1
  C  414  1  0.48720200  0.68628100  0.61173700  1
  C  415  1  0.43474700  0.69282700  0.62862600  1
  C  416  1  0.34247900  0.70919200  0.67213800  1
  C  417  1  0.30760600  0.71847600  0.69319600  1
  C  418  1  0.33283900  0.73953600  0.70707900  1
  C  419  1  0.39634600  0.75119600  0.69907800  1
  C  420  1  0.56553200  0.75815800  0.67645100  1
  C  421  1  0.59714200  0.77674800  0.66121500  1
  C  422  1  0.55467600  0.78343300  0.64152000  1
  C  423  1  0.49125600  0.77114100  0.64460100  1
  C  424  1  0.56909800  0.79997300  0.62129000  1
  C  425  1  0.51667500  0.80532500  0.60396400  1
  C  426  1  0.45001700  0.79491100  0.60734000  1
  C  427  1  0.43751100  0.77739900  0.62738200  1
  C  428  1  0.60146700  0.75136300  0.69917400  1
  C  429  1  0.66665633  0.76275700  0.70552700  1
  C  430  1  0.69439800  0.78128400  0.68892700  1
  C  431  1  0.66026200  0.78838700  0.66685700  1
  C  444  1  0.49892500  0.74981700  0.66347800  1
  C  445  1  0.32206300  0.42636900  0.50751800  1
  C  446  1  0.35490800  0.41141100  0.52604100  1
  C  447  1  0.31117400  0.39289800  0.53467400  1
  C  448  1  0.24675600  0.39607400  0.52310600  1
  C  449  1  0.19186400  0.38032700  0.53158700  1
  C  450  1  0.20360000  0.36243500  0.55137300  1
  C  451  1  0.27070400  0.35894800  0.56127300  1
  C  452  1  0.32476200  0.37437000  0.55318800  1
  C  453  1  0.41901500  0.41708800  0.53687900  1
  C  454  1  0.45247300  0.43909200  0.52928200  1
  C  455  1  0.42298500  0.45579500  0.51119400  1
  C  456  1  0.35703900  0.44923300  0.50044300  1
  C  457  1  0.18833400  0.42795500  0.49299500  1
  C  458  1  0.15586300  0.41449500  0.47326600  1
  C  459  1  0.19532500  0.39432400  0.46583300  1
  C  460  1  0.25832400  0.39524800  0.47870200  1
  C  461  1  0.17814100  0.37541300  0.44812200  1
  C  462  1  0.22742200  0.35710000  0.44220000  1
  C  463  1  0.29385800  0.35822400  0.45322400  1
  C  464  1  0.30908700  0.37701200  0.47180400  1
  C  465  1  0.15363500  0.45040200  0.50141800  1
  C  466  1  0.08943700  0.45825000  0.49021200  1
  C  467  1  0.06194600  0.44382900  0.46992400  1
  C  468  1  0.09443300  0.42196800  0.46142200  1
  C  481  1  0.25372900  0.41370300  0.50065400  1
  C  482  1  0.82162500  0.07636900  0.49500000  1
  C  483  1  0.85449800  0.09130700  0.47646700  1
  C  484  1  0.81099000  0.10991900  0.46790200  1
  C  485  1  0.74664900  0.10684300  0.47954500  1
  C  486  1  0.69159500  0.12243400  0.47091200  1
  C  487  1  0.70322600  0.14019300  0.45100200  1
  C  488  1  0.77030000  0.14364800  0.44106500  1
  C  489  1  0.82444000  0.12830500  0.44923300  1
  C  490  1  0.91887800  0.08572800  0.46580100  1
  C  491  1  0.95222200  0.06369100  0.47337400  1
  C  492  1  0.92267200  0.04698400  0.49144600  1
  C  493  1  0.85671800  0.05356200  0.50217900  1
  C  494  1  0.68775800  0.07481100  0.50934600  1
  C  495  1  0.65488400  0.08828100  0.52897500  1
  C  496  1  0.69445500  0.10833600  0.53664300  1
  C  497  1  0.75764200  0.10744400  0.52390000  1
  C  498  1  0.67720800  0.12710600  0.55448900  1
  C  499  1  0.72678600  0.14516400  0.56080600  1
  C  500  1  0.79351700  0.14396000  0.55003300  1
  C  501  1  0.80870900  0.12542200  0.53118700  1
  C  502  1  0.65331000  0.05232500  0.50087600  1
  C  503  1  0.58895100  0.04444600  0.51193800  1
  C  504  1  0.56105500  0.05889200  0.53213400  1
  C  505  1  0.59329700  0.08078000  0.54068600  1
  C  518  1  0.75333800  0.08905700  0.50188500  1
  C  519  1  0.07102600  0.24499000  0.67851100  1
  C  520  1  0.10388700  0.22623100  0.66387500  1
  C  521  1  0.06123500  0.21793200  0.64490300  1
  C  522  1  0.99708700  0.22982300  0.64745700  1
  C  523  1  0.94302500  0.22165000  0.63116800  1
  C  524  1  0.95556100  0.20203700  0.61316100  1
  C  525  1  0.02268700  0.19199600  0.61015600  1
  C  526  1  0.07576000  0.19964800  0.62624700  1
  C  527  1  0.16750200  0.21523400  0.66996200  1
  C  528  1  0.20065700  0.22308700  0.69193500  1
  C  529  1  0.17170900  0.24178100  0.70810000  1
  C  530  1  0.10614200  0.25260900  0.70117000  1
  C  531  1  0.93738900  0.25857900  0.68015600  1
  C  532  1  0.90438900  0.27874600  0.66757700  1
  C  533  1  0.94373700  0.28724700  0.64778200  1
  C  534  1  0.00686800  0.27441000  0.64789400  1
  C  535  1  0.92593400  0.30575300  0.62973500  1
  C  536  1  0.97460600  0.31247600  0.61149800  1
  C  537  1  0.04098900  0.30136900  0.61173500  1
  C  538  1  0.05674900  0.28186600  0.62952600  1
  C  539  1  0.90312900  0.24907600  0.70226400  1
  C  540  1  0.83845500  0.25956000  0.71057200  1
  C  541  1  0.81004600  0.28020100  0.69689600  1
  C  542  1  0.84225900  0.28981500  0.67543900  1
  C  555  1  0.00305200  0.25187300  0.66562500  1
  C  556  1  0.57124000  0.25770000  0.32420600  1
  C  557  1  0.60459400  0.27618300  0.33903800  1
  C  558  1  0.56196900  0.28454700  0.35799100  1
  C  559  1  0.49729400  0.27311300  0.35511200  1
  C  560  1  0.44351400  0.28130400  0.37152800  1
  C  561  1  0.45657800  0.30068200  0.38974200  1
  C  562  1  0.52407500  0.31031700  0.39294700  1
  C  563  1  0.57702300  0.30254600  0.37686500  1
  C  564  1  0.66839800  0.28707800  0.33305200  1
  C  565  1  0.70120200  0.27942400  0.31094000  1
  C  566  1  0.67186400  0.26097700  0.29458100  1
  C  567  1  0.60607500  0.25026600  0.30142600  1
  C  568  1  0.43734100  0.24428600  0.32252000  1
  C  569  1  0.40400600  0.22426400  0.33521800  1
  C  570  1  0.44326800  0.21575800  0.35503800  1
  C  571  1  0.50649100  0.22852700  0.35488600  1
  C  572  1  0.42544600  0.19725800  0.37308900  1
  C  573  1  0.47425900  0.19042800  0.39124000  1
  C  574  1  0.54076400  0.20144400  0.39094000  1
  C  575  1  0.55657000  0.22090500  0.37311400  1
  C  576  1  0.40336600  0.25368000  0.30030700  1
  C  577  1  0.33854300  0.24328500  0.29204800  1
  C  578  1  0.30971800  0.22281900  0.30587100  1
  C  579  1  0.34175400  0.21326100  0.32739000  1
  C  592  1  0.50304800  0.25098000  0.33702800  1
  C  593  1  0.05517500  0.01991400  0.00451400  1
  C  595  1  0.93790500  0.00332500  0.00452100  1
  C  596  1  0.96213800  0.97835900  0.00761400  1
  C  598  1  0.07989600  0.99479600  0.00818200  1
  C  599  1  0.14764400  0.98714300  0.01124400  1
  C  603  1  0.20271100  0.99583700  0.04945200  1
  C  604  1  0.25444200  0.01460700  0.06137800  1
  C  610  1  0.55481800  0.48263400  0.99814300  1
  C  612  1  0.43744900  0.49918100  0.99818900  1
  C  613  1  0.46154200  0.52418600  0.99526900  1
  C  615  1  0.57936700  0.50780100  0.99466100  1
  C  616  1  0.64707800  0.51547900  0.99155100  1
  C  620  1  0.70195200  0.50684000  0.95329500  1
  C  621  1  0.75352900  0.48806200  0.94128800  1
  C  627  1  0.30253300  0.24820300  0.77273100  1
  C  629  1  0.18631000  0.24808100  0.75525700  1
  C  630  1  0.21208500  0.24701200  0.73031600  1
  C  632  1  0.32908000  0.24650900  0.74768700  1
  C  633  1  0.39846800  0.24518600  0.74133800  1
  C  637  1  0.43983400  0.20316400  0.74554000  1
  C  638  1  0.48491200  0.18728100  0.76367200  1
  C  644  1  0.80249000  0.25447800  0.22983100  1
  C  646  1  0.68624000  0.25460100  0.24738200  1
  C  647  1  0.71214000  0.25591700  0.27228900  1
  C  649  1  0.82905400  0.25628300  0.25486500  1
  C  650  1  0.89845600  0.25754800  0.26121800  1
  C  654  1  0.94021000  0.29950400  0.25689500  1
  C  655  1  0.98575900  0.31524400  0.23879700  1
  C  661  1  0.95489200  0.48188600  0.00515200  1
  C  663  1  0.07142800  0.49913000  0.00602800  1
  C  664  1  0.04604700  0.52412000  0.00511000  1
  C  666  1  0.92900000  0.50710800  0.00447700  1
  C  667  1  0.86091600  0.51484900  0.00346600  1
  C  671  1  0.80407400  0.51141600  0.04234600  1
  C  672  1  0.74404000  0.49710800  0.05518600  1
  C  678  1  0.45507700  0.02066600  0.99720500  1
  C  680  1  0.57171300  0.00355100  0.99625800  1
  C  681  1  0.54661400  0.97854000  0.99753600  1
  C  683  1  0.42940800  0.99542100  0.99811500  1
  C  684  1  0.36135400  0.98764800  0.99916500  1
  C  688  1  0.30431800  0.99106000  0.96032200  1
  C  689  1  0.24414500  0.00532200  0.94751800  1
  C  695  1  0.70467400  0.25316600  0.77353200  1
  C  697  1  0.82198800  0.25507200  0.75725800  1
  C  698  1  0.79843400  0.25234000  0.73215800  1
  C  700  1  0.68063800  0.25076200  0.74817700  1
  C  701  1  0.61301000  0.24923000  0.74006000  1
  C  705  1  0.56244600  0.28953100  0.74108400  1
  C  706  1  0.50115400  0.30390500  0.75299600  1
  C  712  1  0.20475500  0.24942300  0.22906000  1
  C  714  1  0.32198600  0.24730600  0.24532000  1
  C  715  1  0.29870400  0.25047100  0.27041500  1
  C  717  1  0.18079800  0.25216300  0.25438600  1
  C  718  1  0.11317600  0.25384700  0.26251800  1
  C  722  1  0.06306200  0.21343200  0.26185000  1
  C  723  1  0.00166500  0.19890900  0.25019600  1
  C  729  1  0.69888800  0.75612500  0.23230300  1
  C  731  1  0.81596300  0.75702300  0.24894100  1
  C  732  1  0.79152500  0.75647800  0.27406200  1
  C  734  1  0.67371700  0.75640200  0.25763300  1
  C  735  1  0.60460500  0.75672500  0.26452000  1
  C  739  1  0.55598700  0.79761600  0.26069200  1
  C  740  1  0.50490000  0.81224900  0.24368800  1
  C  746  1  0.19874700  0.74645300  0.77027200  1
  C  748  1  0.31577100  0.74550600  0.75368700  1
  C  749  1  0.29140200  0.74604700  0.72855100  1
  C  751  1  0.17354500  0.74612100  0.74495100  1
  C  752  1  0.10444900  0.74579800  0.73805100  1
  C  756  1  0.05500600  0.70509800  0.74217700  1
  C  757  1  0.00350400  0.69072400  0.75923700  1
  C  763  1  0.30129400  0.74301600  0.23357500  1
  C  765  1  0.18402900  0.74140100  0.24985100  1
  C  766  1  0.20759400  0.74446700  0.27492000  1
  C  768  1  0.32552200  0.74545400  0.25888100  1
  C  769  1  0.39343500  0.74708700  0.26674500  1
  C  773  1  0.45130800  0.70852900  0.26193000  1
  C  774  1  0.51403200  0.69675200  0.24829700  1
  C  780  1  0.80083800  0.75919900  0.76919900  1
  C  782  1  0.68371200  0.76064700  0.75261400  1
  C  783  1  0.70785000  0.75813200  0.72756300  1
  C  785  1  0.82549000  0.75725100  0.74388600  1
  C  786  1  0.89348300  0.75577200  0.73608300  1
  C  790  1  0.95190200  0.79419900  0.74088600  1
  C  791  1  0.01402600  0.80597200  0.75489300  1
  C  797  1  0.55333200  0.52073100  0.50737600  1
  C  799  1  0.43710900  0.50315900  0.50772500  1
  C  800  1  0.46302400  0.47824200  0.50673200  1
  C  802  1  0.57995000  0.49562700  0.50704700  1
  C  803  1  0.64943400  0.48922600  0.50709100  1
  C  807  1  0.69616800  0.49242200  0.54841500  1
  C  808  1  0.74557000  0.50952500  0.56369700  1
  C  814  1  0.05289600  0.98198000  0.49527900  1
  C  816  1  0.93669400  0.99961500  0.49498700  1
  C  817  1  0.96264700  0.02452400  0.49595100  1
  C  819  1  0.07951500  0.00709000  0.49555600  1
  C  820  1  0.14902500  0.01344900  0.49538500  1
  C  824  1  0.19490800  0.01031400  0.45392100  1
  C  825  1  0.24329800  0.99303400  0.43839900  1
  C  831  1  0.45291800  0.98205000  0.50711300  1
  C  833  1  0.57067200  0.99772200  0.50931200  1
  C  834  1  0.54823800  0.02282100  0.50548800  1
  C  836  1  0.42988900  0.00742900  0.50390300  1
  C  837  1  0.36228400  0.01564600  0.50235000  1
  C  841  1  0.30820400  0.01248500  0.54185900  1
  C  842  1  0.24610100  0.99970400  0.55496400  1
  C  848  1  0.95246900  0.52033800  0.49464300  1
  C  850  1  0.07031900  0.50489200  0.49237800  1
  C  851  1  0.04842900  0.47978000  0.49663500  1
  C  853  1  0.92982300  0.49497500  0.49823700  1
  C  854  1  0.86224800  0.48669100  0.49985300  1
  C  858  1  0.80774900  0.48993600  0.46042500  1
  C  859  1  0.74577700  0.50286600  0.44738500  1
  C  865  1  0.33622500  0.15459900  0.93153800  1
  C  867  1  0.38569800  0.19628000  0.93179900  1
  C  868  1  0.40418100  0.19377000  0.90604700  1
  C  870  1  0.35845900  0.15118100  0.90597900  1
  C  871  1  0.35105300  0.12879200  0.89212000  1
  C  875  1  0.33160500  0.08507200  0.89753300  1
  C  876  1  0.35145400  0.06338400  0.91568300  1
  C  882  1  0.83644700  0.34817500  0.07122500  1
  C  884  1  0.88552200  0.30642700  0.07093100  1
  C  885  1  0.90459000  0.30895200  0.09662800  1
  C  887  1  0.85910200  0.35159400  0.09673400  1
  C  888  1  0.85212700  0.37401000  0.11057800  1
  C  892  1  0.83285800  0.41773000  0.10511700  1
  C  893  1  0.85260400  0.43936900  0.08689100  1
  C  899  1  0.59011200  0.32204700  0.90485300  1
  C  901  1  0.63798200  0.32345200  0.94680200  1
  C  902  1  0.65841500  0.34885200  0.94309200  1
  C  904  1  0.61378600  0.34724800  0.90033600  1
  C  905  1  0.60689400  0.36032200  0.87748500  1
  C  909  1  0.58114200  0.35394100  0.83432900  1
  C  910  1  0.59668200  0.33512700  0.81273500  1
  C  916  1  0.09023000  0.18049200  0.09790300  1
  C  918  1  0.13790400  0.17871500  0.05592800  1
  C  919  1  0.15925000  0.15348500  0.06006600  1
  C  921  1  0.11435300  0.15540700  0.10273100  1
  C  922  1  0.10729800  0.14249400  0.12566900  1
  C  926  1  0.08024400  0.14892100  0.16870400  1
  C  927  1  0.09465500  0.16783500  0.19030900  1
  C  933  1  0.64768800  0.84826300  0.06515300  1
  C  935  1  0.61338200  0.80589800  0.07703700  1
  C  936  1  0.57663600  0.81563800  0.09787100  1
  C  938  1  0.61142800  0.85843600  0.08631200  1
  C  939  1  0.60956400  0.88359100  0.09477900  1
  C  943  1  0.67739400  0.92006700  0.09284900  1
  C  944  1  0.69000400  0.94357200  0.07610500  1
  C  950  1  0.14800000  0.65425800  0.93691200  1
  C  952  1  0.11207700  0.69670800  0.92633200  1
  C  953  1  0.07817300  0.68750300  0.90461700  1
  C  955  1  0.11425000  0.64458400  0.91496300  1
  C  956  1  0.11466800  0.61967900  0.90574500  1
  C  960  1  0.17850700  0.58231800  0.90938900  1
  C  961  1  0.18737300  0.55905100  0.92676700  1
  C  967  1  0.41708000  0.68365500  0.09793400  1
  C  969  1  0.36771800  0.68290100  0.05627600  1
  C  970  1  0.35358200  0.65677000  0.05874400  1
  C  972  1  0.39932000  0.65759400  0.10126200  1
  C  973  1  0.41010600  0.64371600  0.12343900  1
  C  977  1  0.43729000  0.64819200  0.16667800  1
  C  978  1  0.42024800  0.66554500  0.18929900  1
  C  984  1  0.91796400  0.81910900  0.90483900  1
  C  986  1  0.86752000  0.81946000  0.94633100  1
  C  987  1  0.85374000  0.84563900  0.94410900  1
  C  989  1  0.90053300  0.84523100  0.90176700  1
  C  990  1  0.91191300  0.85931000  0.87975000  1
  C  994  1  0.93460700  0.85434500  0.83624100  1
  C  995  1  0.91367900  0.83718400  0.81390900  1
  C  1001  1  0.83374300  0.65502100  0.43411200  1
  C  1003  1  0.88322000  0.69662100  0.43375900  1
  C  1004  1  0.89721800  0.69444500  0.40758900  1
  C  1006  1  0.85145800  0.65191100  0.40803000  1
  C  1007  1  0.84073400  0.62981600  0.39400300  1
  C  1011  1  0.81783100  0.58636400  0.39921100  1
  C  1012  1  0.83852000  0.56410600  0.41650600  1
  C  1018  1  0.33339167  0.84789100  0.56881100  1
  C  1020  1  0.38217900  0.80616200  0.56914500  1
  C  1021  1  0.39701300  0.80838600  0.59525100  1
  C  1023  1  0.35183600  0.85102400  0.59482000  1
  C  1024  1  0.34187100  0.87320000  0.60879600  1
  C  1028  1  0.31938900  0.91666000  0.60340000  1
  C  1029  1  0.34005100  0.93879900  0.58594200  1
  C  1035  1  0.10422200  0.81533100  0.40378100  1
  C  1037  1  0.14270500  0.82381000  0.44635100  1
  C  1038  1  0.17151700  0.84694000  0.43831700  1
  C  1040  1  0.13406300  0.83848900  0.39524400  1
  C  1041  1  0.13002700  0.84880800  0.37083700  1
  C  1045  1  0.07397800  0.84259900  0.33206300  1
  C  1046  1  0.07242300  0.82445800  0.30916700  1
  C  1052  1  0.60454800  0.68782600  0.59867300  1
  C  1054  1  0.64013200  0.67740300  0.55615000  1
  C  1055  1  0.67437300  0.65574300  0.56529800  1
  C  1057  1  0.63856500  0.66590200  0.60824800  1
  C  1058  1  0.63822200  0.65667500  0.63314500  1
  C  1062  1  0.57566800  0.66086700  0.67074600  1
  C  1063  1  0.56803600  0.67845300  0.69391700  1
  C  1069  1  0.15126500  0.34950900  0.56456300  1
  C  1071  1  0.10541900  0.30778100  0.57164900  1
  C  1072  1  0.09031900  0.31411600  0.59699800  1
  C  1074  1  0.13384800  0.35651400  0.58988600  1
  C  1075  1  0.14797700  0.37984800  0.60131200  1
  C  1079  1  0.19885000  0.41910700  0.59243200  1
  C  1080  1  0.19075500  0.44221500  0.57482700  1
  C  1086  1  0.65079100  0.15317200  0.43788800  1
  C  1088  1  0.60523900  0.19493200  0.43099400  1
  C  1089  1  0.59014800  0.18865500  0.40563800  1
  C  1091  1  0.63330300  0.14620600  0.41256800  1
  C  1092  1  0.64718900  0.12287000  0.40110900  1
  C  1096  1  0.69834600  0.08365300  0.40992700  1
  C  1097  1  0.69074900  0.06059800  0.42763200  1
  C  1103  1  0.90381600  0.18920300  0.59954400  1
  C  1105  1  0.85814000  0.18368500  0.55764100  1
  C  1106  1  0.84381400  0.15804900  0.56298200  1
  C  1108  1  0.88677600  0.16360700  0.60564800  1
  C  1109  1  0.90028000  0.15156500  0.62874700  1
  C  1113  1  0.94963800  0.15892300  0.66859700  1
  C  1114  1  0.94179600  0.17615200  0.69200100  1
  C  1120  1  0.40520300  0.31366800  0.40339900  1
  C  1122  1  0.35646200  0.31823800  0.44495500  1
  C  1123  1  0.34434300  0.34417400  0.44035100  1
  C  1125  1  0.39031400  0.33961700  0.39806600  1
  C  1126  1  0.40657600  0.35212200  0.37547900  1
  C  1130  1  0.44836200  0.34368100  0.33468700  1
  C  1131  1  0.43322900  0.32683400  0.31149300  1
  H  25  1  0.48479400  0.04826700  0.03625800  1
  H  26  1  0.43030700  0.08496900  0.05252400  1
  H  27  1  0.37304400  0.12337400  0.06087700  1
  H  28  1  0.28770000  0.15365300  0.07263300  1
  H  29  1  0.15050700  0.12324200  0.01761100  1
  H  30  1  0.33708200  0.04481400  0.97692200  1
  H  31  1  0.34696000  0.12681000  0.97575800  1
  H  32  1  0.21463500  0.14368600  0.91383100  1
  H  33  1  0.13960100  0.11013500  0.92607800  1
  H  34  1  0.16877200  0.04863200  0.02290900  1
  H  35  1  0.09206600  0.07109500  0.93795600  1
  H  36  1  0.03620200  0.03768300  0.95962000  1
  H  62  1  0.98445000  0.45411600  0.96615900  1
  H  63  1  0.92969000  0.41739800  0.95002200  1
  H  64  1  0.87205900  0.37899200  0.94180100  1
  H  65  1  0.78677000  0.34859600  0.93038600  1
  H  66  1  0.65005900  0.37931600  0.98539400  1
  H  67  1  0.83713400  0.45776900  0.02561300  1
  H  68  1  0.84679800  0.37585900  0.02694700  1
  H  69  1  0.71522800  0.35928600  0.08917900  1
  H  70  1  0.64008700  0.39279300  0.07691500  1
  H  71  1  0.66831600  0.45390400  0.97976200  1
  H  72  1  0.59209600  0.43167600  0.06484100  1
  H  73  1  0.53598000  0.46498400  0.04309600  1
  H  99  1  0.73421100  0.21529900  0.80254300  1
  H  100  1  0.67887000  0.20018900  0.83958400  1
  H  101  1  0.61966000  0.19248100  0.87771900  1
  H  102  1  0.53280300  0.18133000  0.90766700  1
  H  103  1  0.39721000  0.23564900  0.87519400  1
  H  104  1  0.58470600  0.27380800  0.79605700  1
  H  105  1  0.59836500  0.27746100  0.87765600  1
  H  106  1  0.46825100  0.33991000  0.89492500  1
  H  107  1  0.38972000  0.32697800  0.86274400  1
  H  108  1  0.41747600  0.22997500  0.80073400  1
  H  109  1  0.33625500  0.31378000  0.82542000  1
  H  110  1  0.27916500  0.29202900  0.79237800  1
  H  136  1  0.23486100  0.28699400  0.19979800  1
  H  137  1  0.17963100  0.30205200  0.16272500  1
  H  138  1  0.12024100  0.30982700  0.12467000  1
  H  139  1  0.03332300  0.32112800  0.09479400  1
  H  140  1  0.89713400  0.26711700  0.12748000  1
  H  141  1  0.08432100  0.22889500  0.20668600  1
  H  142  1  0.09841500  0.22508100  0.12504000  1
  H  143  1  0.96830900  0.16264800  0.10770400  1
  H  144  1  0.88956400  0.17564100  0.13979500  1
  H  145  1  0.91744600  0.27263800  0.20185200  1
  H  146  1  0.83575800  0.18894100  0.17701900  1
  H  147  1  0.77880300  0.21067400  0.21010600  1
  H  173  1  0.51441900  0.94519500  0.96369400  1
  H  174  1  0.57248700  0.90825100  0.95062000  1
  H  175  1  0.63633800  0.87172100  0.94331400  1
  H  176  1  0.72491000  0.84227300  0.93287100  1
  H  177  1  0.86174200  0.87939000  0.98363400  1
  H  178  1  0.67325300  0.96070900  0.01711900  1
  H  179  1  0.64605600  0.87926400  0.02345200  1
  H  180  1  0.77226400  0.84961700  0.08216700  1
  H  181  1  0.86217100  0.87815200  0.07071300  1
  H  182  1  0.83788400  0.95875800  0.98719000  1
  H  183  1  0.92764500  0.91306400  0.06048000  1
  H  184  1  0.98740200  0.94870800  0.04542900  1
  H  210  1  0.01330800  0.55782700  0.03851300  1
  H  211  1  0.07108700  0.59488300  0.05136200  1
  H  212  1  0.13544000  0.63120400  0.05890900  1
  H  213  1  0.22450200  0.66031300  0.06974400  1
  H  214  1  0.36158700  0.62296400  0.01923600  1
  H  215  1  0.17319500  0.54175500  0.98569400  1
  H  216  1  0.14580000  0.62330200  0.97865200  1
  H  217  1  0.27285200  0.65279600  0.92011400  1
  H  218  1  0.36253100  0.62423200  0.93176800  1
  H  219  1  0.33729300  0.54394200  0.01555600  1
  H  220  1  0.42741700  0.58921500  0.94206600  1
  H  221  1  0.48690500  0.55359300  0.95728000  1
  H  247  1  0.27104000  0.78449800  0.21067000  1
  H  248  1  0.32321900  0.80432600  0.17547000  1
  H  249  1  0.37286800  0.81535400  0.13728200  1
  H  250  1  0.44979100  0.82897300  0.10529100  1
  H  251  1  0.59294300  0.77170500  0.12669400  1
  H  252  1  0.41959700  0.72537600  0.20745300  1
  H  253  1  0.40326800  0.72709800  0.12707400  1
  H  254  1  0.54217600  0.66843500  0.10594600  1
  H  255  1  0.62049400  0.68167300  0.13796100  1
  H  256  1  0.58149800  0.77417900  0.20545000  1
  H  257  1  0.67152900  0.69316000  0.17614300  1
  H  258  1  0.72573600  0.71363100  0.21058100  1
  H  284  1  0.77071500  0.71791400  0.79253400  1
  H  285  1  0.82300600  0.69844900  0.82792500  1
  H  286  1  0.87325700  0.68771400  0.86618300  1
  H  287  1  0.95105500  0.67428500  0.89805500  1
  H  288  1  0.09384800  0.73128100  0.87567400  1
  H  289  1  0.91916200  0.77710700  0.79515800  1
  H  290  1  0.90380500  0.77568500  0.87573300  1
  H  291  1  0.04306700  0.83431400  0.89661400  1
  H  292  1  0.12072100  0.82118400  0.86433000  1
  H  293  1  0.08159100  0.72843300  0.79729900  1
  H  294  1  0.17078600  0.80983800  0.82588700  1
  H  295  1  0.22509200  0.78916300  0.79158400  1
  H  321  1  0.98280700  0.54419600  0.53546800  1
  H  322  1  0.93006200  0.57966500  0.55463500  1
  H  323  1  0.88007400  0.61811900  0.56469000  1
  H  324  1  0.80213600  0.65006000  0.57790100  1
  H  325  1  0.65776900  0.62627200  0.52200800  1
  H  326  1  0.83249400  0.54536400  0.47683700  1
  H  327  1  0.84802600  0.62596600  0.47749600  1
  H  328  1  0.70880600  0.64671600  0.41880900  1
  H  329  1  0.63067600  0.61470500  0.43222800  1
  H  330  1  0.67044500  0.54786800  0.52520000  1
  H  331  1  0.57878900  0.57695200  0.44434800  1
  H  332  1  0.52447000  0.54280500  0.46519900  1
  H  358  1  0.48318300  0.95737000  0.46672100  1
  H  359  1  0.42997200  0.92166000  0.44814100  1
  H  360  1  0.37864000  0.88321000  0.43849800  1
  H  361  1  0.29951000  0.85139200  0.42574100  1
  H  362  1  0.15597900  0.87677100  0.48120800  1
  H  363  1  0.33276100  0.95744600  0.52532700  1
  H  364  1  0.34744500  0.87673400  0.52532400  1
  H  365  1  0.20894800  0.85653900  0.58443600  1
  H  366  1  0.13100400  0.88862100  0.57102800  1
  H  367  1  0.16988800  0.95472300  0.47746600  1
  H  368  1  0.07911900  0.92629400  0.55869100  1
  H  369  1  0.02451900  0.96024800  0.53763100  1
  H  395  1  0.23880900  0.71161800  0.30922200  1
  H  396  1  0.18027000  0.69989000  0.34652100  1
  H  397  1  0.11600900  0.69380300  0.38311400  1
  H  398  1  0.02625800  0.68376500  0.41222000  1
  H  399  1  0.89004600  0.73317800  0.37303200  1
  H  400  1  0.08038700  0.76455100  0.29159100  1
  H  401  1  0.10724600  0.77369100  0.37272800  1
  H  402  1  0.97886300  0.83163800  0.40262800  1
  H  403  1  0.88888800  0.81956300  0.37438600  1
  H  404  1  0.91600800  0.73632600  0.29364900  1
  H  405  1  0.82299800  0.80876000  0.33982600  1
  H  406  1  0.76348800  0.79341300  0.30420700  1
  H  432  1  0.73933600  0.79070700  0.69303400  1
  H  433  1  0.68056400  0.80248400  0.65582000  1
  H  434  1  0.61599000  0.80860800  0.61930900  1
  H  435  1  0.52609000  0.81875000  0.59028800  1
  H  436  1  0.38956500  0.76965300  0.62976100  1
  H  437  1  0.58042800  0.73806300  0.71097100  1
  H  438  1  0.60666600  0.72951500  0.62953900  1
  H  439  1  0.47983900  0.67087300  0.60015000  1
  H  440  1  0.38996400  0.68261200  0.62858600  1
  H  441  1  0.41552000  0.76637000  0.70888600  1
  H  442  1  0.32369400  0.69352400  0.66303200  1
  H  443  1  0.26393400  0.70890100  0.69860100  1
  H  469  1  0.01774800  0.44917000  0.46062900  1
  H  470  1  0.07369500  0.41226200  0.44646500  1
  H  471  1  0.13138400  0.37493600  0.43919100  1
  H  472  1  0.21598200  0.34424300  0.42819200  1
  H  473  1  0.35692100  0.37765900  0.47995900  1
  H  474  1  0.17472800  0.46090200  0.51574300  1
  H  475  1  0.14366900  0.38242300  0.52398100  1
  H  476  1  0.28009200  0.34633700  0.57570500  1
  H  477  1  0.37221800  0.37236900  0.56137900  1
  H  478  1  0.33450600  0.46103900  0.48747800  1
  H  479  1  0.44027900  0.40632100  0.55099000  1
  H  480  1  0.49775300  0.44326900  0.53844300  1
  H  506  1  0.51680300  0.05351900  0.54137700  1
  H  507  1  0.57234200  0.09045400  0.55562400  1
  H  508  1  0.63023800  0.12763100  0.56326500  1
  H  509  1  0.71512800  0.15800200  0.57481000  1
  H  510  1  0.85665600  0.12476700  0.52312300  1
  H  511  1  0.67474900  0.04180800  0.48663300  1
  H  512  1  0.64337800  0.12030400  0.47848700  1
  H  513  1  0.77961300  0.15621700  0.42659100  1
  H  514  1  0.87181400  0.13022700  0.44096000  1
  H  515  1  0.83418700  0.04178300  0.51517000  1
  H  516  1  0.94024000  0.09649400  0.45171100  1
  H  517  1  0.99764000  0.05955300  0.46429100  1
  H  543  1  0.76556800  0.28907900  0.70261100  1
  H  544  1  0.82096900  0.30508500  0.66639600  1
  H  545  1  0.87904700  0.31460600  0.62976500  1
  H  546  1  0.96239600  0.32683600  0.59912600  1
  H  547  1  0.10433200  0.27348900  0.62943300  1
  H  548  1  0.92499000  0.23451700  0.71221500  1
  H  549  1  0.89487100  0.22937700  0.63292100  1
  H  550  1  0.03269400  0.17775800  0.59739500  1
  H  551  1  0.12315300  0.19133600  0.62458600  1
  H  552  1  0.08394400  0.26601600  0.71255800  1
  H  553  1  0.18872600  0.20091600  0.65946200  1
  H  554  1  0.24564200  0.21386500  0.69636800  1
  H  580  1  0.26508400  0.21401300  0.30020700  1
  H  581  1  0.32012800  0.19813100  0.33655500  1
  H  582  1  0.37848400  0.18845900  0.37309800  1
  H  583  1  0.46199200  0.17611900  0.40365900  1
  H  584  1  0.60429500  0.22917200  0.37311900  1
  H  585  1  0.42554400  0.26811200  0.29026000  1
  H  586  1  0.39511300  0.27381700  0.36965800  1
  H  587  1  0.53454700  0.32433700  0.40589800  1
  H  588  1  0.62477200  0.31053400  0.37872600  1
  H  589  1  0.58351400  0.23707300  0.28988200  1
  H  590  1  0.68984100  0.30128200  0.34364400  1
  H  591  1  0.74634800  0.28858300  0.30659600  1
  H  600  1  0.88633800  0.00730300  0.00382800  1
  H  605  1  0.22285100  0.97654000  0.05167100  1
  H  606  1  0.15378500  0.99734800  0.05975900  1
  H  607  1  0.30321400  0.01431900  0.05104100  1
  H  608  1  0.26422300  0.00940200  0.08111100  1
  H  609  1  0.23367400  0.03385700  0.06091200  1
  H  617  1  0.38590000  0.49516300  0.99881200  1
  H  622  1  0.72217000  0.52612700  0.95110200  1
  H  623  1  0.65296600  0.50538200  0.94302000  1
  H  624  1  0.80234600  0.48828100  0.95160000  1
  H  625  1  0.76326600  0.49331600  0.92156500  1
  H  626  1  0.73265000  0.46882700  0.94171100  1
  H  634  1  0.13450200  0.24807200  0.75884200  1
  H  639  1  0.46068700  0.20166600  0.72629700  1
  H  640  1  0.38748000  0.19536100  0.74573000  1
  H  641  1  0.53715900  0.19491700  0.76452500  1
  H  642  1  0.48737400  0.16766100  0.75704000  1
  H  643  1  0.46291600  0.18747200  0.78275000  1
  H  651  1  0.63442200  0.25451400  0.24382200  1
  H  656  1  0.96081000  0.30103700  0.27617200  1
  H  657  1  0.88795500  0.30739500  0.25657800  1
  H  658  1  0.03791100  0.30750900  0.23807300  1
  H  659  1  0.98838800  0.33488200  0.24536600  1
  H  660  1  0.96403600  0.31502800  0.21967500  1
  H  668  1  0.12304500  0.49544200  0.00745300  1
  H  673  1  0.79321800  0.53180200  0.04315800  1
  H  674  1  0.85137900  0.50754100  0.05303900  1
  H  675  1  0.69546800  0.50124500  0.04562500  1
  H  676  1  0.73969700  0.50295500  0.07500600  1
  H  677  1  0.75284000  0.47667200  0.05455400  1
  H  685  1  0.62327000  0.00728300  0.99467500  1
  H  690  1  0.29354900  0.97066800  0.95952700  1
  H  691  1  0.35154400  0.99495700  0.94959300  1
  H  692  1  0.19563600  0.00114300  0.95710400  1
  H  693  1  0.23975700  0.99947100  0.92769900  1
  H  694  1  0.25282100  0.02576400  0.94814600  1
  H  702  1  0.87301400  0.25789900  0.76125300  1
  H  707  1  0.55722200  0.29020300  0.72039600  1
  H  708  1  0.61012400  0.29927100  0.74652300  1
  H  709  1  0.45241800  0.29611300  0.74624600  1
  H  710  1  0.50347100  0.32393600  0.74774000  1
  H  711  1  0.50257400  0.30241100  0.77364400  1
  H  719  1  0.37292500  0.24425500  0.24133700  1
  H  724  1  0.05823600  0.21290100  0.28255500  1
  H  725  1  0.11071600  0.20370400  0.25636100  1
  H  726  1  0.95300400  0.20659900  0.25713000  1
  H  727  1  0.00445200  0.17888900  0.25546300  1
  H  728  1  0.00245500  0.20038900  0.22954400  1
  H  736  1  0.86748400  0.75818700  0.24497900  1
  H  741  1  0.53801100  0.79855800  0.28036200  1
  H  742  1  0.60654200  0.80679600  0.25939500  1
  H  743  1  0.45429700  0.80317700  0.24397000  1
  H  744  1  0.49953400  0.83172800  0.25049200  1
  H  745  1  0.52359800  0.81272800  0.22415000  1
  H  753  1  0.36728500  0.74434700  0.75766300  1
  H  758  1  0.03711100  0.70407900  0.72250000  1
  H  759  1  0.10535100  0.69577800  0.74357100  1
  H  760  1  0.95312000  0.69995300  0.75887800  1
  H  761  1  0.99770400  0.67122600  0.75253400  1
  H  762  1  0.02210900  0.69029100  0.77878700  1
  H  770  1  0.13279900  0.73913200  0.24586300  1
  H  775  1  0.45911100  0.70671200  0.28244100  1
  H  776  1  0.40517100  0.69780700  0.25654300  1
  H  777  1  0.56170200  0.70552200  0.25487400  1
  H  778  1  0.51652800  0.67643400  0.25229000  1
  H  779  1  0.51002500  0.69945200  0.22782400  1
  H  787  1  0.63235600  0.76264900  0.75652700  1
  H  792  1  0.96087700  0.79581600  0.72042400  1
  H  793  1  0.90563000  0.80505500  0.74582800  1
  H  794  1  0.06184400  0.79684500  0.74897400  1
  H  795  1  0.01751100  0.82619100  0.75051100  1
  H  796  1  0.00843600  0.80373000  0.77537000  1
  H  804  1  0.38533300  0.50669000  0.50866700  1
  H  809  1  0.71504200  0.47285800  0.54916300  1
  H  810  1  0.64508600  0.49323000  0.55724600  1
  H  811  1  0.79661200  0.50979600  0.55497700  1
  H  812  1  0.75033900  0.50240500  0.58308500  1
  H  813  1  0.72573800  0.52890600  0.56439600  1
  H  821  1  0.88491000  0.99609300  0.49408100  1
  H  826  1  0.21439800  0.02979400  0.45316700  1
  H  827  1  0.14356700  0.00976100  0.44527400  1
  H  828  1  0.29455400  0.99248500  0.44693000  1
  H  829  1  0.24779400  0.00020200  0.41901900  1
  H  830  1  0.22275700  0.97375300  0.43770800  1
  H  838  1  0.62148700  0.99355200  0.51239400  1
  H  843  1  0.30209500  0.03309900  0.54334400  1
  H  844  1  0.35518100  0.00687200  0.55195400  1
  H  845  1  0.19785000  0.00648200  0.54679000  1
  H  846  1  0.24627200  0.00421800  0.57519200  1
  H  847  1  0.24852800  0.97914200  0.55273600  1
  H  855  1  0.12102100  0.50912800  0.48914100  1
  H  860  1  0.80110900  0.46933800  0.45903400  1
  H  861  1  0.85472300  0.49534900  0.45022000  1
  H  862  1  0.69747400  0.49625500  0.45564800  1
  H  863  1  0.74562000  0.49830200  0.42716700  1
  H  864  1  0.74867700  0.52342700  0.44955600  1
  H  872  1  0.39874300  0.21209200  0.94195800  1
  H  877  1  0.34381200  0.07930100  0.87809100  1
  H  878  1  0.27592800  0.08823300  0.89899300  1
  H  879  1  0.40681400  0.05966500  0.91459500  1
  H  880  1  0.32363300  0.04612500  0.91054300  1
  H  881  1  0.33822200  0.06855100  0.93512700  1
  H  889  1  0.89820500  0.29058100  0.06076400  1
  H  894  1  0.84532500  0.42353100  0.12452800  1
  H  895  1  0.77714600  0.41460900  0.10375100  1
  H  896  1  0.90799800  0.44304900  0.08788200  1
  H  897  1  0.82494300  0.45665800  0.09204200  1
  H  898  1  0.83911100  0.43417300  0.06747900  1
  H  906  1  0.64950400  0.31401200  0.96320600  1
  H  911  1  0.59441100  0.37308500  0.82791500  1
  H  912  1  0.52579900  0.35326300  0.83842200  1
  H  913  1  0.65166200  0.33533800  0.80819000  1
  H  914  1  0.56754800  0.34036500  0.79580900  1
  H  915  1  0.58195400  0.31599200  0.81846900  1
  H  923  1  0.14908400  0.18796400  0.03938300  1
  H  928  1  0.09409600  0.12985700  0.17519500  1
  H  929  1  0.02496700  0.14931200  0.16445400  1
  H  930  1  0.14957400  0.16796200  0.19495800  1
  H  931  1  0.06552300  0.16242800  0.20718400  1
  H  932  1  0.07914400  0.18686900  0.18453100  1
  H  940  1  0.61398400  0.78691700  0.07307300  1
  H  945  1  0.65570000  0.92670800  0.11087500  1
  H  946  1  0.72683000  0.91079400  0.09667200  1
  H  947  1  0.64115100  0.95306400  0.07202900  1
  H  948  1  0.72405200  0.95687400  0.08588600  1
  H  949  1  0.71408200  0.93808500  0.05827700  1
  H  957  1  0.11078800  0.71550100  0.93108800  1
  H  962  1  0.15898600  0.57552000  0.89109100  1
  H  963  1  0.22897800  0.59112200  0.90636000  1
  H  964  1  0.13745400  0.55005200  0.93015400  1
  H  965  1  0.22180900  0.54527700  0.91786200  1
  H  966  1  0.20945700  0.56471500  0.94488400  1
  H  974  1  0.35295300  0.69279500  0.04049900  1
  H  979  1  0.42720600  0.62850400  0.17216400  1
  H  980  1  0.49220600  0.65021400  0.16223700  1
  H  981  1  0.36559600  0.66409300  0.19413400  1
  H  982  1  0.45088400  0.66000300  0.20577100  1
  H  983  1  0.43214000  0.68517400  0.18444100  1
  H  991  1  0.85223800  0.80940900  0.96194200  1
  H  996  1  0.92626100  0.87415300  0.83079900  1
  H  997  1  0.98960900  0.85150000  0.84003400  1
  H  998  1  0.85892400  0.83956000  0.80962700  1
  H  999  1  0.94370600  0.84209800  0.79709000  1
  H  1000  1  0.92338700  0.81739300  0.81877300  1
  H  1008  1  0.89823100  0.71226200  0.44381800  1
  H  1013  1  0.82628800  0.58081400  0.37943800  1
  H  1014  1  0.76282400  0.59020700  0.40198300  1
  H  1015  1  0.89327700  0.55978000  0.41421600  1
  H  1016  1  0.80846400  0.54728300  0.41163400  1
  H  1017  1  0.82865600  0.56905700  0.43626900  1
  H  1025  1  0.39661400  0.79045100  0.55907800  1
  H  1030  1  0.32820100  0.92230300  0.62312700  1
  H  1031  1  0.26430000  0.91288600  0.60076500  1
  H  1032  1  0.39487100  0.94307100  0.58812200  1
  H  1033  1  0.31020400  0.95568400  0.59077200  1
  H  1034  1  0.32991200  0.93375800  0.56621900  1
  H  1042  1  0.14693500  0.81779000  0.46472000  1
  H  1047  1  0.08907500  0.86139200  0.32511900  1
  H  1048  1  0.02199600  0.84386800  0.34007500  1
  H  1049  1  0.12385000  0.82285500  0.30084700  1
  H  1050  1  0.03688500  0.83161800  0.29477100  1
  H  1051  1  0.05523300  0.80571400  0.31509400  1
  H  1059  1  0.64120200  0.68219500  0.53736300  1
  H  1064  1  0.59465900  0.64251700  0.67760400  1
  H  1065  1  0.52487000  0.65804400  0.66213200  1
  H  1066  1  0.61828400  0.68162700  0.70274000  1
  H  1067  1  0.53355700  0.66983300  0.70785500  1
  H  1068  1  0.54655700  0.69665100  0.68819100  1
  H  1076  1  0.09300100  0.29040400  0.56433000  1
  H  1081  1  0.19506300  0.42574300  0.61207900  1
  H  1082  1  0.25009700  0.41088600  0.58948900  1
  H  1083  1  0.14021500  0.45095900  0.57757100  1
  H  1084  1  0.23070100  0.45623500  0.57894700  1
  H  1085  1  0.19562200  0.43630300  0.55511500  1
  H  1093  1  0.59293000  0.21230100  0.43835200  1
  H  1098  1  0.69422200  0.07695100  0.39031200  1
  H  1099  1  0.74959600  0.09192700  0.41271400  1
  H  1100  1  0.64017500  0.05182100  0.42508000  1
  H  1101  1  0.73064400  0.04658300  0.42343000  1
  H  1102  1  0.69606800  0.06657800  0.44730900  1
  H  1110  1  0.84531900  0.19164700  0.54059100  1
  H  1115  1  0.94425800  0.13918900  0.67480500  1
  H  1116  1  0.00140700  0.16156400  0.66071500  1
  H  1117  1  0.89062900  0.17379200  0.70035700  1
  H  1118  1  0.98068800  0.17131800  0.70619600  1
  H  1119  1  0.94855200  0.19591300  0.68652800  1
  H  1127  1  0.34168600  0.30982900  0.46157000  1
  H  1132  1  0.44761200  0.36353700  0.32857100  1
  H  1133  1  0.50000800  0.33912400  0.34176100  1
  H  1134  1  0.38259300  0.33140400  0.30362800  1
  H  1135  1  0.47234500  0.32984500  0.29688600  1
  H  1136  1  0.43381800  0.30694100  0.31708600  1
  N  594  1  0.98490400  0.02243500  0.00257100  1
  N  597  1  0.03206400  0.97597300  0.00973200  1
  N  611  1  0.48453500  0.48009200  0.00006900  1
  N  614  1  0.53147100  0.52660500  0.99317300  1
  N  628  1  0.23202600  0.24928500  0.77486100  1
  N  631  1  0.28231800  0.24589600  0.72844000  1
  N  645  1  0.73194200  0.25332300  0.22777700  1
  N  648  1  0.78236600  0.25698200  0.27412700  1
  N  662  1  0.02540800  0.47961300  0.00555000  1
  N  665  1  0.97587500  0.52632400  0.00476900  1
  N  679  1  0.52555700  0.02302000  0.99665500  1
  N  682  1  0.47644200  0.97625000  0.99791700  1
  N  696  1  0.77484900  0.25479700  0.77640400  1
  N  699  1  0.72851000  0.25093300  0.72930600  1
  N  713  1  0.27484900  0.24751300  0.22617200  1
  N  716  1  0.22877400  0.25206400  0.27322500  1
  N  730  1  0.76929600  0.75614800  0.22967200  1
  N  733  1  0.72140100  0.75687500  0.27663100  1
  N  747  1  0.26911000  0.74641700  0.77295600  1
  N  750  1  0.22127500  0.74562000  0.72596700  1
  N  764  1  0.23108700  0.74154300  0.23067200  1
  N  767  1  0.27757300  0.74564600  0.27773200  1
  N  781  1  0.73050800  0.76039700  0.77187600  1
  N  784  1  0.77787400  0.75716300  0.72491800  1
  N  798  1  0.48272300  0.52281700  0.50732600  1
  N  801  1  0.53329000  0.47631900  0.50690500  1
  N  815  1  0.98227500  0.97994700  0.49538400  1
  N  818  1  0.03292100  0.02642000  0.49570600  1
  N  832  1  0.52286800  0.97880200  0.50919800  1
  N  835  1  0.47848500  0.02604500  0.50376000  1
  N  849  1  0.02230400  0.52373800  0.49238000  1
  N  852  1  0.97872200  0.47646500  0.49848200  1
  N  866  1  0.35061300  0.17704700  0.94325100  1
  N  869  1  0.39179000  0.17095900  0.89501600  1
  N  883  1  0.85042600  0.32568500  0.05952900  1
  N  886  1  0.89250000  0.33179900  0.10763500  1
  N  900  1  0.60275700  0.31139900  0.92797300  1
  N  903  1  0.64706500  0.35886600  0.91974000  1
  N  917  1  0.10246700  0.19088400  0.07463100  1
  N  920  1  0.14796800  0.14366000  0.08348400  1
  N  934  1  0.64869400  0.82249400  0.06210400  1
  N  937  1  0.57853600  0.84120400  0.10106200  1
  N  951  1  0.14714800  0.67985200  0.94105100  1
  N  954  1  0.08160000  0.66210100  0.90046700  1
  N  968  1  0.40104400  0.69504500  0.07548300  1
  N  971  1  0.36768800  0.64594200  0.08148500  1
  N  985  1  0.90115800  0.80748400  0.92709400  1
  N  988  1  0.86854200  0.85672200  0.92155300  1
  N  1002  1  0.84992300  0.67732100  0.44574100  1
  N  1005  1  0.88309900  0.67178400  0.39656600  1
  N  1019  1  0.34892200  0.82550000  0.55721700  1
  N  1022  1  0.38346000  0.83111800  0.60622700  1
  N  1036  1  0.10824200  0.80951500  0.42899500  1
  N  1039  1  0.16595000  0.85259800  0.41326800  1
  N  1053  1  0.60509000  0.69202200  0.57308100  1
  N  1056  1  0.67124200  0.65149000  0.59067900  1
  N  1070  1  0.13788700  0.32526900  0.55693200  1
  N  1073  1  0.10362200  0.33830400  0.60430400  1
  N  1087  1  0.63765900  0.17738100  0.44565400  1
  N  1090  1  0.60314900  0.16448200  0.39820100  1
  N  1104  1  0.89033000  0.19781800  0.57566700  1
  N  1107  1  0.85685200  0.14980700  0.58688600  1
  N  1121  1  0.38910000  0.30440300  0.42681200  1
  N  1124  1  0.35975400  0.35311700  0.41689900  1
  O  601  1  0.17029000  0.97094900  0.99685800  1
  O  602  1  0.19379900  0.00185600  0.02296500  1
  O  618  1  0.66981800  0.53159700  0.00600200  1
  O  619  1  0.69315600  0.50077400  0.97977800  1
  O  635  1  0.41782900  0.25218000  0.72033500  1
  O  636  1  0.44035200  0.22925800  0.75382700  1
  O  652  1  0.91772200  0.25063100  0.28225900  1
  O  653  1  0.94050400  0.27338400  0.24869200  1
  O  669  1  0.84222300  0.52571300  0.98416200  1
  O  670  1  0.81100000  0.50304300  0.01640600  1
  O  686  1  0.34275800  0.97678500  0.01848200  1
  O  687  1  0.31136400  0.99944800  0.98625400  1
  O  703  1  0.59461300  0.22849600  0.73218800  1
  O  704  1  0.56306300  0.26364400  0.75003000  1
  O  720  1  0.09487600  0.27431300  0.27107000  1
  O  721  1  0.06334200  0.23925200  0.25270800  1
  O  737  1  0.58679600  0.74839700  0.28521100  1
  O  738  1  0.55949400  0.77160100  0.25228700  1
  O  754  1  0.08654100  0.75427700  0.71743400  1
  O  755  1  0.05904800  0.73115600  0.75041400  1
  O  771  1  0.41081300  0.76673100  0.27729000  1
  O  772  1  0.44419100  0.73480100  0.25466700  1
  O  788  1  0.91110300  0.73630300  0.72526800  1
  O  789  1  0.94405200  0.76800300  0.74830600  1
  O  805  1  0.66798800  0.46854400  0.49894700  1
  O  806  1  0.69370800  0.50122400  0.52250800  1
  O  822  1  0.16778200  0.03412800  0.50347900  1
  O  823  1  0.19289700  0.00145000  0.47981300  1
  O  839  1  0.34498800  0.02506900  0.48213700  1
  O  840  1  0.31158500  0.00465500  0.51564000  1
  O  856  1  0.84503800  0.47656200  0.51972300  1
  O  857  1  0.81171500  0.49786300  0.48660400  1
  O  873  1  0.36305700  0.12951200  0.86928100  1
  O  874  1  0.37007100  0.10753100  0.90429800  1
  O  890  1  0.86448300  0.37330500  0.13339200  1
  O  891  1  0.87112500  0.39523300  0.09833100  1
  O  907  1  0.62302500  0.38282900  0.87689900  1
  O  908  1  0.62156400  0.34715500  0.85632100  1
  O  924  1  0.12413500  0.12006300  0.12648900  1
  O  925  1  0.12083100  0.15587400  0.14680200  1
  O  941  1  0.56172400  0.88970700  0.10874700  1
  O  942  1  0.63123600  0.90273600  0.08001900  1
  O  958  1  0.07108400  0.61401800  0.88982900  1
  O  959  1  0.13151800  0.60022600  0.92097000  1
  O  975  1  0.39982000  0.62074500  0.12270300  1
  O  976  1  0.39460600  0.65529600  0.14538700  1
  O  992  1  0.90337000  0.88234800  0.88077400  1
  O  993  1  0.89302400  0.84794800  0.85804100  1
  O  1009  1  0.85007300  0.63074500  0.37100000  1
  O  1010  1  0.85946600  0.60817400  0.40552400  1
  O  1026  1  0.35180200  0.87234200  0.63176600  1
  O  1027  1  0.36069000  0.89475200  0.59712300  1
  O  1043  1  0.16543400  0.86755000  0.36619100  1
  O  1044  1  0.12217700  0.83328100  0.35083100  1
  O  1060  1  0.68111600  0.64046800  0.63869300  1
  O  1061  1  0.62267400  0.67207500  0.65261000  1
  O  1077  1  0.12816000  0.38319000  0.62317700  1
  O  1078  1  0.14551600  0.40078100  0.58680800  1
  O  1094  1  0.62695700  0.11952700  0.37929800  1
  O  1095  1  0.64498200  0.10194100  0.41562500  1
  O  1111  1  0.88121500  0.12946900  0.63105200  1
  O  1112  1  0.89740500  0.16536300  0.65012100  1
  O  1128  1  0.39472100  0.37495100  0.37421300  1
  O  1129  1  0.39667800  0.33911200  0.35389500  1
