# generated using pymatgen
data_H17(C14N3)2
_symmetry_space_group_name_H-M   'P 1'
_cell_length_a   50.83620000
_cell_length_b   50.83610000
_cell_length_c   50.84510000
_cell_angle_alpha   90.00000000
_cell_angle_beta   90.00000000
_cell_angle_gamma   90.00000000
_symmetry_Int_Tables_number   1
_chemical_formula_structural   H17(C14N3)2
_chemical_formula_sum   'H612 C1008 N216'
_cell_volume   131399.71122648
_cell_formula_units_Z   36
loop_
 _symmetry_equiv_pos_site_id
 _symmetry_equiv_pos_as_xyz
  1  'x, y, z'
loop_
 _atom_site_type_symbol
 _atom_site_label
 _atom_site_symmetry_multiplicity
 _atom_site_fract_x
 _atom_site_fract_y
 _atom_site_fract_z
 _atom_site_occupancy
  H  10  1  0.46770400  0.10368000  0.00246800  1
  H  11  1  0.50744700  0.09147100  0.04796100  1
  H  12  1  0.50679600  0.05834000  0.08507200  1
  H  13  1  0.50721300  0.01792300  0.01567100  1
  H  14  1  0.54825500  0.01562200  0.10011200  1
  H  21  1  0.49587900  0.26972200  0.04641700  1
  H  27  1  0.55107800  0.40997400  0.00827700  1
  H  28  1  0.49395100  0.40522000  0.05112300  1
  H  29  1  0.49220800  0.35879800  0.05798100  1
  H  30  1  0.44525600  0.41412900  0.00760800  1
  H  32  1  0.48875200  0.31484500  0.04016900  1
  H  43  1  0.00258200  0.46781300  0.10341700  1
  H  44  1  0.04812800  0.50750200  0.09119600  1
  H  45  1  0.08522700  0.50681700  0.05805100  1
  H  46  1  0.01580000  0.50733400  0.01767200  1
  H  47  1  0.10029600  0.54828200  0.01533300  1
  H  51  1  0.14718900  0.54896000  0.02037800  1
  H  53  1  0.18601900  0.51464800  0.03368200  1
  H  56  1  0.27100600  0.50040800  0.04197400  1
  H  57  1  0.15030500  0.46787000  0.00217900  1
  H  62  1  0.41115800  0.45042800  0.00661200  1
  H  63  1  0.41363200  0.55624400  0.00384500  1
  H  64  1  0.40449500  0.50730700  0.04825400  1
  H  65  1  0.35794600  0.50950800  0.05389800  1
  H  67  1  0.31473200  0.51441600  0.03476900  1
  H  92  1  0.51738700  0.51590900  0.00218600  1
  H  93  1  0.48383400  0.48439200  0.00213000  1
  H  98  1  0.64190900  0.49288000  0.05817900  1
  H  99  1  0.59548900  0.49387900  0.05121700  1
  H  100  1  0.58991800  0.55007200  0.00754300  1
  H  101  1  0.58750100  0.44422200  0.00817200  1
  H  103  1  0.68592900  0.49035400  0.04063200  1
  H  109  1  0.73102800  0.49745600  0.04651600  1
  H  122  1  0.98503200  0.54912000  0.10019900  1
  H  123  1  0.94138000  0.50807400  0.08601800  1
  H  124  1  0.90814200  0.50838500  0.04876500  1
  H  125  1  0.89679200  0.46772700  0.00336100  1
  H  130  1  0.55583800  0.58634300  0.00625400  1
  H  131  1  0.45006700  0.59048200  0.00392100  1
  H  132  1  0.50641500  0.59636800  0.04819900  1
  H  133  1  0.50893100  0.64292900  0.05375900  1
  H  135  1  0.51538900  0.68600500  0.03429600  1
  H  137  1  0.54905000  0.85321500  0.01933100  1
  H  139  1  0.51458200  0.81455300  0.03351900  1
  H  142  1  0.50073000  0.72959600  0.04182000  1
  H  143  1  0.46754100  0.85037400  0.00302500  1
  H  153  1  0.50767800  0.95169400  0.09191000  1
  H  154  1  0.50730200  0.91446600  0.05864600  1
  H  155  1  0.54836900  0.90013400  0.01450900  1
  H  156  1  0.46715900  0.99703400  0.10322000  1
  H  160  1  0.54901000  0.02061000  0.14700100  1
  H  162  1  0.51483600  0.03385000  0.18590000  1
  H  165  1  0.50065300  0.04219800  0.27086600  1
  H  166  1  0.46793400  0.00236800  0.15023300  1
  H  172  1  0.04673200  0.49594500  0.26932200  1
  H  174  1  0.99727900  0.46872200  0.15041300  1
  H  176  1  0.98007900  0.55002300  0.14708100  1
  H  178  1  0.96770600  0.51764600  0.18680900  1
  H  181  1  0.96365400  0.50584900  0.27368400  1
  H  186  1  0.50281500  0.95848800  0.27305100  1
  H  191  1  0.45079700  0.00653900  0.41100700  1
  H  192  1  0.55663300  0.00430200  0.41351900  1
  H  193  1  0.50755200  0.04844100  0.40435600  1
  H  194  1  0.50965800  0.05411000  0.35781000  1
  H  196  1  0.51454500  0.03500700  0.31459100  1
  H  201  1  0.00617700  0.55083300  0.40940600  1
  H  202  1  0.05194000  0.49478800  0.40462900  1
  H  203  1  0.05861000  0.49304500  0.35818600  1
  H  204  1  0.00977100  0.44512100  0.41387300  1
  H  206  1  0.04047300  0.48836800  0.31437800  1
  H  210  1  0.96908900  0.49993200  0.39292500  1
  H  211  1  0.97557400  0.49820500  0.34631100  1
  H  215  1  0.50046800  0.96551900  0.39430000  1
  H  216  1  0.50258300  0.97100300  0.34754800  1
  H  227  1  0.10455800  0.00690500  0.46719200  1
  H  228  1  0.09055900  0.05005300  0.51212600  1
  H  229  1  0.05642200  0.08643400  0.51251000  1
  H  230  1  0.01820200  0.01646900  0.50241800  1
  H  231  1  0.00267300  0.09694300  0.55148700  1
  H  234  1  0.00383700  0.10623600  0.46899300  1
  H  235  1  0.15153400  0.00227000  0.46837900  1
  H  240  1  0.27062800  0.04749200  0.49525700  1
  H  246  1  0.41033800  0.00875300  0.55087900  1
  H  247  1  0.40580500  0.05148900  0.49375100  1
  H  248  1  0.35940900  0.05846300  0.49168200  1
  H  249  1  0.41451400  0.00761800  0.44510500  1
  H  251  1  0.31550700  0.04050600  0.48712700  1
  H  276  1  0.51623800  0.00270700  0.51725900  1
  H  277  1  0.48478600  0.00247200  0.48369100  1
  H  283  1  0.58667100  0.00632900  0.55572700  1
  H  284  1  0.59083700  0.00449400  0.44997800  1
  H  285  1  0.59684200  0.04846100  0.50644000  1
  H  286  1  0.64343900  0.05381700  0.50891400  1
  H  288  1  0.68645400  0.03405100  0.51537100  1
  H  290  1  0.85423000  0.02012900  0.54778700  1
  H  292  1  0.81498600  0.03156400  0.51491300  1
  H  295  1  0.73023800  0.04133000  0.50139700  1
  H  305  1  0.95014600  0.09081200  0.50319900  1
  H  306  1  0.91370100  0.05671700  0.50205800  1
  H  307  1  0.90110800  0.01536400  0.54662300  1
  H  312  1  0.02970600  0.27241100  0.47038800  1
  H  315  1  0.00113900  0.15300200  0.47417400  1
  H  316  1  0.99932700  0.14359200  0.55683200  1
  H  319  1  0.98800100  0.18615600  0.53609500  1
  H  322  1  0.97868100  0.27263900  0.53639000  1
  H  327  1  0.00968900  0.41111100  0.45021100  1
  H  328  1  0.00715200  0.41366100  0.55601600  1
  H  329  1  0.05128100  0.40462000  0.50565900  1
  H  330  1  0.05737300  0.35804900  0.50347000  1
  H  332  1  0.03828200  0.31533500  0.49031700  1
  H  336  1  0.96830400  0.39439700  0.49929700  1
  H  337  1  0.97425100  0.34768400  0.49698200  1
  H  361  1  0.00277100  0.51730400  0.51553100  1
  H  362  1  0.00372000  0.48371700  0.48408600  1
  H  368  1  0.05013900  0.64562000  0.48380500  1
  H  369  1  0.04751700  0.59880700  0.48828100  1
  H  370  1  0.00710500  0.59003500  0.54939600  1
  H  371  1  0.00489000  0.58730300  0.44350600  1
  H  373  1  0.02285100  0.68657900  0.47277500  1
  H  377  1  0.96772400  0.65154900  0.49886400  1
  H  378  1  0.96517000  0.60461600  0.50307500  1
  H  379  1  0.00137200  0.72908600  0.46059500  1
  H  380  1  0.99778900  0.84713600  0.47568000  1
  H  383  1  0.99535600  0.72663300  0.54331900  1
  H  384  1  0.99556800  0.81348700  0.54007600  1
  H  387  1  0.99555400  0.85721600  0.55828600  1
  H  403  1  0.10041800  0.98503200  0.54743300  1
  H  404  1  0.08784500  0.94353000  0.50344500  1
  H  405  1  0.05135800  0.90947000  0.50472500  1
  H  407  1  0.14727400  0.98001200  0.54861700  1
  H  409  1  0.18726200  0.96937600  0.51681500  1
  H  412  1  0.27408600  0.96442500  0.50564400  1
  H  415  1  0.39346400  0.96886900  0.50078600  1
  H  416  1  0.34689800  0.97565500  0.49870900  1
  H  420  1  0.65311900  0.97051700  0.50333900  1
  H  421  1  0.60634700  0.96534200  0.50086000  1
  H  423  1  0.85004200  0.99747200  0.46765200  1
  H  428  1  0.72716700  0.95761500  0.50052800  1
  H  431  1  0.99849500  0.89383900  0.47012600  1
  H  442  1  0.98341900  0.98387600  0.50268200  1
  H  443  1  0.99637900  0.90381600  0.55251300  1
  H  444  1  0.94501200  0.91399000  0.51266500  1
  H  445  1  0.91091600  0.95033100  0.51155000  1
  H  446  1  0.89706500  0.99308800  0.46647400  1
  H  451  1  0.49323300  0.05834200  0.64185500  1
  H  452  1  0.49431100  0.05144400  0.59543600  1
  H  453  1  0.55040700  0.00756400  0.58980900  1
  H  454  1  0.44454700  0.00862100  0.58733500  1
  H  456  1  0.49055000  0.04073600  0.68582800  1
  H  462  1  0.00711900  0.55602400  0.58578100  1
  H  463  1  0.00659900  0.45017000  0.59021200  1
  H  464  1  0.04960300  0.50726600  0.59629700  1
  H  465  1  0.05481500  0.50985800  0.64288600  1
  H  467  1  0.03506000  0.51576100  0.68585400  1
  H  471  1  0.97158300  0.50320100  0.65239700  1
  H  472  1  0.96655300  0.50061300  0.60561600  1
  H  475  1  0.49951800  0.97542700  0.65406100  1
  H  476  1  0.50057400  0.96872300  0.60747200  1
  H  481  1  0.49769500  0.04660500  0.73091000  1
  H  484  1  0.01952100  0.54923800  0.85300600  1
  H  486  1  0.03367500  0.51486600  0.81435200  1
  H  489  1  0.04241700  0.50104900  0.72945900  1
  H  490  1  0.00299600  0.46778000  0.85005400  1
  H  496  1  0.95870100  0.50242600  0.72692200  1
  H  497  1  0.46828600  0.99763600  0.84976100  1
  H  499  1  0.54931900  0.97919800  0.85316200  1
  H  501  1  0.51626600  0.96685400  0.81356900  1
  H  504  1  0.50454400  0.96320700  0.72660900  1
  H  516  1  0.54898900  0.10044000  0.98482400  1
  H  517  1  0.50789000  0.08625300  0.94123700  1
  H  518  1  0.50818300  0.04898700  0.90801100  1
  H  519  1  0.46753900  0.00354600  0.89670200  1
  H  520  1  0.46862300  0.15068600  0.99718200  1
  H  522  1  0.54989900  0.14733000  0.97988600  1
  H  524  1  0.51746200  0.18705500  0.96751700  1
  H  527  1  0.50570700  0.27391600  0.96333800  1
  H  530  1  0.50109200  0.39312400  0.96849800  1
  H  531  1  0.49935500  0.34653700  0.97516600  1
  H  541  1  0.09202600  0.50772200  0.95142700  1
  H  542  1  0.05875100  0.50738500  0.91420600  1
  H  543  1  0.01469900  0.54850800  0.89991400  1
  H  544  1  0.10328800  0.46717200  0.99679000  1
  H  552  1  0.27318900  0.50277900  0.95828500  1
  H  556  1  0.39446100  0.50003200  0.96535900  1
  H  557  1  0.34770300  0.50224500  0.97081900  1
  H  560  1  0.65422300  0.49939100  0.97531100  1
  H  561  1  0.60763600  0.50037300  0.96854400  1
  H  562  1  0.84983700  0.46852500  0.99753400  1
  H  564  1  0.85329700  0.54956000  0.97910900  1
  H  566  1  0.81362900  0.51661500  0.96686000  1
  H  569  1  0.72670700  0.50471200  0.96316900  1
  H  581  1  0.98440300  0.50753700  0.98259600  1
  H  582  1  0.90014200  0.54877300  0.98457900  1
  H  583  1  0.91497600  0.50665200  0.94219500  1
  H  584  1  0.95206200  0.50683900  0.90906500  1
  H  585  1  0.99781700  0.46704200  0.89709100  1
  H  589  1  0.50359800  0.65297900  0.97050600  1
  H  590  1  0.50108600  0.60622300  0.96512500  1
  H  596  1  0.50230200  0.72746500  0.95810600  1
  H  608  1  0.50736100  0.98284700  0.98428200  1
  H  609  1  0.54858500  0.98475300  0.89999000  1
  H  610  1  0.50651700  0.94239100  0.91488900  1
  H  611  1  0.50670800  0.90928300  0.95199100  1
  H  612  1  0.46685200  0.89741500  0.99784800  1
  H  622  1  0.62507200  0.26104800  0.15980900  1
  H  623  1  0.66481500  0.24883900  0.20530200  1
  H  624  1  0.66416400  0.21570800  0.24241300  1
  H  625  1  0.66458100  0.17529100  0.17301200  1
  H  626  1  0.70562300  0.17299000  0.25745300  1
  H  633  1  0.65324700  0.42709000  0.20375800  1
  H  639  1  0.70844600  0.56734200  0.16561800  1
  H  640  1  0.65131900  0.56258800  0.20846400  1
  H  641  1  0.64957600  0.51616600  0.21532200  1
  H  642  1  0.60262400  0.57149700  0.16494900  1
  H  644  1  0.64612000  0.47221300  0.19751000  1
  H  655  1  0.15995000  0.62518100  0.26075800  1
  H  656  1  0.20549600  0.66487000  0.24853700  1
  H  657  1  0.24259500  0.66418500  0.21539200  1
  H  658  1  0.17316800  0.66470200  0.17501300  1
  H  659  1  0.25766400  0.70565000  0.17267400  1
  H  663  1  0.30455700  0.70632800  0.17771900  1
  H  665  1  0.34338700  0.67201600  0.19102300  1
  H  668  1  0.42837400  0.65777600  0.19931500  1
  H  669  1  0.30767300  0.62523800  0.15952000  1
  H  674  1  0.56852600  0.60779600  0.16395300  1
  H  675  1  0.57100000  0.71361200  0.16118600  1
  H  676  1  0.56186300  0.66467500  0.20559500  1
  H  677  1  0.51531400  0.66687600  0.21123900  1
  H  679  1  0.47210000  0.67178400  0.19211000  1
  H  704  1  0.67475500  0.67327700  0.15952700  1
  H  705  1  0.64120200  0.64176000  0.15947100  1
  H  710  1  0.79927700  0.65024800  0.21552000  1
  H  711  1  0.75285700  0.65124700  0.20855800  1
  H  712  1  0.74728600  0.70744000  0.16488400  1
  H  713  1  0.74486900  0.60159000  0.16551300  1
  H  715  1  0.84329700  0.64772200  0.19797300  1
  H  721  1  0.88839600  0.65482400  0.20385700  1
  H  734  1  0.14240000  0.70648800  0.25754000  1
  H  735  1  0.09874820  0.66544200  0.24335900  1
  H  736  1  0.06551020  0.66575300  0.20610600  1
  H  737  1  0.05416020  0.62509500  0.16070200  1
  H  742  1  0.71320600  0.74371100  0.16359500  1
  H  743  1  0.60743500  0.74785000  0.16126200  1
  H  744  1  0.66378300  0.75373600  0.20554000  1
  H  745  1  0.66629900  0.80029700  0.21110000  1
  H  747  1  0.67275700  0.84337300  0.19163700  1
  H  749  1  0.70641800  0.01058350  0.17667200  1
  H  751  1  0.67195000  0.97192100  0.19086000  1
  H  754  1  0.65809800  0.88696400  0.19916100  1
  H  755  1  0.62490900  0.00774248  0.16036600  1
  H  765  1  0.66504600  0.10906200  0.24925100  1
  H  766  1  0.66467000  0.07183450  0.21598700  1
  H  767  1  0.70573700  0.05750250  0.17185000  1
  H  768  1  0.62452700  0.15440200  0.26056100  1
  H  772  1  0.70637800  0.17797800  0.30434200  1
  H  774  1  0.67220400  0.19121800  0.34324100  1
  H  777  1  0.65802100  0.19956600  0.42820700  1
  H  778  1  0.62530200  0.15973600  0.30757400  1
  H  784  1  0.20410000  0.65331300  0.42666300  1
  H  786  1  0.15464700  0.62609000  0.30775400  1
  H  788  1  0.13744700  0.70739100  0.30442200  1
  H  790  1  0.12507400  0.67501400  0.34415000  1
  H  793  1  0.12102200  0.66321700  0.43102500  1
  H  798  1  0.66018300  0.11585600  0.43039200  1
  H  803  1  0.60816500  0.16390700  0.56834800  1
  H  804  1  0.71400100  0.16167000  0.57086000  1
  H  805  1  0.66492000  0.20580900  0.56169700  1
  H  806  1  0.66702600  0.21147800  0.51515100  1
  H  808  1  0.67191300  0.19237500  0.47193200  1
  H  813  1  0.16354500  0.70820100  0.56674700  1
  H  814  1  0.20930800  0.65215600  0.56197000  1
  H  815  1  0.21597800  0.65041300  0.51552700  1
  H  816  1  0.16713900  0.60248900  0.57121400  1
  H  818  1  0.19784100  0.64573600  0.47171900  1
  H  822  1  0.12645700  0.65730000  0.55026600  1
  H  823  1  0.13294200  0.65557300  0.50365200  1
  H  827  1  0.65783600  0.12288700  0.55164100  1
  H  828  1  0.65995100  0.12837100  0.50488900  1
  H  839  1  0.26192600  0.16427300  0.62453300  1
  H  840  1  0.24792700  0.20742100  0.66946700  1
  H  841  1  0.21379000  0.24380200  0.66985100  1
  H  842  1  0.17557000  0.17383700  0.65975900  1
  H  843  1  0.16004100  0.25431100  0.70882800  1
  H  846  1  0.16120500  0.26360400  0.62633400  1
  H  847  1  0.30890200  0.15963800  0.62572000  1
  H  852  1  0.42799600  0.20486000  0.65259800  1
  H  858  1  0.56770600  0.16612100  0.70822000  1
  H  859  1  0.56317300  0.20885700  0.65109200  1
  H  860  1  0.51677700  0.21583100  0.64902300  1
  H  861  1  0.57188200  0.16498600  0.60244600  1
  H  863  1  0.47287500  0.19787400  0.64446800  1
  H  888  1  0.67360600  0.16007500  0.67460000  1
  H  889  1  0.64215400  0.15984000  0.64103200  1
  H  895  1  0.74403900  0.16369700  0.71306800  1
  H  896  1  0.74820500  0.16186200  0.60731900  1
  H  897  1  0.75421000  0.20582900  0.66378100  1
  H  898  1  0.80080700  0.21118500  0.66625500  1
  H  900  1  0.84382200  0.19141900  0.67271200  1
  H  902  1  0.01159820  0.17749700  0.70512800  1
  H  904  1  0.97235400  0.18893200  0.67225400  1
  H  907  1  0.88760600  0.19869800  0.65873800  1
  H  917  1  0.10751400  0.24818000  0.66054000  1
  H  918  1  0.07106920  0.21408500  0.65939900  1
  H  919  1  0.05847620  0.17273200  0.70396400  1
  H  924  1  0.18707400  0.42977900  0.62772900  1
  H  927  1  0.15850700  0.31037000  0.63151500  1
  H  928  1  0.15669500  0.30096000  0.71417300  1
  H  931  1  0.14536900  0.34352400  0.69343600  1
  H  934  1  0.13604900  0.43000700  0.69373100  1
  H  939  1  0.16705700  0.56847900  0.60755200  1
  H  940  1  0.16452000  0.57102900  0.71335700  1
  H  941  1  0.20864900  0.56198800  0.66300000  1
  H  942  1  0.21474100  0.51541700  0.66081100  1
  H  944  1  0.19565000  0.47270300  0.64765800  1
  H  948  1  0.12567200  0.55176500  0.65663800  1
  H  949  1  0.13161900  0.50505200  0.65432300  1
  H  973  1  0.16013900  0.67467200  0.67287200  1
  H  974  1  0.16108800  0.64108500  0.64142700  1
  H  980  1  0.20750700  0.80298800  0.64114600  1
  H  981  1  0.20488500  0.75617500  0.64562200  1
  H  982  1  0.16447300  0.74740300  0.70673700  1
  H  983  1  0.16225800  0.74467100  0.60084700  1
  H  985  1  0.18021900  0.84394700  0.63011600  1
  H  989  1  0.12509200  0.80891700  0.65620500  1
  H  990  1  0.12253800  0.76198400  0.66041600  1
  H  991  1  0.15874000  0.88645400  0.61793600  1
  H  992  1  0.15515700  0.00450448  0.63302100  1
  H  995  1  0.15272400  0.88400100  0.70066000  1
  H  996  1  0.15293600  0.97085500  0.69741700  1
  H  999  1  0.15292200  0.01458450  0.71562700  1
  H  1015  1  0.25778600  0.14240000  0.70477400  1
  H  1016  1  0.24521300  0.10089800  0.66078600  1
  H  1017  1  0.20872600  0.06683850  0.66206600  1
  H  1019  1  0.30464200  0.13738000  0.70595800  1
  H  1021  1  0.34463000  0.12674400  0.67415600  1
  H  1024  1  0.43145400  0.12179300  0.66298500  1
  H  1027  1  0.55083200  0.12623700  0.65812700  1
  H  1028  1  0.50426600  0.13302300  0.65605000  1
  H  1032  1  0.81048700  0.12788500  0.66068000  1
  H  1033  1  0.76371500  0.12271000  0.65820100  1
  H  1035  1  0.00741017  0.15484000  0.62499300  1
  H  1040  1  0.88453500  0.11498300  0.65786900  1
  H  1043  1  0.15586300  0.05120750  0.62746700  1
  H  1054  1  0.14078700  0.14124400  0.66002300  1
  H  1055  1  0.15374700  0.06118450  0.70985400  1
  H  1056  1  0.10238000  0.07135850  0.67000600  1
  H  1057  1  0.06828420  0.10769900  0.66889100  1
  H  1058  1  0.05443320  0.15045600  0.62381500  1
  H  1063  1  0.65060100  0.21571000  0.79919600  1
  H  1064  1  0.65167900  0.20881200  0.75277700  1
  H  1065  1  0.70777500  0.16493200  0.74715000  1
  H  1066  1  0.60191500  0.16598900  0.74467600  1
  H  1068  1  0.64791800  0.19810400  0.84316900  1
  H  1074  1  0.16448700  0.71339200  0.74312200  1
  H  1075  1  0.16396700  0.60753800  0.74755300  1
  H  1076  1  0.20697100  0.66463400  0.75363800  1
  H  1077  1  0.21218300  0.66722600  0.80022700  1
  H  1079  1  0.19242800  0.67312900  0.84319500  1
  H  1083  1  0.12895100  0.66056900  0.80973800  1
  H  1084  1  0.12392100  0.65798100  0.76295700  1
  H  1087  1  0.65688600  0.13279500  0.81140200  1
  H  1088  1  0.65794200  0.12609100  0.76481300  1
  H  1093  1  0.65506300  0.20397300  0.88825100  1
  H  1096  1  0.17688900  0.70660600  0.01034660  1
  H  1098  1  0.19104300  0.67223400  0.97169300  1
  H  1101  1  0.19978500  0.65841700  0.88680000  1
  H  1102  1  0.16036400  0.62514800  0.00739463  1
  H  1108  1  0.11606900  0.65979400  0.88426300  1
  H  1109  1  0.62565400  0.15500400  0.00710163  1
  H  1111  1  0.70668700  0.13656600  0.01050260  1
  H  1113  1  0.67363400  0.12422200  0.97091000  1
  H  1116  1  0.66191200  0.12057500  0.88395000  1
  H  1128  1  0.70635700  0.25780800  0.14216500  1
  H  1129  1  0.66525800  0.24362100  0.09857760  1
  H  1130  1  0.66555100  0.20635500  0.06535160  1
  H  1131  1  0.62490700  0.16091400  0.05404260  1
  H  1132  1  0.62599100  0.30805400  0.15452300  1
  H  1134  1  0.70726700  0.30469800  0.13722700  1
  H  1136  1  0.67483000  0.34442300  0.12485800  1
  H  1139  1  0.66307500  0.43128400  0.12067900  1
  H  1142  1  0.65846000  0.55049200  0.12583900  1
  H  1143  1  0.65672300  0.50390500  0.13250700  1
  H  1153  1  0.24939400  0.66509000  0.10876800  1
  H  1154  1  0.21611900  0.66475300  0.07154660  1
  H  1155  1  0.17206700  0.70587600  0.05725460  1
  H  1156  1  0.26065600  0.62454000  0.15413100  1
  H  1164  1  0.43055700  0.66014700  0.11562600  1
  H  1168  1  0.55182900  0.65740000  0.12270000  1
  H  1169  1  0.50507100  0.65961300  0.12816000  1
  H  1172  1  0.81159100  0.65675900  0.13265200  1
  H  1173  1  0.76500400  0.65774100  0.12588500  1
  H  1174  1  0.00720517  0.62589300  0.15487500  1
  H  1176  1  0.01066520  0.70692800  0.13645000  1
  H  1178  1  0.97099700  0.67398300  0.12420100  1
  H  1181  1  0.88407500  0.66208000  0.12051000  1
  H  1193  1  0.14177100  0.66490500  0.13993700  1
  H  1194  1  0.05751020  0.70614100  0.14192000  1
  H  1195  1  0.07234420  0.66402000  0.09953560  1
  H  1196  1  0.10943000  0.66420700  0.06640560  1
  H  1197  1  0.15518500  0.62441000  0.05443160  1
  H  1201  1  0.66096600  0.81034700  0.12784700  1
  H  1202  1  0.65845400  0.76359100  0.12246600  1
  H  1208  1  0.65967000  0.88483300  0.11544700  1
  H  1220  1  0.66472900  0.14021500  0.14162300  1
  H  1221  1  0.70595300  0.14212100  0.05733060  1
  H  1222  1  0.66388500  0.09975950  0.07222960  1
  H  1223  1  0.66407600  0.06665150  0.10933200  1
  H  1224  1  0.62422000  0.05478350  0.15518900  1
  H  1234  1  0.78244000  0.41841700  0.31714900  1
  H  1235  1  0.82218300  0.40620800  0.36264200  1
  H  1236  1  0.82153200  0.37307700  0.39975300  1
  H  1237  1  0.82194900  0.33266000  0.33035200  1
  H  1238  1  0.86299100  0.33035900  0.41479300  1
  H  1245  1  0.81061500  0.58445900  0.36109800  1
  H  1251  1  0.86581400  0.72471100  0.32295800  1
  H  1252  1  0.80868700  0.71995700  0.36580400  1
  H  1253  1  0.80694400  0.67353500  0.37266200  1
  H  1254  1  0.75999200  0.72886600  0.32228900  1
  H  1256  1  0.80348800  0.62958200  0.35485000  1
  H  1267  1  0.31731800  0.78255000  0.41809800  1
  H  1268  1  0.36286400  0.82223900  0.40587700  1
  H  1269  1  0.39996300  0.82155400  0.37273200  1
  H  1270  1  0.33053600  0.82207100  0.33235300  1
  H  1271  1  0.41503200  0.86301900  0.33001400  1
  H  1275  1  0.46192500  0.86369700  0.33505900  1
  H  1277  1  0.50075500  0.82938500  0.34836300  1
  H  1280  1  0.58574200  0.81514500  0.35665500  1
  H  1281  1  0.46504100  0.78260700  0.31686000  1
  H  1286  1  0.72589400  0.76516500  0.32129300  1
  H  1287  1  0.72836800  0.87098100  0.31852600  1
  H  1288  1  0.71923100  0.82204400  0.36293500  1
  H  1289  1  0.67268200  0.82424500  0.36857900  1
  H  1291  1  0.62946800  0.82915300  0.34945000  1
  H  1316  1  0.83212300  0.83064600  0.31686700  1
  H  1317  1  0.79857000  0.79912900  0.31681100  1
  H  1322  1  0.95664500  0.80761700  0.37286000  1
  H  1323  1  0.91022500  0.80861600  0.36589800  1
  H  1324  1  0.90465400  0.86480900  0.32222400  1
  H  1325  1  0.90223700  0.75895900  0.32285300  1
  H  1327  1  0.00066535  0.80509100  0.35531300  1
  H  1333  1  0.04576430  0.81219300  0.36119700  1
  H  1346  1  0.29976800  0.86385700  0.41488000  1
  H  1347  1  0.25611600  0.82281100  0.40069900  1
  H  1348  1  0.22287800  0.82312200  0.36344600  1
  H  1349  1  0.21152800  0.78246400  0.31804200  1
  H  1354  1  0.87057400  0.90108000  0.32093500  1
  H  1355  1  0.76480300  0.90521900  0.31860200  1
  H  1356  1  0.82115100  0.91110500  0.36288000  1
  H  1357  1  0.82366700  0.95766600  0.36844000  1
  H  1359  1  0.83012500  0.00074197  0.34897700  1
  H  1361  1  0.86378600  0.16795200  0.33401200  1
  H  1363  1  0.82931800  0.12929000  0.34820000  1
  H  1366  1  0.81546600  0.04433300  0.35650100  1
  H  1367  1  0.78227700  0.16511100  0.31770600  1
  H  1377  1  0.82241400  0.26643100  0.40659100  1
  H  1378  1  0.82203800  0.22920300  0.37332700  1
  H  1379  1  0.86310500  0.21487100  0.32919000  1
  H  1380  1  0.78189500  0.31177100  0.41790100  1
  H  1384  1  0.86374600  0.33534700  0.46168200  1
  H  1386  1  0.82957200  0.34858700  0.50058100  1
  H  1389  1  0.81538900  0.35693500  0.58554700  1
  H  1390  1  0.78267000  0.31710500  0.46491400  1
  H  1396  1  0.36146800  0.81068200  0.58400300  1
  H  1398  1  0.31201500  0.78345900  0.46509400  1
  H  1400  1  0.29481500  0.86476000  0.46176200  1
  H  1402  1  0.28244200  0.83238300  0.50149000  1
  H  1405  1  0.27839000  0.82058600  0.58836500  1
  H  1410  1  0.81755100  0.27322500  0.58773200  1
  H  1415  1  0.76553300  0.32127600  0.72568800  1
  H  1416  1  0.87136900  0.31903900  0.72820000  1
  H  1417  1  0.82228800  0.36317800  0.71903700  1
  H  1418  1  0.82439400  0.36884700  0.67249100  1
  H  1420  1  0.82928100  0.34974400  0.62927200  1
  H  1425  1  0.32091300  0.86557000  0.72408700  1
  H  1426  1  0.36667600  0.80952500  0.71931000  1
  H  1427  1  0.37334600  0.80778200  0.67286700  1
  H  1428  1  0.32450700  0.75985800  0.72855400  1
  H  1430  1  0.35520900  0.80310500  0.62905900  1
  H  1434  1  0.28382500  0.81466900  0.70760600  1
  H  1435  1  0.29031000  0.81294200  0.66099200  1
  H  1439  1  0.81520400  0.28025600  0.70898100  1
  H  1440  1  0.81731900  0.28574000  0.66222900  1
  H  1451  1  0.41929400  0.32164200  0.78187300  1
  H  1452  1  0.40529500  0.36479000  0.82680700  1
  H  1453  1  0.37115800  0.40117100  0.82719100  1
  H  1454  1  0.33293800  0.33120600  0.81709900  1
  H  1455  1  0.31740900  0.41168000  0.86616800  1
  H  1458  1  0.31857300  0.42097300  0.78367400  1
  H  1459  1  0.46627000  0.31700700  0.78306000  1
  H  1464  1  0.58536400  0.36222900  0.80993800  1
  H  1470  1  0.72507400  0.32349000  0.86556000  1
  H  1471  1  0.72054100  0.36622600  0.80843200  1
  H  1472  1  0.67414500  0.37320000  0.80636300  1
  H  1473  1  0.72925000  0.32235500  0.75978600  1
  H  1475  1  0.63024300  0.35524300  0.80180800  1
  H  1500  1  0.83097400  0.31744400  0.83194000  1
  H  1501  1  0.79952200  0.31720900  0.79837200  1
  H  1507  1  0.90140700  0.32106600  0.87040800  1
  H  1508  1  0.90557300  0.31923100  0.76465900  1
  H  1509  1  0.91157800  0.36319800  0.82112100  1
  H  1510  1  0.95817500  0.36855400  0.82359500  1
  H  1512  1  0.00119035  0.34878800  0.83005200  1
  H  1514  1  0.16896600  0.33486600  0.86246800  1
  H  1516  1  0.12972200  0.34630100  0.82959400  1
  H  1519  1  0.04497430  0.35606700  0.81607800  1
  H  1529  1  0.26488200  0.40554900  0.81788000  1
  H  1530  1  0.22843700  0.37145400  0.81673900  1
  H  1531  1  0.21584400  0.33010100  0.86130400  1
  H  1536  1  0.34444200  0.58714800  0.78506900  1
  H  1539  1  0.31587500  0.46773900  0.78885500  1
  H  1540  1  0.31406300  0.45832900  0.87151300  1
  H  1543  1  0.30273700  0.50089300  0.85077600  1
  H  1546  1  0.29341700  0.58737600  0.85107100  1
  H  1551  1  0.32442500  0.72584800  0.76489200  1
  H  1552  1  0.32188800  0.72839800  0.87069700  1
  H  1553  1  0.36601700  0.71935700  0.82034000  1
  H  1554  1  0.37210900  0.67278600  0.81815100  1
  H  1556  1  0.35301800  0.63007200  0.80499800  1
  H  1560  1  0.28304000  0.70913400  0.81397800  1
  H  1561  1  0.28898700  0.66242100  0.81166300  1
  H  1585  1  0.31750700  0.83204100  0.83021200  1
  H  1586  1  0.31845600  0.79845400  0.79876700  1
  H  1592  1  0.36487500  0.96035700  0.79848600  1
  H  1593  1  0.36225300  0.91354400  0.80296200  1
  H  1594  1  0.32184100  0.90477200  0.86407700  1
  H  1595  1  0.31962600  0.90204000  0.75818700  1
  H  1597  1  0.33758700  0.00131597  0.78745600  1
  H  1601  1  0.28246000  0.96628600  0.81354500  1
  H  1602  1  0.27990600  0.91935300  0.81775600  1
  H  1603  1  0.31610800  0.04382300  0.77527600  1
  H  1604  1  0.31252500  0.16187300  0.79036100  1
  H  1607  1  0.31009200  0.04137000  0.85800000  1
  H  1608  1  0.31030400  0.12822400  0.85475700  1
  H  1611  1  0.31029000  0.17195300  0.87296700  1
  H  1627  1  0.41515400  0.29976900  0.86211400  1
  H  1628  1  0.40258100  0.25826700  0.81812600  1
  H  1629  1  0.36609400  0.22420700  0.81940600  1
  H  1631  1  0.46201000  0.29474900  0.86329800  1
  H  1633  1  0.50199800  0.28411300  0.83149600  1
  H  1636  1  0.58882200  0.27916200  0.82032500  1
  H  1639  1  0.70820000  0.28360600  0.81546700  1
  H  1640  1  0.66163400  0.29039200  0.81339000  1
  H  1644  1  0.96785500  0.28525400  0.81802000  1
  H  1645  1  0.92108300  0.28007900  0.81554100  1
  H  1647  1  0.16477800  0.31220900  0.78233300  1
  H  1652  1  0.04190330  0.27235200  0.81520900  1
  H  1655  1  0.31323100  0.20857600  0.78480700  1
  H  1666  1  0.29815500  0.29861300  0.81736300  1
  H  1667  1  0.31111500  0.21855300  0.86719400  1
  H  1668  1  0.25974800  0.22872700  0.82734600  1
  H  1669  1  0.22565200  0.26506800  0.82623100  1
  H  1670  1  0.21180100  0.30782500  0.78115500  1
  H  1675  1  0.80796900  0.37307900  0.95653600  1
  H  1676  1  0.80904700  0.36618100  0.91011700  1
  H  1677  1  0.86514300  0.32230100  0.90449000  1
  H  1678  1  0.75928300  0.32335800  0.90201600  1
  H  1680  1  0.80528600  0.35547300  0.00050926  1
  H  1686  1  0.32185500  0.87076100  0.90046200  1
  H  1687  1  0.32133500  0.76490700  0.90489300  1
  H  1688  1  0.36433900  0.82200300  0.91097800  1
  H  1689  1  0.36955100  0.82459500  0.95756700  1
  H  1691  1  0.34979600  0.83049800  0.00053526  1
  H  1695  1  0.28631900  0.81793800  0.96707800  1
  H  1696  1  0.28128900  0.81535000  0.92029700  1
  H  1699  1  0.81425400  0.29016400  0.96874200  1
  H  1700  1  0.81531000  0.28346000  0.92215300  1
  H  1705  1  0.81243100  0.36134200  0.04559130  1
  H  1708  1  0.33425700  0.86397500  0.16768700  1
  H  1710  1  0.34841100  0.82960300  0.12903300  1
  H  1713  1  0.35715300  0.81578600  0.04414030  1
  H  1714  1  0.31773200  0.78251700  0.16473500  1
  H  1720  1  0.27343700  0.81716300  0.04160330  1
  H  1721  1  0.78302200  0.31237300  0.16444200  1
  H  1723  1  0.86405500  0.29393500  0.16784300  1
  H  1725  1  0.83100200  0.28159100  0.12825000  1
  H  1728  1  0.81928000  0.27794400  0.04129030  1
  H  1740  1  0.86372500  0.41517700  0.29950500  1
  H  1741  1  0.82262600  0.40099000  0.25591800  1
  H  1742  1  0.82291900  0.36372400  0.22269200  1
  H  1743  1  0.78227500  0.31828300  0.21138300  1
  H  1744  1  0.78335900  0.46542300  0.31186300  1
  H  1746  1  0.86463500  0.46206700  0.29456700  1
  H  1748  1  0.83219800  0.50179200  0.28219800  1
  H  1751  1  0.82044300  0.58865300  0.27801900  1
  H  1754  1  0.81582800  0.70786100  0.28317900  1
  H  1755  1  0.81409100  0.66127400  0.28984700  1
  H  1765  1  0.40676200  0.82245900  0.26610800  1
  H  1766  1  0.37348700  0.82212200  0.22888700  1
  H  1767  1  0.32943500  0.86324500  0.21459500  1
  H  1768  1  0.41802400  0.78190900  0.31147100  1
  H  1776  1  0.58792500  0.81751600  0.27296600  1
  H  1780  1  0.70919700  0.81476900  0.28004000  1
  H  1781  1  0.66243900  0.81698200  0.28550000  1
  H  1784  1  0.96895900  0.81412800  0.28999200  1
  H  1785  1  0.92237200  0.81511000  0.28322500  1
  H  1786  1  0.16457300  0.78326200  0.31221500  1
  H  1788  1  0.16803300  0.86429700  0.29379000  1
  H  1790  1  0.12836500  0.83135200  0.28154100  1
  H  1793  1  0.04144330  0.81944900  0.27785000  1
  H  1805  1  0.29913900  0.82227400  0.29727700  1
  H  1806  1  0.21487800  0.86351000  0.29926000  1
  H  1807  1  0.22971200  0.82138900  0.25687600  1
  H  1808  1  0.26679800  0.82157600  0.22374600  1
  H  1809  1  0.31255300  0.78177900  0.21177200  1
  H  1813  1  0.81833400  0.96771600  0.28518700  1
  H  1814  1  0.81582200  0.92096000  0.27980600  1
  H  1820  1  0.81703800  0.04220200  0.27278700  1
  H  1832  1  0.82209700  0.29758400  0.29896300  1
  H  1833  1  0.86332100  0.29949000  0.21467100  1
  H  1834  1  0.82125300  0.25712800  0.22957000  1
  H  1835  1  0.82144400  0.22402000  0.26667200  1
  H  1836  1  0.78158800  0.21215200  0.31252900  1
  C  1  1  0.50724700  0.07154200  0.04533100  1
  C  2  1  0.50693200  0.05345700  0.06557500  1
  C  3  1  0.50705200  0.02822000  0.05465700  1
  C  5  1  0.50723300  0.05782900  0.02151100  1
  C  6  1  0.50709300  0.00435700  0.06934800  1
  C  7  1  0.50766200  0.00617000  0.09735900  1
  C  8  1  0.53172500  0.01540700  0.13804900  1
  C  9  1  0.53130600  0.01250300  0.11053300  1
  C  15  1  0.48506600  0.00477100  0.13991500  1
  C  16  1  0.48457000  0.00222200  0.11233800  1
  C  17  1  0.50198500  0.22238300  0.00305900  1
  C  19  1  0.49805800  0.26152300  0.02823200  1
  C  22  1  0.50044300  0.27730500  0.00543200  1
  C  23  1  0.49763000  0.40343600  0.00958000  1
  C  24  1  0.49509800  0.39297700  0.03517100  1
  C  25  1  0.49407500  0.36561800  0.03911700  1
  C  26  1  0.49567000  0.34786700  0.01768800  1
  C  31  1  0.49436800  0.32088600  0.02244000  1
  C  34  1  0.04548800  0.50731900  0.07127200  1
  C  35  1  0.06572500  0.50699400  0.05317900  1
  C  36  1  0.05479300  0.50712800  0.02795100  1
  C  38  1  0.02165800  0.50733800  0.05757200  1
  C  39  1  0.06947100  0.50715900  0.00408300  1
  C  40  1  0.09748700  0.50769200  0.00588800  1
  C  41  1  0.13821300  0.53169300  0.01515800  1
  C  42  1  0.11069400  0.53131500  0.01223300  1
  C  48  1  0.14001400  0.48502500  0.00453000  1
  C  49  1  0.11243300  0.48457100  0.00197400  1
  C  50  1  0.15316800  0.50858300  0.01125800  1
  C  52  1  0.17988300  0.50885300  0.01601100  1
  C  54  1  0.26236800  0.50138200  0.02388200  1
  C  58  1  0.40374600  0.50340400  0.00669800  1
  C  59  1  0.34803300  0.50600700  0.01334000  1
  C  60  1  0.36522600  0.50742300  0.03523000  1
  C  61  1  0.39265900  0.50609300  0.03200400  1
  C  66  1  0.32099600  0.50791700  0.01740700  1
  C  68  1  0.57011700  0.54695200  0.00598500  1
  C  69  1  0.55153800  0.56672900  0.00524400  1
  C  70  1  0.52664600  0.55513100  0.00383800  1
  C  72  1  0.55704400  0.52279400  0.00485000  1
  C  73  1  0.56951900  0.49775300  0.00590000  1
  C  74  1  0.55614700  0.47322900  0.00564100  1
  C  76  1  0.52404600  0.44303800  0.00559900  1
  C  77  1  0.54809400  0.42981900  0.00705200  1
  C  78  1  0.56787100  0.44841400  0.00701500  1
  C  79  1  0.49873700  0.43122100  0.00590000  1
  C  80  1  0.47451600  0.44524700  0.00495900  1
  C  82  1  0.44411500  0.47760000  0.00395400  1
  C  83  1  0.43100000  0.45348900  0.00553100  1
  C  84  1  0.44958900  0.43370400  0.00608800  1
  C  85  1  0.43162500  0.50265500  0.00374000  1
  C  86  1  0.44501800  0.52716700  0.00308800  1
  C  88  1  0.47712300  0.55734400  0.00303700  1
  C  89  1  0.45306300  0.57060800  0.00341000  1
  C  90  1  0.43328200  0.55201500  0.00336600  1
  C  91  1  0.50241800  0.56916800  0.00365700  1
  C  94  1  0.59730500  0.49717200  0.00964200  1
  C  95  1  0.60774400  0.49505600  0.03527800  1
  C  96  1  0.65286900  0.49609000  0.01787000  1
  C  97  1  0.63510500  0.49447300  0.03928500  1
  C  102  1  0.67985200  0.49519900  0.02268800  1
  C  105  1  0.77827800  0.50230800  0.00292500  1
  C  107  1  0.73919600  0.49910600  0.02826200  1
  C  110  1  0.72339000  0.50075200  0.00541700  1
  C  111  1  0.99762600  0.48529700  0.11250800  1
  C  112  1  0.99504500  0.48586500  0.14008000  1
  C  113  1  0.99549700  0.50770800  0.06947100  1
  C  114  1  0.97132400  0.50772800  0.05542900  1
  C  116  1  0.94194700  0.50763100  0.02254700  1
  C  117  1  0.92808500  0.50808200  0.04625600  1
  C  118  1  0.94616400  0.50794400  0.06649700  1
  C  119  1  0.99406100  0.50842800  0.09750400  1
  C  120  1  0.98795000  0.53215100  0.11064500  1
  C  121  1  0.98498300  0.53263700  0.13815700  1
  C  126  1  0.50348600  0.59703400  0.00655900  1
  C  127  1  0.50641700  0.65271300  0.01310100  1
  C  128  1  0.50721300  0.63559400  0.03507300  1
  C  129  1  0.50570300  0.60816800  0.03189200  1
  C  134  1  0.50845300  0.67973000  0.01710600  1
  C  136  1  0.50845700  0.84739200  0.01112200  1
  C  138  1  0.50873800  0.82069600  0.01586700  1
  C  140  1  0.50151100  0.73825500  0.02372700  1
  C  144  1  0.50703400  0.93107100  0.00457900  1
  C  145  1  0.50708400  0.94509600  0.02875000  1
  C  147  1  0.50704600  0.97796100  0.05813300  1
  C  148  1  0.50738500  0.95422900  0.07197400  1
  C  149  1  0.50721900  0.93399800  0.05388800  1
  C  150  1  0.50758700  0.90305100  0.00596000  1
  C  151  1  0.53169800  0.86225500  0.01451600  1
  C  152  1  0.53132800  0.88977900  0.01169100  1
  C  157  1  0.48477700  0.86061300  0.00498300  1
  C  158  1  0.48433400  0.88820000  0.00252100  1
  C  159  1  0.50864500  0.01147600  0.15304000  1
  C  161  1  0.50896000  0.01620500  0.17975600  1
  C  163  1  0.50157000  0.02409900  0.26223000  1
  C  167  1  0.50227000  0.00081700  0.27744300  1
  C  168  1  0.00327600  0.50209800  0.22208200  1
  C  170  1  0.02852900  0.49814000  0.26116200  1
  C  173  1  0.00575800  0.50053000  0.27698400  1
  C  175  1  0.98855100  0.50952800  0.15319500  1
  C  177  1  0.98445800  0.51009000  0.18004800  1
  C  179  1  0.98091900  0.50391600  0.26355100  1
  C  182  1  0.50270500  0.99872900  0.22245400  1
  C  184  1  0.50256700  0.97610600  0.26335700  1
  C  187  1  0.50376900  0.00686600  0.40359800  1
  C  188  1  0.50625100  0.01354000  0.34789000  1
  C  189  1  0.50764000  0.03543000  0.36508700  1
  C  190  1  0.50637500  0.03218700  0.39251600  1
  C  195  1  0.50809500  0.01762500  0.32085500  1
  C  197  1  0.01030500  0.49748100  0.40304200  1
  C  198  1  0.03590300  0.49553000  0.39246700  1
  C  199  1  0.03974000  0.49449900  0.36509700  1
  C  200  1  0.01818500  0.49553600  0.34746100  1
  C  205  1  0.02282700  0.49418800  0.32047900  1
  C  208  1  0.99174200  0.49756800  0.35828200  1
  C  209  1  0.98783000  0.49851000  0.38569900  1
  C  213  1  0.50227000  0.98407200  0.38669400  1
  C  214  1  0.50347200  0.98738900  0.35920300  1
  C  217  1  0.07077700  0.04708600  0.51011000  1
  C  218  1  0.05218300  0.06688900  0.51043500  1
  C  219  1  0.02736200  0.05542800  0.50759700  1
  C  221  1  0.05773800  0.02307100  0.50709500  1
  C  222  1  0.00316800  0.06946500  0.50689800  1
  C  223  1  0.00395200  0.09734300  0.50976000  1
  C  224  1  0.00129700  0.13609600  0.53816800  1
  C  225  1  0.00292400  0.10865000  0.53510200  1
  C  226  1  0.11346100  0.00192700  0.48455000  1
  C  232  1  0.00364300  0.11402500  0.48755700  1
  C  233  1  0.00205800  0.14151000  0.49067900  1
  C  236  1  0.22291600  0.00457400  0.50144900  1
  C  238  1  0.26226200  0.02938600  0.49748700  1
  C  241  1  0.27782800  0.00645900  0.50007200  1
  C  242  1  0.40387800  0.00994300  0.49743600  1
  C  243  1  0.39351300  0.03556900  0.49484200  1
  C  244  1  0.36617800  0.03958300  0.49361700  1
  C  245  1  0.34838400  0.01818300  0.49507000  1
  C  250  1  0.32145200  0.02298600  0.49346900  1
  C  253  1  0.54728500  0.00598400  0.57001600  1
  C  254  1  0.56705700  0.00532200  0.55143000  1
  C  255  1  0.55545300  0.00406300  0.52653600  1
  C  257  1  0.52312300  0.00501300  0.55693500  1
  C  258  1  0.49808800  0.00615400  0.56940800  1
  C  259  1  0.47357400  0.00594700  0.55602000  1
  C  261  1  0.44342600  0.00594600  0.52389500  1
  C  262  1  0.43018200  0.00747100  0.54792100  1
  C  263  1  0.44875500  0.00741700  0.56771600  1
  C  264  1  0.43163500  0.00620000  0.49857900  1
  C  265  1  0.44564500  0.00510600  0.47436200  1
  C  267  1  0.47798000  0.00403700  0.44396000  1
  C  268  1  0.45386400  0.00549600  0.43084600  1
  C  269  1  0.43408600  0.00607200  0.44943600  1
  C  270  1  0.50303300  0.00389600  0.43147100  1
  C  271  1  0.52753500  0.00335600  0.44487700  1
  C  273  1  0.55768100  0.00339800  0.47700400  1
  C  274  1  0.55239000  0.00377300  0.43316100  1
  C  275  1  0.56947600  0.00401500  0.50230600  1
  C  278  1  0.57096300  0.00386800  0.45295600  1
  C  279  1  0.59734400  0.00681800  0.50338600  1
  C  280  1  0.65303300  0.01311600  0.50625900  1
  C  281  1  0.63601700  0.03516700  0.50715400  1
  C  282  1  0.60857600  0.03210600  0.50566500  1
  C  287  1  0.68006300  0.01697200  0.50826500  1
  C  289  1  0.84770300  0.00918400  0.50795100  1
  C  291  1  0.82101500  0.01409800  0.50840300  1
  C  293  1  0.73869000  0.02312200  0.50160200  1
  C  296  1  0.93138200  0.00311800  0.50545300  1
  C  297  1  0.94493100  0.02754200  0.50452600  1
  C  299  1  0.97710700  0.05762800  0.50524000  1
  C  300  1  0.95311200  0.07093600  0.50372600  1
  C  301  1  0.93330900  0.05240300  0.50306300  1
  C  302  1  0.90336000  0.00399200  0.50649500  1
  C  303  1  0.86296200  0.01409000  0.53066300  1
  C  304  1  0.89047400  0.01129100  0.53001400  1
  C  308  1  0.86055200  0.00137600  0.48455000  1
  C  310  1  0.01915600  0.26324400  0.48481200  1
  C  313  1  0.00516700  0.22295800  0.50383400  1
  C  314  1  0.00496100  0.27789300  0.50372400  1
  C  317  1  0.99987800  0.15299500  0.51604000  1
  C  318  1  0.99678800  0.17991400  0.51973100  1
  C  320  1  0.98955700  0.26334000  0.52226100  1
  C  323  1  0.00961400  0.40374300  0.50305500  1
  C  324  1  0.01680100  0.34818600  0.50029800  1
  C  325  1  0.03859300  0.36533100  0.50291400  1
  C  326  1  0.03507800  0.39273100  0.50431400  1
  C  331  1  0.02107800  0.32132900  0.49750100  1
  C  334  1  0.98690900  0.38681800  0.50068000  1
  C  335  1  0.99047500  0.35937300  0.49934600  1
  C  338  1  0.00602900  0.57019100  0.54635900  1
  C  339  1  0.00607800  0.55164300  0.56618800  1
  C  340  1  0.00497700  0.52668900  0.55469300  1
  C  342  1  0.00477600  0.55702900  0.52226500  1
  C  343  1  0.00488100  0.56945900  0.49718500  1
  C  344  1  0.00476500  0.55599300  0.47270000  1
  C  346  1  0.00564900  0.52384200  0.44260100  1
  C  347  1  0.00565100  0.54786500  0.42927800  1
  C  348  1  0.00491000  0.56766700  0.44781500  1
  C  349  1  0.00675900  0.49854700  0.43083800  1
  C  350  1  0.00663400  0.47437400  0.44494700  1
  C  352  1  0.00641200  0.44404900  0.47736600  1
  C  353  1  0.00818800  0.43092600  0.45326500  1
  C  354  1  0.00832500  0.44946800  0.43344600  1
  C  355  1  0.00650300  0.43159900  0.50244800  1
  C  356  1  0.00565100  0.44498900  0.52693600  1
  C  358  1  0.00505900  0.47715300  0.55704900  1
  C  359  1  0.00620100  0.43329200  0.55178400  1
  C  360  1  0.00528900  0.50249500  0.56880000  1
  C  363  1  0.00589200  0.45311500  0.57034200  1
  C  364  1  0.00655400  0.59744700  0.49633500  1
  C  365  1  0.03085200  0.60980500  0.49093200  1
  C  366  1  0.00964700  0.65312400  0.49123500  1
  C  367  1  0.03232900  0.63729700  0.48822800  1
  C  372  1  0.01133100  0.67999900  0.48718200  1
  C  375  1  0.98304900  0.61316300  0.49950100  1
  C  376  1  0.98460300  0.64071200  0.49707400  1
  C  381  1  0.99635300  0.73642500  0.52578500  1
  C  385  1  0.99855000  0.72255900  0.50189100  1
  C  386  1  0.99656300  0.84733300  0.51758400  1
  C  388  1  0.99633100  0.82020800  0.52168600  1
  C  389  1  0.99737000  0.77742000  0.50328400  1
  C  391  1  0.99954600  0.73780800  0.47866000  1
  C  393  1  0.14101900  0.99841300  0.48528400  1
  C  394  1  0.07018000  0.99720700  0.50615300  1
  C  395  1  0.05663100  0.97277100  0.50535100  1
  C  397  1  0.02444300  0.94270600  0.50617900  1
  C  398  1  0.04842200  0.92935500  0.50500600  1
  C  399  1  0.06823600  0.94787800  0.50425100  1
  C  400  1  0.09820600  0.99628600  0.50727400  1
  C  401  1  0.11107000  0.98893900  0.53079600  1
  C  402  1  0.13856600  0.98590200  0.53143200  1
  C  406  1  0.15386000  0.99058300  0.50869200  1
  C  408  1  0.18067700  0.98624000  0.50934100  1
  C  410  1  0.26413900  0.98178300  0.50355700  1
  C  413  1  0.35899800  0.99171500  0.49776700  1
  C  414  1  0.38638000  0.98762500  0.49891900  1
  C  418  1  0.61407800  0.98386800  0.50242800  1
  C  419  1  0.64157400  0.98699900  0.50381800  1
  C  422  1  0.72325000  0.99917600  0.50153100  1
  C  424  1  0.77818800  0.99728700  0.50163500  1
  C  426  1  0.73705900  0.97512000  0.50087200  1
  C  429  1  0.99738200  0.85873000  0.49212600  1
  C  430  1  0.99776500  0.88621900  0.48874900  1
  C  432  1  0.99836700  0.93091900  0.50771100  1
  C  433  1  0.97417000  0.94496200  0.50795700  1
  C  435  1  0.94381600  0.97728200  0.50677800  1
  C  436  1  0.93072500  0.95330100  0.50981700  1
  C  437  1  0.94930600  0.93351600  0.51052500  1
  C  438  1  0.88813100  0.99806200  0.48381700  1
  C  439  1  0.99739400  0.90308300  0.51079300  1
  C  440  1  0.99656300  0.89198200  0.53621900  1
  C  441  1  0.99610100  0.86452300  0.53952100  1
  C  447  1  0.49750400  0.00985200  0.59719400  1
  C  448  1  0.49543200  0.03548100  0.60766700  1
  C  449  1  0.49632500  0.01800200  0.65276300  1
  C  450  1  0.49479900  0.03945000  0.63502700  1
  C  455  1  0.49537700  0.02278700  0.67974500  1
  C  458  1  0.00800700  0.50367600  0.59668300  1
  C  459  1  0.01413500  0.50669500  0.65241700  1
  C  460  1  0.03620200  0.50785600  0.63543400  1
  C  461  1  0.03322800  0.50630600  0.60798600  1
  C  466  1  0.01794000  0.50874700  0.67946800  1
  C  469  1  0.98503800  0.50244400  0.61338500  1
  C  470  1  0.98808500  0.50390600  0.64089200  1
  C  473  1  0.49906200  0.98748500  0.61462600  1
  C  474  1  0.49849100  0.99153000  0.64203000  1
  C  477  1  0.50221700  0.00298600  0.77816500  1
  C  479  1  0.49922700  0.02833900  0.73907800  1
  C  482  1  0.50079300  0.00548100  0.72327700  1
  C  483  1  0.01119900  0.50867400  0.84712000  1
  C  485  1  0.01600900  0.50898500  0.82043100  1
  C  487  1  0.02427600  0.50178900  0.73802800  1
  C  491  1  0.00105400  0.50230200  0.72272300  1
  C  492  1  0.99871900  0.50264100  0.77769500  1
  C  494  1  0.97627500  0.50234000  0.73669800  1
  C  498  1  0.50894000  0.98820700  0.84704300  1
  C  500  1  0.50940100  0.98393700  0.82023600  1
  C  502  1  0.50325800  0.98054100  0.73672800  1
  C  505  1  0.48518400  0.11276800  0.99749800  1
  C  506  1  0.48576000  0.14034600  0.99492800  1
  C  507  1  0.50758700  0.06971800  0.99534900  1
  C  508  1  0.50759300  0.05566700  0.97118100  1
  C  510  1  0.50747900  0.02277200  0.94181500  1
  C  511  1  0.50791200  0.04648200  0.92795200  1
  C  512  1  0.50778800  0.06673000  0.94602400  1
  C  513  1  0.50830900  0.09775500  0.99390500  1
  C  514  1  0.53203000  0.11089300  0.98778100  1
  C  515  1  0.53251800  0.13840900  0.98480900  1
  C  521  1  0.50941800  0.15345900  0.98841600  1
  C  523  1  0.50999300  0.18031400  0.98431500  1
  C  525  1  0.50378500  0.26381600  0.98062200  1
  C  528  1  0.49827700  0.35858200  0.99125600  1
  C  529  1  0.49923300  0.38598800  0.98723200  1
  C  532  1  0.00467600  0.50716700  0.93080900  1
  C  533  1  0.02885300  0.50718700  0.94483200  1
  C  535  1  0.05824600  0.50711200  0.97769300  1
  C  536  1  0.07208600  0.50744600  0.95396200  1
  C  537  1  0.05399500  0.50730100  0.93373400  1
  C  538  1  0.00604600  0.50774500  0.90278700  1
  C  539  1  0.01465400  0.53188600  0.86201800  1
  C  540  1  0.01183200  0.53148600  0.88953900  1
  C  545  1  0.00501000  0.48499400  0.86031700  1
  C  546  1  0.00254700  0.48452400  0.88790100  1
  C  547  1  0.27758000  0.50212300  0.99979500  1
  C  548  1  0.22258500  0.50262900  0.99852100  1
  C  550  1  0.26349100  0.50249500  0.97589700  1
  C  554  1  0.38684800  0.50188200  0.98390400  1
  C  555  1  0.35935400  0.50313700  0.98720600  1
  C  558  1  0.61476500  0.49882100  0.98730900  1
  C  559  1  0.64216800  0.49829200  0.99139200  1
  C  563  1  0.84714600  0.50918300  0.98811300  1
  C  565  1  0.82032900  0.50968300  0.98390000  1
  C  567  1  0.73683100  0.50336500  0.98049200  1
  C  570  1  0.88773600  0.48512200  0.99799000  1
  C  571  1  0.86019600  0.48562500  0.99508100  1
  C  572  1  0.93074000  0.50757400  0.99615300  1
  C  573  1  0.94541700  0.50722400  0.97229800  1
  C  575  1  0.97852500  0.50698600  0.94270400  1
  C  576  1  0.95470600  0.50688000  0.92899000  1
  C  577  1  0.93447400  0.50682900  0.94707700  1
  C  578  1  0.90274600  0.50822200  0.99425100  1
  C  579  1  0.88967100  0.53184100  0.98761700  1
  C  580  1  0.86219300  0.53225400  0.98433500  1
  C  587  1  0.50260600  0.61387500  0.98368600  1
  C  588  1  0.50402300  0.64136100  0.98693700  1
  C  591  1  0.50207500  0.72307100  0.99962200  1
  C  592  1  0.50243300  0.77804000  0.99837000  1
  C  594  1  0.50217400  0.73715700  0.97572400  1
  C  597  1  0.48493000  0.99817600  0.88763300  1
  C  598  1  0.48540000  0.99521400  0.86010500  1
  C  599  1  0.50742200  0.99637100  0.93061700  1
  C  600  1  0.50709100  0.97252300  0.94530400  1
  C  602  1  0.50685700  0.94294600  0.97842700  1
  C  603  1  0.50675500  0.92921400  0.95462100  1
  C  604  1  0.50669400  0.94728700  0.93438100  1
  C  605  1  0.50804300  0.99445300  0.90262400  1
  C  606  1  0.53164500  0.98778800  0.88953500  1
  C  607  1  0.53202600  0.98445200  0.86206700  1
  C  613  1  0.66461500  0.22891000  0.20267200  1
  C  614  1  0.66430000  0.21082500  0.22291600  1
  C  615  1  0.66442000  0.18558800  0.21199800  1
  C  617  1  0.66460100  0.21519700  0.17885200  1
  C  618  1  0.66446100  0.16172500  0.22668900  1
  C  619  1  0.66503000  0.16353800  0.25470000  1
  C  620  1  0.68909300  0.17277500  0.29539000  1
  C  621  1  0.68867400  0.16987100  0.26787400  1
  C  627  1  0.64243400  0.16213900  0.29725600  1
  C  628  1  0.64193800  0.15959000  0.26967900  1
  C  629  1  0.65935300  0.37975100  0.16040000  1
  C  631  1  0.65542600  0.41889100  0.18557300  1
  C  634  1  0.65781100  0.43467300  0.16277300  1
  C  635  1  0.65499800  0.56080400  0.16692100  1
  C  636  1  0.65246600  0.55034500  0.19251200  1
  C  637  1  0.65144300  0.52298600  0.19645800  1
  C  638  1  0.65303800  0.50523500  0.17502900  1
  C  643  1  0.65173600  0.47825400  0.17978100  1
  C  646  1  0.20285600  0.66468700  0.22861300  1
  C  647  1  0.22309300  0.66436200  0.21052000  1
  C  648  1  0.21216100  0.66449600  0.18529200  1
  C  650  1  0.17902600  0.66470600  0.21491300  1
  C  651  1  0.22683900  0.66452700  0.16142400  1
  C  652  1  0.25485500  0.66506000  0.16322900  1
  C  653  1  0.29558100  0.68906100  0.17249900  1
  C  654  1  0.26806200  0.68868300  0.16957400  1
  C  660  1  0.29738200  0.64239300  0.16187100  1
  C  661  1  0.26980100  0.64193900  0.15931500  1
  C  662  1  0.31053600  0.66595100  0.16859900  1
  C  664  1  0.33725100  0.66622100  0.17335200  1
  C  666  1  0.41973600  0.65875000  0.18122300  1
  C  670  1  0.56111400  0.66077200  0.16403900  1
  C  671  1  0.50540100  0.66337500  0.17068100  1
  C  672  1  0.52259400  0.66479100  0.19257100  1
  C  673  1  0.55002700  0.66346100  0.18934500  1
  C  678  1  0.47836400  0.66528500  0.17474800  1
  C  680  1  0.72748500  0.70432000  0.16332600  1
  C  681  1  0.70890600  0.72409700  0.16258500  1
  C  682  1  0.68401400  0.71249900  0.16117900  1
  C  684  1  0.71441200  0.68016200  0.16219100  1
  C  685  1  0.72688700  0.65512100  0.16324100  1
  C  686  1  0.71351500  0.63059700  0.16298200  1
  C  688  1  0.68141400  0.60040600  0.16294000  1
  C  689  1  0.70546200  0.58718700  0.16439300  1
  C  690  1  0.72523900  0.60578200  0.16435600  1
  C  691  1  0.65610500  0.58858900  0.16324100  1
  C  692  1  0.63188400  0.60261500  0.16230000  1
  C  694  1  0.60148300  0.63496800  0.16129500  1
  C  695  1  0.58836800  0.61085700  0.16287200  1
  C  696  1  0.60695700  0.59107200  0.16342900  1
  C  697  1  0.58899300  0.66002300  0.16108100  1
  C  698  1  0.60238600  0.68453500  0.16042900  1
  C  700  1  0.63449100  0.71471200  0.16037800  1
  C  701  1  0.61043100  0.72797600  0.16075100  1
  C  702  1  0.59065000  0.70938300  0.16070700  1
  C  703  1  0.65978600  0.72653600  0.16099800  1
  C  706  1  0.75467300  0.65454000  0.16698300  1
  C  707  1  0.76511200  0.65242400  0.19261900  1
  C  708  1  0.81023700  0.65345800  0.17521100  1
  C  709  1  0.79247300  0.65184100  0.19662600  1
  C  714  1  0.83722000  0.65256700  0.18002900  1
  C  717  1  0.93564600  0.65967600  0.16026600  1
  C  719  1  0.89656400  0.65647400  0.18560300  1
  C  722  1  0.88075800  0.65812000  0.16275800  1
  C  723  1  0.15499400  0.64266500  0.26984900  1
  C  724  1  0.15241300  0.64323300  0.29742100  1
  C  725  1  0.15286500  0.66507600  0.22681200  1
  C  726  1  0.12869200  0.66509600  0.21277000  1
  C  728  1  0.09931520  0.66499900  0.17988800  1
  C  729  1  0.08545320  0.66545000  0.20359700  1
  C  730  1  0.10353200  0.66531200  0.22383800  1
  C  731  1  0.15142900  0.66579600  0.25484500  1
  C  732  1  0.14531800  0.68951900  0.26798600  1
  C  733  1  0.14235100  0.69000500  0.29549800  1
  C  738  1  0.66085400  0.75440200  0.16390000  1
  C  739  1  0.66378500  0.81008100  0.17044200  1
  C  740  1  0.66458100  0.79296200  0.19241400  1
  C  741  1  0.66307100  0.76553600  0.18923300  1
  C  746  1  0.66582100  0.83709800  0.17444700  1
  C  748  1  0.66582500  0.00476048  0.16846300  1
  C  750  1  0.66610600  0.97806400  0.17320800  1
  C  752  1  0.65887900  0.89562300  0.18106800  1
  C  756  1  0.66440200  0.08843950  0.16192000  1
  C  757  1  0.66445200  0.10246400  0.18609100  1
  C  759  1  0.66441400  0.13532900  0.21547400  1
  C  760  1  0.66475300  0.11159700  0.22931500  1
  C  761  1  0.66458700  0.09136650  0.21122900  1
  C  762  1  0.66495500  0.06041950  0.16330100  1
  C  763  1  0.68906600  0.01962350  0.17185700  1
  C  764  1  0.68869600  0.04714750  0.16903200  1
  C  769  1  0.64214500  0.01798150  0.16232400  1
  C  770  1  0.64170200  0.04556850  0.15986200  1
  C  771  1  0.66601300  0.16884400  0.31038100  1
  C  773  1  0.66632800  0.17357300  0.33709700  1
  C  775  1  0.65893800  0.18146700  0.41957100  1
  C  779  1  0.65963800  0.15818500  0.43478400  1
  C  780  1  0.16064400  0.65946600  0.37942300  1
  C  782  1  0.18589700  0.65550800  0.41850300  1
  C  785  1  0.16312600  0.65789800  0.43432500  1
  C  787  1  0.14591900  0.66689600  0.31053600  1
  C  789  1  0.14182600  0.66745800  0.33738900  1
  C  791  1  0.13828700  0.66128400  0.42089200  1
  C  794  1  0.66007300  0.15609700  0.37979500  1
  C  796  1  0.65993500  0.13347400  0.42069800  1
  C  799  1  0.66113700  0.16423400  0.56093900  1
  C  800  1  0.66361900  0.17090800  0.50523100  1
  C  801  1  0.66500800  0.19279800  0.52242800  1
  C  802  1  0.66374300  0.18955500  0.54985700  1
  C  807  1  0.66546300  0.17499300  0.47819600  1
  C  809  1  0.16767300  0.65484900  0.56038300  1
  C  810  1  0.19327100  0.65289800  0.54980800  1
  C  811  1  0.19710800  0.65186700  0.52243800  1
  C  812  1  0.17555300  0.65290400  0.50480200  1
  C  817  1  0.18019500  0.65155600  0.47782000  1
  C  820  1  0.14911000  0.65493600  0.51562300  1
  C  821  1  0.14519800  0.65587800  0.54304000  1
  C  825  1  0.65963800  0.14144000  0.54403500  1
  C  826  1  0.66084000  0.14475700  0.51654400  1
  C  829  1  0.22814500  0.20445400  0.66745100  1
  C  830  1  0.20955100  0.22425700  0.66777600  1
  C  831  1  0.18473000  0.21279600  0.66493800  1
  C  833  1  0.21510600  0.18043900  0.66443600  1
  C  834  1  0.16053600  0.22683300  0.66423900  1
  C  835  1  0.16132000  0.25471100  0.66710100  1
  C  836  1  0.15866500  0.29346400  0.69550900  1
  C  837  1  0.16029200  0.26601800  0.69244300  1
  C  838  1  0.27082900  0.15929500  0.64189100  1
  C  844  1  0.16101100  0.27139300  0.64489800  1
  C  845  1  0.15942600  0.29887800  0.64802000  1
  C  848  1  0.38028400  0.16194200  0.65879000  1
  C  850  1  0.41963000  0.18675400  0.65482800  1
  C  853  1  0.43519600  0.16382700  0.65741300  1
  C  854  1  0.56124600  0.16731100  0.65477700  1
  C  855  1  0.55088100  0.19293700  0.65218300  1
  C  856  1  0.52354600  0.19695100  0.65095800  1
  C  857  1  0.50575200  0.17555100  0.65241100  1
  C  862  1  0.47882000  0.18035400  0.65081000  1
  C  865  1  0.70465300  0.16335200  0.72735700  1
  C  866  1  0.72442500  0.16269000  0.70877100  1
  C  867  1  0.71282100  0.16143100  0.68387700  1
  C  869  1  0.68049100  0.16238100  0.71427600  1
  C  870  1  0.65545600  0.16352200  0.72674900  1
  C  871  1  0.63094200  0.16331500  0.71336100  1
  C  873  1  0.60079400  0.16331400  0.68123600  1
  C  874  1  0.58755000  0.16483900  0.70526200  1
  C  875  1  0.60612300  0.16478500  0.72505700  1
  C  876  1  0.58900300  0.16356800  0.65592000  1
  C  877  1  0.60301300  0.16247400  0.63170300  1
  C  879  1  0.63534800  0.16140500  0.60130100  1
  C  880  1  0.61123200  0.16286400  0.58818700  1
  C  881  1  0.59145400  0.16344000  0.60677700  1
  C  882  1  0.66040100  0.16126400  0.58881200  1
  C  883  1  0.68490300  0.16072400  0.60221800  1
  C  885  1  0.71504900  0.16076600  0.63434500  1
  C  886  1  0.70975800  0.16114100  0.59050200  1
  C  887  1  0.72684400  0.16138300  0.65964700  1
  C  890  1  0.72833100  0.16123600  0.61029700  1
  C  891  1  0.75471200  0.16418600  0.66072700  1
  C  892  1  0.81040100  0.17048400  0.66360000  1
  C  893  1  0.79338500  0.19253500  0.66449500  1
  C  894  1  0.76594400  0.18947400  0.66300600  1
  C  899  1  0.83743100  0.17434000  0.66560600  1
  C  901  1  0.00507117  0.16655200  0.66529200  1
  C  903  1  0.97838300  0.17146600  0.66574400  1
  C  905  1  0.89605800  0.18049000  0.65894300  1
  C  908  1  0.08875020  0.16048600  0.66279400  1
  C  909  1  0.10229900  0.18491000  0.66186700  1
  C  911  1  0.13447500  0.21499600  0.66258100  1
  C  912  1  0.11048000  0.22830400  0.66106700  1
  C  913  1  0.09067720  0.20977100  0.66040400  1
  C  914  1  0.06072820  0.16136000  0.66383600  1
  C  915  1  0.02033020  0.17145800  0.68800400  1
  C  916  1  0.04784220  0.16865900  0.68735500  1
  C  920  1  0.01792020  0.15874400  0.64189100  1
  C  922  1  0.17652400  0.42061200  0.64215300  1
  C  925  1  0.16253500  0.38032600  0.66117500  1
  C  926  1  0.16232900  0.43526100  0.66106500  1
  C  929  1  0.15724600  0.31036300  0.67338100  1
  C  930  1  0.15415600  0.33728200  0.67707200  1
  C  932  1  0.14692500  0.42070800  0.67960200  1
  C  935  1  0.16698200  0.56111100  0.66039600  1
  C  936  1  0.17416900  0.50555400  0.65763900  1
  C  937  1  0.19596100  0.52269900  0.66025500  1
  C  938  1  0.19244600  0.55009900  0.66165500  1
  C  943  1  0.17844600  0.47869700  0.65484200  1
  C  946  1  0.14427700  0.54418600  0.65802100  1
  C  947  1  0.14784300  0.51674100  0.65668700  1
  C  950  1  0.16339700  0.72755900  0.70370000  1
  C  951  1  0.16344600  0.70901100  0.72352900  1
  C  952  1  0.16234500  0.68405700  0.71203400  1
  C  954  1  0.16214400  0.71439700  0.67960600  1
  C  955  1  0.16224900  0.72682700  0.65452600  1
  C  956  1  0.16213300  0.71336100  0.63004100  1
  C  958  1  0.16301700  0.68121000  0.59994200  1
  C  959  1  0.16301900  0.70523300  0.58661900  1
  C  960  1  0.16227800  0.72503500  0.60515600  1
  C  961  1  0.16412700  0.65591500  0.58817900  1
  C  962  1  0.16400200  0.63174200  0.60228800  1
  C  964  1  0.16378000  0.60141700  0.63470700  1
  C  965  1  0.16555600  0.58829400  0.61060600  1
  C  966  1  0.16569300  0.60683600  0.59078700  1
  C  967  1  0.16387100  0.58896700  0.65978900  1
  C  968  1  0.16301900  0.60235700  0.68427700  1
  C  970  1  0.16242700  0.63452100  0.71439000  1
  C  971  1  0.16356900  0.59066000  0.70912500  1
  C  972  1  0.16265700  0.65986300  0.72614100  1
  C  975  1  0.16326000  0.61048300  0.72768300  1
  C  976  1  0.16392200  0.75481500  0.65367600  1
  C  977  1  0.18822000  0.76717300  0.64827300  1
  C  978  1  0.16701500  0.81049200  0.64857600  1
  C  979  1  0.18969700  0.79466500  0.64556900  1
  C  984  1  0.16869900  0.83736700  0.64452300  1
  C  987  1  0.14041700  0.77053100  0.65684200  1
  C  988  1  0.14197100  0.79808000  0.65441500  1
  C  993  1  0.15372100  0.89379300  0.68312600  1
  C  997  1  0.15591800  0.87992700  0.65923200  1
  C  998  1  0.15393100  0.00470148  0.67492500  1
  C  1000  1  0.15369900  0.97757600  0.67902700  1
  C  1001  1  0.15473800  0.93478800  0.66062500  1
  C  1003  1  0.15691400  0.89517600  0.63600100  1
  C  1005  1  0.29838700  0.15578100  0.64262500  1
  C  1006  1  0.22754800  0.15457500  0.66349400  1
  C  1007  1  0.21399900  0.13013900  0.66269200  1
  C  1009  1  0.18181100  0.10007400  0.66352000  1
  C  1010  1  0.20579000  0.08672350  0.66234700  1
  C  1011  1  0.22560400  0.10524600  0.66159200  1
  C  1012  1  0.25557400  0.15365400  0.66461500  1
  C  1013  1  0.26843800  0.14630700  0.68813700  1
  C  1014  1  0.29593400  0.14327000  0.68877300  1
  C  1018  1  0.31122800  0.14795100  0.66603300  1
  C  1020  1  0.33804500  0.14360800  0.66666667  1
  C  1022  1  0.42150700  0.13915100  0.66089800  1
  C  1025  1  0.51636600  0.14908300  0.65510800  1
  C  1026  1  0.54374800  0.14499300  0.65626000  1
  C  1030  1  0.77144600  0.14123600  0.65976900  1
  C  1031  1  0.79894200  0.14436700  0.66115900  1
  C  1034  1  0.88061800  0.15654400  0.65887200  1
  C  1036  1  0.93555600  0.15465500  0.65897600  1
  C  1038  1  0.89442700  0.13248800  0.65821300  1
  C  1041  1  0.15475000  0.01609850  0.64946700  1
  C  1042  1  0.15513300  0.04358750  0.64609000  1
  C  1044  1  0.15573500  0.08828750  0.66505200  1
  C  1045  1  0.13153800  0.10233000  0.66529800  1
  C  1047  1  0.10118400  0.13465000  0.66411900  1
  C  1048  1  0.08809320  0.11066900  0.66715800  1
  C  1049  1  0.10667400  0.09088450  0.66786600  1
  C  1050  1  0.04549920  0.15543000  0.64115800  1
  C  1051  1  0.15476200  0.06045150  0.66813400  1
  C  1052  1  0.15393100  0.04935050  0.69356000  1
  C  1053  1  0.15346900  0.02189150  0.69686200  1
  C  1059  1  0.65487200  0.16722000  0.75453500  1
  C  1060  1  0.65280000  0.19284900  0.76500800  1
  C  1061  1  0.65369300  0.17537000  0.81010400  1
  C  1062  1  0.65216700  0.19681800  0.79236800  1
  C  1067  1  0.65274500  0.18015500  0.83708600  1
  C  1070  1  0.16537500  0.66104400  0.75402400  1
  C  1071  1  0.17150300  0.66406300  0.80975800  1
  C  1072  1  0.19357000  0.66522400  0.79277500  1
  C  1073  1  0.19059600  0.66367400  0.76532700  1
  C  1078  1  0.17530800  0.66611500  0.83680900  1
  C  1081  1  0.14240600  0.65981200  0.77072600  1
  C  1082  1  0.14545300  0.66127400  0.79823300  1
  C  1085  1  0.65643000  0.14485300  0.77196700  1
  C  1086  1  0.65585900  0.14889800  0.79937100  1
  C  1089  1  0.65958500  0.16035400  0.93550600  1
  C  1091  1  0.65659500  0.18570700  0.89641900  1
  C  1094  1  0.65816100  0.16284900  0.88061800  1
  C  1095  1  0.16856700  0.66604200  0.00446063  1
  C  1097  1  0.17337700  0.66635300  0.97777200  1
  C  1099  1  0.18164400  0.65915700  0.89536900  1
  C  1103  1  0.15842200  0.65967000  0.88006400  1
  C  1104  1  0.15608700  0.66000900  0.93503600  1
  C  1106  1  0.13364300  0.65970800  0.89403900  1
  C  1110  1  0.66630800  0.14557500  0.00438363  1
  C  1112  1  0.66676900  0.14130500  0.97757700  1
  C  1114  1  0.66062600  0.13790900  0.89406900  1
  C  1117  1  0.64255200  0.27013600  0.15483900  1
  C  1118  1  0.64312800  0.29771400  0.15226900  1
  C  1119  1  0.66495500  0.22708600  0.15269000  1
  C  1120  1  0.66496100  0.21303500  0.12852200  1
  C  1122  1  0.66484700  0.18014000  0.09915560  1
  C  1123  1  0.66528000  0.20385000  0.08529260  1
  C  1124  1  0.66515600  0.22409800  0.10336500  1
  C  1125  1  0.66567700  0.25512300  0.15124600  1
  C  1126  1  0.68939800  0.26826100  0.14512200  1
  C  1127  1  0.68988600  0.29577700  0.14215000  1
  C  1133  1  0.66678600  0.31082700  0.14575700  1
  C  1135  1  0.66736100  0.33768200  0.14165600  1
  C  1137  1  0.66115300  0.42118400  0.13796300  1
  C  1140  1  0.65564500  0.51595000  0.14859700  1
  C  1141  1  0.65660100  0.54335600  0.14457300  1
  C  1144  1  0.16204400  0.66453500  0.08814960  1
  C  1145  1  0.18622100  0.66455500  0.10217300  1
  C  1147  1  0.21561400  0.66448000  0.13503400  1
  C  1148  1  0.22945400  0.66481400  0.11130300  1
  C  1149  1  0.21136300  0.66466900  0.09107460  1
  C  1150  1  0.16341400  0.66511300  0.06012760  1
  C  1151  1  0.17202200  0.68925400  0.01935860  1
  C  1152  1  0.16920000  0.68885400  0.04687960  1
  C  1157  1  0.16237800  0.64236200  0.01765760  1
  C  1158  1  0.15991500  0.64189200  0.04524160  1
  C  1159  1  0.43494800  0.65949100  0.15713600  1
  C  1160  1  0.37995300  0.65999700  0.15586200  1
  C  1162  1  0.42085900  0.65986300  0.13323800  1
  C  1166  1  0.54421600  0.65925000  0.14124500  1
  C  1167  1  0.51672200  0.66050500  0.14454700  1
  C  1170  1  0.77213300  0.65618900  0.14465000  1
  C  1171  1  0.79953600  0.65566000  0.14873300  1
  C  1175  1  0.00451417  0.66655100  0.14545400  1
  C  1177  1  0.97769700  0.66705100  0.14124100  1
  C  1179  1  0.89419900  0.66073300  0.13783300  1
  C  1182  1  0.04510420  0.64249000  0.15533100  1
  C  1183  1  0.01756420  0.64299300  0.15242200  1
  C  1184  1  0.08810820  0.66494200  0.15349400  1
  C  1185  1  0.10278500  0.66459200  0.12963900  1
  C  1187  1  0.13589300  0.66435400  0.10004500  1
  C  1188  1  0.11207400  0.66424800  0.08633060  1
  C  1189  1  0.09184220  0.66419700  0.10441800  1
  C  1190  1  0.06011420  0.66559000  0.15159200  1
  C  1191  1  0.04703920  0.68920900  0.14495800  1
  C  1192  1  0.01956120  0.68962200  0.14167600  1
  C  1199  1  0.65997400  0.77124300  0.14102700  1
  C  1200  1  0.66139100  0.79872900  0.14427800  1
  C  1203  1  0.65944300  0.88043900  0.15696300  1
  C  1204  1  0.65980100  0.93540800  0.15571100  1
  C  1206  1  0.65954200  0.89452500  0.13306500  1
  C  1209  1  0.64229800  0.15554400  0.04497360  1
  C  1210  1  0.64276800  0.15258200  0.01744560  1
  C  1211  1  0.66479000  0.15373900  0.08795760  1
  C  1212  1  0.66445900  0.12989100  0.10264500  1
  C  1214  1  0.66422500  0.10031400  0.13576800  1
  C  1215  1  0.66412300  0.08658250  0.11196200  1
  C  1216  1  0.66406200  0.10465500  0.09172160  1
  C  1217  1  0.66541100  0.15182100  0.05996460  1
  C  1218  1  0.68901300  0.14515600  0.04687560  1
  C  1219  1  0.68939400  0.14182000  0.01940760  1
  C  1225  1  0.82198300  0.38627900  0.36001200  1
  C  1226  1  0.82166800  0.36819400  0.38025600  1
  C  1227  1  0.82178800  0.34295700  0.36933800  1
  C  1229  1  0.82196900  0.37256600  0.33619200  1
  C  1230  1  0.82182900  0.31909400  0.38402900  1
  C  1231  1  0.82239800  0.32090700  0.41204000  1
  C  1232  1  0.84646100  0.33014400  0.45273000  1
  C  1233  1  0.84604200  0.32724000  0.42521400  1
  C  1239  1  0.79980200  0.31950800  0.45459600  1
  C  1240  1  0.79930600  0.31695900  0.42701900  1
  C  1241  1  0.81672100  0.53712000  0.31774000  1
  C  1243  1  0.81279400  0.57626000  0.34291300  1
  C  1246  1  0.81517900  0.59204200  0.32011300  1
  C  1247  1  0.81236600  0.71817300  0.32426100  1
  C  1248  1  0.80983400  0.70771400  0.34985200  1
  C  1249  1  0.80881100  0.68035500  0.35379800  1
  C  1250  1  0.81040600  0.66260400  0.33236900  1
  C  1255  1  0.80910400  0.63562300  0.33712100  1
  C  1258  1  0.36022400  0.82205600  0.38595300  1
  C  1259  1  0.38046100  0.82173100  0.36786000  1
  C  1260  1  0.36952900  0.82186500  0.34263200  1
  C  1262  1  0.33639400  0.82207500  0.37225300  1
  C  1263  1  0.38420700  0.82189600  0.31876400  1
  C  1264  1  0.41222300  0.82242900  0.32056900  1
  C  1265  1  0.45294900  0.84643000  0.32983900  1
  C  1266  1  0.42543000  0.84605200  0.32691400  1
  C  1272  1  0.45475000  0.79976200  0.31921100  1
  C  1273  1  0.42716900  0.79930800  0.31665500  1
  C  1274  1  0.46790400  0.82332000  0.32593900  1
  C  1276  1  0.49461900  0.82359000  0.33069200  1
  C  1278  1  0.57710400  0.81611900  0.33856300  1
  C  1282  1  0.71848200  0.81814100  0.32137900  1
  C  1283  1  0.66276900  0.82074400  0.32802100  1
  C  1284  1  0.67996200  0.82216000  0.34991100  1
  C  1285  1  0.70739500  0.82083000  0.34668500  1
  C  1290  1  0.63573200  0.82265400  0.33208800  1
  C  1292  1  0.88485300  0.86168900  0.32066600  1
  C  1293  1  0.86627400  0.88146600  0.31992500  1
  C  1294  1  0.84138200  0.86986800  0.31851900  1
  C  1296  1  0.87178000  0.83753100  0.31953100  1
  C  1297  1  0.88425500  0.81249000  0.32058100  1
  C  1298  1  0.87088300  0.78796600  0.32032200  1
  C  1300  1  0.83878200  0.75777500  0.32028000  1
  C  1301  1  0.86283000  0.74455600  0.32173300  1
  C  1302  1  0.88260700  0.76315100  0.32169600  1
  C  1303  1  0.81347300  0.74595800  0.32058100  1
  C  1304  1  0.78925200  0.75998400  0.31964000  1
  C  1306  1  0.75885100  0.79233700  0.31863500  1
  C  1307  1  0.74573600  0.76822600  0.32021200  1
  C  1308  1  0.76432500  0.74844100  0.32076900  1
  C  1309  1  0.74636100  0.81739200  0.31842100  1
  C  1310  1  0.75975400  0.84190400  0.31776900  1
  C  1312  1  0.79185900  0.87208100  0.31771800  1
  C  1313  1  0.76779900  0.88534500  0.31809100  1
  C  1314  1  0.74801800  0.86675200  0.31804700  1
  C  1315  1  0.81715400  0.88390500  0.31833800  1
  C  1318  1  0.91204100  0.81190900  0.32432300  1
  C  1319  1  0.92248000  0.80979300  0.34995900  1
  C  1320  1  0.96760500  0.81082700  0.33255100  1
  C  1321  1  0.94984100  0.80921000  0.35396600  1
  C  1326  1  0.99458800  0.80993600  0.33736900  1
  C  1329  1  0.09301430  0.81704500  0.31760600  1
  C  1331  1  0.05393230  0.81384300  0.34294300  1
  C  1334  1  0.03812630  0.81548900  0.32009800  1
  C  1335  1  0.31236200  0.80003400  0.42718900  1
  C  1336  1  0.30978100  0.80060200  0.45476100  1
  C  1337  1  0.31023300  0.82244500  0.38415200  1
  C  1338  1  0.28606000  0.82246500  0.37011000  1
  C  1340  1  0.25668300  0.82236800  0.33722800  1
  C  1341  1  0.24282100  0.82281900  0.36093700  1
  C  1342  1  0.26090000  0.82268100  0.38117800  1
  C  1343  1  0.30879700  0.82316500  0.41218500  1
  C  1344  1  0.30268600  0.84688800  0.42532600  1
  C  1345  1  0.29971900  0.84737400  0.45283800  1
  C  1350  1  0.81822200  0.91177100  0.32124000  1
  C  1351  1  0.82115300  0.96745000  0.32778200  1
  C  1352  1  0.82194900  0.95033100  0.34975400  1
  C  1353  1  0.82043900  0.92290500  0.34657300  1
  C  1358  1  0.82318900  0.99446700  0.33178700  1
  C  1360  1  0.82319300  0.16212900  0.32580300  1
  C  1362  1  0.82347400  0.13543300  0.33054800  1
  C  1364  1  0.81624700  0.05299200  0.33840800  1
  C  1368  1  0.82177000  0.24580800  0.31926000  1
  C  1369  1  0.82182000  0.25983300  0.34343100  1
  C  1371  1  0.82178200  0.29269800  0.37281400  1
  C  1372  1  0.82212100  0.26896600  0.38665500  1
  C  1373  1  0.82195500  0.24873500  0.36856900  1
  C  1374  1  0.82232300  0.21778800  0.32064100  1
  C  1375  1  0.84643400  0.17699200  0.32919700  1
  C  1376  1  0.84606400  0.20451600  0.32637200  1
  C  1381  1  0.79951300  0.17535000  0.31966400  1
  C  1382  1  0.79907000  0.20293700  0.31720200  1
  C  1383  1  0.82338100  0.32621300  0.46772100  1
  C  1385  1  0.82369600  0.33094200  0.49443700  1
  C  1387  1  0.81630600  0.33883600  0.57691100  1
  C  1391  1  0.81700600  0.31555400  0.59212400  1
  C  1392  1  0.31801200  0.81683500  0.53676300  1
  C  1394  1  0.34326500  0.81287700  0.57584300  1
  C  1397  1  0.32049400  0.81526700  0.59166500  1
  C  1399  1  0.30328700  0.82426500  0.46787600  1
  C  1401  1  0.29919400  0.82482700  0.49472900  1
  C  1403  1  0.29565500  0.81865300  0.57823200  1
  C  1406  1  0.81744100  0.31346600  0.53713500  1
  C  1408  1  0.81730300  0.29084300  0.57803800  1
  C  1411  1  0.81850500  0.32160300  0.71827900  1
  C  1412  1  0.82098700  0.32827700  0.66257100  1
  C  1413  1  0.82237600  0.35016700  0.67976800  1
  C  1414  1  0.82111100  0.34692400  0.70719700  1
  C  1419  1  0.82283100  0.33236200  0.63553600  1
  C  1421  1  0.32504100  0.81221800  0.71772300  1
  C  1422  1  0.35063900  0.81026700  0.70714800  1
  C  1423  1  0.35447600  0.80923600  0.67977800  1
  C  1424  1  0.33292100  0.81027300  0.66214200  1
  C  1429  1  0.33756300  0.80892500  0.63516000  1
  C  1432  1  0.30647800  0.81230500  0.67296300  1
  C  1433  1  0.30256600  0.81324700  0.70038000  1
  C  1437  1  0.81700600  0.29880900  0.70137500  1
  C  1438  1  0.81820800  0.30212600  0.67388400  1
  C  1441  1  0.38551300  0.36182300  0.82479100  1
  C  1442  1  0.36691900  0.38162600  0.82511600  1
  C  1443  1  0.34209800  0.37016500  0.82227800  1
  C  1445  1  0.37247400  0.33780800  0.82177600  1
  C  1446  1  0.31790400  0.38420200  0.82157900  1
  C  1447  1  0.31868800  0.41208000  0.82444100  1
  C  1448  1  0.31603300  0.45083300  0.85284900  1
  C  1449  1  0.31766000  0.42338700  0.84978300  1
  C  1450  1  0.42819700  0.31666400  0.79923100  1
  C  1456  1  0.31837900  0.42876200  0.80223800  1
  C  1457  1  0.31679400  0.45624700  0.80536000  1
  C  1460  1  0.53765200  0.31931100  0.81613000  1
  C  1462  1  0.57699800  0.34412300  0.81216800  1
  C  1465  1  0.59256400  0.32119600  0.81475300  1
  C  1466  1  0.71861400  0.32468000  0.81211700  1
  C  1467  1  0.70824900  0.35030600  0.80952300  1
  C  1468  1  0.68091400  0.35432000  0.80829800  1
  C  1469  1  0.66312000  0.33292000  0.80975100  1
  C  1474  1  0.63618800  0.33772300  0.80815000  1
  C  1477  1  0.86202100  0.32072100  0.88469700  1
  C  1478  1  0.88179300  0.32005900  0.86611100  1
  C  1479  1  0.87018900  0.31880000  0.84121700  1
  C  1481  1  0.83785900  0.31975000  0.87161600  1
  C  1482  1  0.81282400  0.32089100  0.88408900  1
  C  1483  1  0.78831000  0.32068400  0.87070100  1
  C  1485  1  0.75816200  0.32068300  0.83857600  1
  C  1486  1  0.74491800  0.32220800  0.86260200  1
  C  1487  1  0.76349100  0.32215400  0.88239700  1
  C  1488  1  0.74637100  0.32093700  0.81326000  1
  C  1489  1  0.76038100  0.31984300  0.78904300  1
  C  1491  1  0.79271600  0.31877400  0.75864100  1
  C  1492  1  0.76860000  0.32023300  0.74552700  1
  C  1493  1  0.74882200  0.32080900  0.76411700  1
  C  1494  1  0.81776900  0.31863300  0.74615200  1
  C  1495  1  0.84227100  0.31809300  0.75955800  1
  C  1497  1  0.87241700  0.31813500  0.79168500  1
  C  1498  1  0.86712600  0.31851000  0.74784200  1
  C  1499  1  0.88421200  0.31875200  0.81698700  1
  C  1502  1  0.88569900  0.31860500  0.76763700  1
  C  1503  1  0.91208000  0.32155500  0.81806700  1
  C  1504  1  0.96776900  0.32785300  0.82094000  1
  C  1505  1  0.95075300  0.34990400  0.82183500  1
  C  1506  1  0.92331200  0.34684300  0.82034600  1
  C  1511  1  0.99479900  0.33170900  0.82294600  1
  C  1513  1  0.16243900  0.32392100  0.82263200  1
  C  1515  1  0.13575100  0.32883500  0.82308400  1
  C  1517  1  0.05342630  0.33785900  0.81628300  1
  C  1520  1  0.24611800  0.31785500  0.82013400  1
  C  1521  1  0.25966700  0.34227900  0.81920700  1
  C  1523  1  0.29184300  0.37236500  0.81992100  1
  C  1524  1  0.26784800  0.38567300  0.81840700  1
  C  1525  1  0.24804500  0.36714000  0.81774400  1
  C  1526  1  0.21809600  0.31872900  0.82117600  1
  C  1527  1  0.17769800  0.32882700  0.84534400  1
  C  1528  1  0.20521000  0.32602800  0.84469500  1
  C  1532  1  0.17528800  0.31611300  0.79923100  1
  C  1534  1  0.33389200  0.57798100  0.79949300  1
  C  1537  1  0.31990300  0.53769500  0.81851500  1
  C  1538  1  0.31969700  0.59263000  0.81840500  1
  C  1541  1  0.31461400  0.46773200  0.83072100  1
  C  1542  1  0.31152400  0.49465100  0.83441200  1
  C  1544  1  0.30429300  0.57807700  0.83694200  1
  C  1547  1  0.32435000  0.71848000  0.81773600  1
  C  1548  1  0.33153700  0.66292300  0.81497900  1
  C  1549  1  0.35332900  0.68006800  0.81759500  1
  C  1550  1  0.34981400  0.70746800  0.81899500  1
  C  1555  1  0.33581400  0.63606600  0.81218200  1
  C  1558  1  0.30164500  0.70155500  0.81536100  1
  C  1559  1  0.30521100  0.67411000  0.81402700  1
  C  1562  1  0.32076500  0.88492800  0.86104000  1
  C  1563  1  0.32081400  0.86638000  0.88086900  1
  C  1564  1  0.31971300  0.84142600  0.86937400  1
  C  1566  1  0.31951200  0.87176600  0.83694600  1
  C  1567  1  0.31961700  0.88419600  0.81186600  1
  C  1568  1  0.31950100  0.87073000  0.78738100  1
  C  1570  1  0.32038500  0.83857900  0.75728200  1
  C  1571  1  0.32038700  0.86260200  0.74395900  1
  C  1572  1  0.31964600  0.88240400  0.76249600  1
  C  1573  1  0.32149500  0.81328400  0.74551900  1
  C  1574  1  0.32137000  0.78911100  0.75962800  1
  C  1576  1  0.32114800  0.75878600  0.79204700  1
  C  1577  1  0.32292400  0.74566300  0.76794600  1
  C  1578  1  0.32306100  0.76420500  0.74812700  1
  C  1579  1  0.32123900  0.74633600  0.81712900  1
  C  1580  1  0.32038700  0.75972600  0.84161700  1
  C  1582  1  0.31979500  0.79189000  0.87173000  1
  C  1583  1  0.32093700  0.74802900  0.86646500  1
  C  1584  1  0.32002500  0.81723200  0.88348100  1
  C  1587  1  0.32062800  0.76785200  0.88502300  1
  C  1588  1  0.32129000  0.91218400  0.81101600  1
  C  1589  1  0.34558800  0.92454200  0.80561300  1
  C  1590  1  0.32438300  0.96786100  0.80591600  1
  C  1591  1  0.34706500  0.95203400  0.80290900  1
  C  1596  1  0.32606700  0.99473600  0.80186300  1
  C  1599  1  0.29778500  0.92790000  0.81418200  1
  C  1600  1  0.29933900  0.95544900  0.81175500  1
  C  1605  1  0.31108900  0.05116200  0.84046600  1
  C  1609  1  0.31328600  0.03729600  0.81657200  1
  C  1610  1  0.31129900  0.16207000  0.83226500  1
  C  1612  1  0.31106700  0.13494500  0.83636700  1
  C  1613  1  0.31210600  0.09215700  0.81796500  1
  C  1615  1  0.31428200  0.05254500  0.79334100  1
  C  1617  1  0.45575500  0.31315000  0.79996500  1
  C  1618  1  0.38491600  0.31194400  0.82083400  1
  C  1619  1  0.37136700  0.28750800  0.82003200  1
  C  1621  1  0.33917900  0.25744300  0.82086000  1
  C  1622  1  0.36315800  0.24409200  0.81968700  1
  C  1623  1  0.38297200  0.26261500  0.81893200  1
  C  1624  1  0.41294200  0.31102300  0.82195500  1
  C  1625  1  0.42580600  0.30367600  0.84547700  1
  C  1626  1  0.45330200  0.30063900  0.84611300  1
  C  1630  1  0.46859600  0.30532000  0.82337300  1
  C  1632  1  0.49541300  0.30097700  0.82402200  1
  C  1634  1  0.57887500  0.29652000  0.81823800  1
  C  1637  1  0.67373400  0.30645200  0.81244800  1
  C  1638  1  0.70111600  0.30236200  0.81360000  1
  C  1642  1  0.92881400  0.29860500  0.81710900  1
  C  1643  1  0.95631000  0.30173600  0.81849900  1
  C  1646  1  0.03798630  0.31391300  0.81621200  1
  C  1648  1  0.09292430  0.31202400  0.81631600  1
  C  1650  1  0.05179530  0.28985700  0.81555300  1
  C  1653  1  0.31211800  0.17346700  0.80680700  1
  C  1654  1  0.31250100  0.20095600  0.80343000  1
  C  1656  1  0.31310300  0.24565600  0.82239200  1
  C  1657  1  0.28890600  0.25969900  0.82263800  1
  C  1659  1  0.25855200  0.29201900  0.82145900  1
  C  1660  1  0.24546100  0.26803800  0.82449800  1
  C  1661  1  0.26404200  0.24825300  0.82520600  1
  C  1662  1  0.20286700  0.31279900  0.79849800  1
  C  1663  1  0.31213000  0.21782000  0.82547400  1
  C  1664  1  0.31129900  0.20671900  0.85090000  1
  C  1665  1  0.31083700  0.17926000  0.85420200  1
  C  1671  1  0.81224000  0.32458900  0.91187500  1
  C  1672  1  0.81016800  0.35021800  0.92234800  1
  C  1673  1  0.81106100  0.33273900  0.96744400  1
  C  1674  1  0.80953500  0.35418700  0.94970800  1
  C  1679  1  0.81011300  0.33752400  0.99442600  1
  C  1682  1  0.32274300  0.81841300  0.91136400  1
  C  1683  1  0.32887100  0.82143200  0.96709800  1
  C  1684  1  0.35093800  0.82259300  0.95011500  1
  C  1685  1  0.34796400  0.82104300  0.92266700  1
  C  1690  1  0.33267600  0.82348400  0.99414900  1
  C  1693  1  0.29977400  0.81718100  0.92806600  1
  C  1694  1  0.30282100  0.81864300  0.95557300  1
  C  1697  1  0.81379800  0.30222200  0.92930700  1
  C  1698  1  0.81322700  0.30626700  0.95671100  1
  C  1701  1  0.81695300  0.31772300  0.09284630  1
  C  1703  1  0.81396300  0.34307600  0.05375930  1
  C  1706  1  0.81552900  0.32021800  0.03795830  1
  C  1707  1  0.32593500  0.82341100  0.16180100  1
  C  1709  1  0.33074500  0.82372200  0.13511200  1
  C  1711  1  0.33901200  0.81652600  0.05270930  1
  C  1715  1  0.31579000  0.81703900  0.03740430  1
  C  1716  1  0.31345500  0.81737800  0.09237630  1
  C  1718  1  0.29101100  0.81707700  0.05137930  1
  C  1722  1  0.82367600  0.30294400  0.16172400  1
  C  1724  1  0.82413700  0.29867400  0.13491700  1
  C  1726  1  0.81799400  0.29527800  0.05140930  1
  C  1729  1  0.79992000  0.42750500  0.31217900  1
  C  1730  1  0.80049600  0.45508300  0.30960900  1
  C  1731  1  0.82232300  0.38445500  0.31003000  1
  C  1732  1  0.82232900  0.37040400  0.28586200  1
  C  1734  1  0.82221500  0.33750900  0.25649600  1
  C  1735  1  0.82264800  0.36121900  0.24263300  1
  C  1736  1  0.82252400  0.38146700  0.26070500  1
  C  1737  1  0.82304500  0.41249200  0.30858600  1
  C  1738  1  0.84676600  0.42563000  0.30246200  1
  C  1739  1  0.84725400  0.45314600  0.29949000  1
  C  1745  1  0.82415400  0.46819600  0.30309700  1
  C  1747  1  0.82472900  0.49505100  0.29899600  1
  C  1749  1  0.81852100  0.57855300  0.29530300  1
  C  1752  1  0.81301300  0.67331900  0.30593700  1
  C  1753  1  0.81396900  0.70072500  0.30191300  1
  C  1756  1  0.31941200  0.82190400  0.24549000  1
  C  1757  1  0.34358900  0.82192400  0.25951300  1
  C  1759  1  0.37298200  0.82184900  0.29237400  1
  C  1760  1  0.38682200  0.82218300  0.26864300  1
  C  1761  1  0.36873100  0.82203800  0.24841500  1
  C  1762  1  0.32078200  0.82248200  0.21746800  1
  C  1763  1  0.32939000  0.84662300  0.17669900  1
  C  1764  1  0.32656800  0.84622300  0.20422000  1
  C  1769  1  0.31974600  0.79973100  0.17499800  1
  C  1770  1  0.31728300  0.79926100  0.20258200  1
  C  1771  1  0.59231600  0.81686000  0.31447600  1
  C  1772  1  0.53732100  0.81736600  0.31320200  1
  C  1774  1  0.57822700  0.81723200  0.29057800  1
  C  1778  1  0.70158400  0.81661900  0.29858500  1
  C  1779  1  0.67409000  0.81787400  0.30188700  1
  C  1782  1  0.92950100  0.81355800  0.30199000  1
  C  1783  1  0.95690400  0.81302900  0.30607300  1
  C  1787  1  0.16188200  0.82392000  0.30279400  1
  C  1789  1  0.13506500  0.82442000  0.29858100  1
  C  1791  1  0.05156730  0.81810200  0.29517300  1
  C  1794  1  0.20247200  0.79985900  0.31267100  1
  C  1795  1  0.17493200  0.80036200  0.30976200  1
  C  1796  1  0.24547600  0.82231100  0.31083400  1
  C  1797  1  0.26015300  0.82196100  0.28697900  1
  C  1799  1  0.29326100  0.82172300  0.25738500  1
  C  1800  1  0.26944200  0.82161700  0.24367100  1
  C  1801  1  0.24921000  0.82156600  0.26175800  1
  C  1802  1  0.21748200  0.82295900  0.30893200  1
  C  1803  1  0.20440700  0.84657800  0.30229800  1
  C  1804  1  0.17692900  0.84699100  0.29901600  1
  C  1811  1  0.81734200  0.92861200  0.29836700  1
  C  1812  1  0.81875900  0.95609800  0.30161800  1
  C  1815  1  0.81681100  0.03780800  0.31430300  1
  C  1816  1  0.81716900  0.09277700  0.31305100  1
  C  1818  1  0.81691000  0.05189400  0.29040500  1
  C  1821  1  0.79966600  0.31291300  0.20231400  1
  C  1822  1  0.80013600  0.30995100  0.17478600  1
  C  1823  1  0.82215800  0.31110800  0.24529800  1
  C  1824  1  0.82182700  0.28726000  0.25998500  1
  C  1826  1  0.82159300  0.25768300  0.29310800  1
  C  1827  1  0.82149100  0.24395100  0.26930200  1
  C  1828  1  0.82143000  0.26202400  0.24906200  1
  C  1829  1  0.82277900  0.30919000  0.21730500  1
  C  1830  1  0.84638100  0.30252500  0.20421600  1
  C  1831  1  0.84676200  0.29918900  0.17674800  1
  N  4  1  0.50708000  0.03200200  0.02824200  1
  N  18  1  0.49880600  0.23490000  0.02640500  1
  N  20  1  0.50240800  0.19634100  0.00313900  1
  N  33  1  0.50015900  0.30350900  0.00496700  1
  N  37  1  0.02837600  0.50718100  0.03174500  1
  N  55  1  0.23573600  0.50172000  0.02261700  1
  N  71  1  0.53111400  0.52883900  0.00315300  1
  N  75  1  0.52992400  0.46895200  0.00468100  1
  N  81  1  0.47008000  0.47150200  0.00323800  1
  N  87  1  0.47125900  0.53141400  0.00272500  1
  N  104  1  0.69719600  0.50032800  0.00498000  1
  N  106  1  0.76581100  0.49983400  0.02637700  1
  N  108  1  0.80430500  0.50271800  0.00296800  1
  N  115  1  0.96772400  0.50744300  0.02908900  1
  N  141  1  0.50178000  0.76488400  0.02247000  1
  N  146  1  0.50688700  0.97143800  0.03235900  1
  N  164  1  0.50187100  0.02283000  0.23560400  1
  N  169  1  0.02664900  0.49889400  0.23454800  1
  N  171  1  0.00330500  0.50249700  0.19604700  1
  N  180  1  0.98027800  0.50455700  0.23686600  1
  N  183  1  0.50283500  0.97608800  0.23662700  1
  N  185  1  0.50303100  0.99730300  0.19641300  1
  N  207  1  0.00535400  0.50022300  0.30318600  1
  N  212  1  0.50195900  0.99926200  0.30365600  1
  N  220  1  0.03182300  0.02920900  0.50552800  1
  N  237  1  0.23562900  0.02779700  0.49816200  1
  N  239  1  0.19689100  0.00491000  0.50180100  1
  N  252  1  0.30401600  0.00580300  0.49990300  1
  N  256  1  0.52916400  0.00340700  0.53100100  1
  N  260  1  0.46932500  0.00493900  0.52979900  1
  N  266  1  0.47189400  0.00338500  0.46992700  1
  N  272  1  0.53176100  0.00297800  0.47111700  1
  N  294  1  0.76530100  0.02155100  0.50172400  1
  N  298  1  0.97116800  0.03171400  0.50565100  1
  N  309  1  0.01888900  0.23655400  0.48541900  1
  N  311  1  0.00627600  0.19693500  0.50314400  1
  N  321  1  0.99017600  0.23665100  0.52196400  1
  N  333  1  0.00407900  0.30403600  0.50474900  1
  N  341  1  0.00389200  0.53107500  0.52840100  1
  N  345  1  0.00502700  0.52974800  0.46851300  1
  N  351  1  0.00510700  0.46997100  0.47121700  1
  N  357  1  0.00485600  0.47123000  0.53113500  1
  N  374  1  0.99882800  0.69642200  0.50245200  1
  N  382  1  0.99601100  0.76311900  0.52588200  1
  N  390  1  0.99899900  0.76446700  0.48000700  1
  N  392  1  0.99726600  0.80345500  0.50274500  1
  N  396  1  0.03038700  0.96862500  0.50634200  1
  N  411  1  0.23744300  0.98143100  0.50410200  1
  N  417  1  0.69705400  0.99871900  0.50132500  1
  N  425  1  0.76378600  0.97480300  0.50101000  1
  N  427  1  0.80419900  0.99556200  0.50185600  1
  N  434  1  0.96974600  0.97115200  0.50559600  1
  N  457  1  0.50043300  0.00505200  0.69708400  1
  N  468  1  0.99965600  0.50199200  0.69651400  1
  N  478  1  0.49989000  0.02645300  0.76569000  1
  N  480  1  0.50258500  0.00304000  0.80418800  1
  N  488  1  0.02288700  0.50204700  0.76464600  1
  N  493  1  0.97613900  0.50257800  0.76342700  1
  N  495  1  0.99717700  0.50298100  0.80372500  1
  N  503  1  0.50385600  0.97989600  0.76341300  1
  N  509  1  0.50731400  0.02932100  0.96758600  1
  N  526  1  0.50442200  0.23712500  0.98003300  1
  N  534  1  0.03246700  0.50698200  0.97117100  1
  N  549  1  0.23675800  0.50279800  0.97588400  1
  N  551  1  0.19654300  0.50298700  0.99709300  1
  N  553  1  0.30379300  0.50176900  0.99905400  1
  N  568  1  0.76351900  0.50402400  0.97984900  1
  N  574  1  0.97182700  0.50714000  0.96852600  1
  N  586  1  0.50177000  0.69686900  0.99889500  1
  N  593  1  0.50242000  0.76388800  0.97572000  1
  N  595  1  0.50278300  0.80407200  0.99695000  1
  N  601  1  0.50702600  0.96876800  0.97171200  1
  N  616  1  0.66444800  0.18937000  0.18558300  1
  N  630  1  0.65617400  0.39226800  0.18374600  1
  N  632  1  0.65977600  0.35370900  0.16048000  1
  N  645  1  0.65752700  0.46087700  0.16230800  1
  N  649  1  0.18574400  0.66454900  0.18908600  1
  N  667  1  0.39310400  0.65908800  0.17995800  1
  N  683  1  0.68848200  0.68620700  0.16049400  1
  N  687  1  0.68729200  0.62632000  0.16202200  1
  N  693  1  0.62744800  0.62887000  0.16057900  1
  N  699  1  0.62862700  0.68878200  0.16006600  1
  N  716  1  0.85456400  0.65769600  0.16232100  1
  N  718  1  0.92317900  0.65720200  0.18371800  1
  N  720  1  0.96167300  0.66008600  0.16030900  1
  N  727  1  0.12509200  0.66481100  0.18643000  1
  N  753  1  0.65914800  0.92225200  0.17981100  1
  N  758  1  0.66425500  0.12880600  0.18970000  1
  N  776  1  0.65923900  0.18019800  0.39294500  1
  N  781  1  0.18401700  0.65626200  0.39188900  1
  N  783  1  0.16067300  0.65986500  0.35338800  1
  N  792  1  0.13764600  0.66192500  0.39420700  1
  N  795  1  0.66020300  0.13345600  0.39396800  1
  N  797  1  0.66039900  0.15467100  0.35375400  1
  N  819  1  0.16272200  0.65759100  0.46052700  1
  N  824  1  0.65932700  0.15663000  0.46099700  1
  N  832  1  0.18919100  0.18657700  0.66286900  1
  N  849  1  0.39299700  0.18516500  0.65550300  1
  N  851  1  0.35425900  0.16227800  0.65914200  1
  N  864  1  0.46138400  0.16317100  0.65724400  1
  N  868  1  0.68653200  0.16077500  0.68834200  1
  N  872  1  0.62669300  0.16230700  0.68714000  1
  N  878  1  0.62926200  0.16075300  0.62726800  1
  N  884  1  0.68912900  0.16034600  0.62845800  1
  N  906  1  0.92266900  0.17891900  0.65906500  1
  N  910  1  0.12853600  0.18908200  0.66299200  1
  N  921  1  0.17625700  0.39392200  0.64276000  1
  N  923  1  0.16364400  0.35430300  0.66048500  1
  N  933  1  0.14754400  0.39401900  0.67930500  1
  N  945  1  0.16144700  0.46140400  0.66209000  1
  N  953  1  0.16126000  0.68844300  0.68574200  1
  N  957  1  0.16239500  0.68711600  0.62585400  1
  N  963  1  0.16247500  0.62733900  0.62855800  1
  N  969  1  0.16222400  0.62859800  0.68847600  1
  N  986  1  0.15619600  0.85379000  0.65979300  1
  N  994  1  0.15337900  0.92048700  0.68322300  1
  N  1002  1  0.15636700  0.92183500  0.63734800  1
  N  1004  1  0.15463400  0.96082300  0.66008600  1
  N  1008  1  0.18775500  0.12599300  0.66368300  1
  N  1023  1  0.39481100  0.13879900  0.66144300  1
  N  1029  1  0.85442200  0.15608700  0.65866600  1
  N  1037  1  0.92115400  0.13217100  0.65835100  1
  N  1039  1  0.96156700  0.15293000  0.65919700  1
  N  1046  1  0.12711400  0.12852000  0.66293700  1
  N  1069  1  0.65780100  0.16242000  0.85442500  1
  N  1080  1  0.15702400  0.65936000  0.85385500  1
  N  1090  1  0.65725800  0.18382100  0.92303100  1
  N  1092  1  0.65995300  0.16040800  0.96152900  1
  N  1100  1  0.18025500  0.65941500  0.92198700  1
  N  1105  1  0.13350700  0.65994600  0.92076800  1
  N  1107  1  0.15454500  0.66034900  0.96106600  1
  N  1115  1  0.66122400  0.13726400  0.92075400  1
  N  1121  1  0.66468200  0.18668900  0.12492700  1
  N  1138  1  0.66179000  0.39449300  0.13737400  1
  N  1146  1  0.18983500  0.66435000  0.12851200  1
  N  1161  1  0.39412600  0.66016600  0.13322500  1
  N  1163  1  0.35391100  0.66035500  0.15443400  1
  N  1165  1  0.46116100  0.65913700  0.15639500  1
  N  1180  1  0.92088700  0.66139200  0.13719000  1
  N  1186  1  0.12919500  0.66450800  0.12586700  1
  N  1198  1  0.65913800  0.85423700  0.15623600  1
  N  1205  1  0.65978800  0.92125600  0.13306100  1
  N  1207  1  0.66015100  0.96144000  0.15429100  1
  N  1213  1  0.66439400  0.12613600  0.12905300  1
  N  1228  1  0.82181600  0.34673900  0.34292300  1
  N  1242  1  0.81354200  0.54963700  0.34108600  1
  N  1244  1  0.81714400  0.51107800  0.31782000  1
  N  1257  1  0.81489500  0.61824600  0.31964800  1
  N  1261  1  0.34311200  0.82191800  0.34642600  1
  N  1279  1  0.55047200  0.81645700  0.33729800  1
  N  1295  1  0.84585000  0.84357600  0.31783400  1
  N  1299  1  0.84466000  0.78368900  0.31936200  1
  N  1305  1  0.78481600  0.78623900  0.31791900  1
  N  1311  1  0.78599500  0.84615100  0.31740600  1
  N  1328  1  0.01193230  0.81506500  0.31966100  1
  N  1330  1  0.08054730  0.81457100  0.34105800  1
  N  1332  1  0.11904100  0.81745500  0.31764900  1
  N  1339  1  0.28246000  0.82218000  0.34377000  1
  N  1365  1  0.81651600  0.07962100  0.33715100  1
  N  1370  1  0.82162300  0.28617500  0.34704000  1
  N  1388  1  0.81660700  0.33756700  0.55028500  1
  N  1393  1  0.34138500  0.81363100  0.54922900  1
  N  1395  1  0.31804100  0.81723400  0.51072800  1
  N  1404  1  0.29501400  0.81929400  0.55154700  1
  N  1407  1  0.81757100  0.29082500  0.55130800  1
  N  1409  1  0.81776700  0.31204000  0.51109400  1
  N  1431  1  0.32009000  0.81496000  0.61786700  1
  N  1436  1  0.81669500  0.31399900  0.61833700  1
  N  1444  1  0.34655900  0.34394600  0.82020900  1
  N  1461  1  0.55036500  0.34253400  0.81284300  1
  N  1463  1  0.51162700  0.31964700  0.81648200  1
  N  1476  1  0.61875200  0.32054000  0.81458400  1
  N  1480  1  0.84390000  0.31814400  0.84568200  1
  N  1484  1  0.78406100  0.31967600  0.84448000  1
  N  1490  1  0.78663000  0.31812200  0.78460800  1
  N  1496  1  0.84649700  0.31771500  0.78579800  1
  N  1518  1  0.08003730  0.33628800  0.81640500  1
  N  1522  1  0.28590400  0.34645100  0.82033200  1
  N  1533  1  0.33362500  0.55129100  0.80010000  1
  N  1535  1  0.32101200  0.51167200  0.81782500  1
  N  1545  1  0.30491200  0.55138800  0.83664500  1
  N  1557  1  0.31881500  0.61877300  0.81943000  1
  N  1565  1  0.31862800  0.84581200  0.84308200  1
  N  1569  1  0.31976300  0.84448500  0.78319400  1
  N  1575  1  0.31984300  0.78470800  0.78589800  1
  N  1581  1  0.31959200  0.78596700  0.84581600  1
  N  1598  1  0.31356400  0.01115900  0.81713300  1
  N  1606  1  0.31074700  0.07785600  0.84056300  1
  N  1614  1  0.31373500  0.07920400  0.79468800  1
  N  1616  1  0.31200200  0.11819200  0.81742600  1
  N  1620  1  0.34512300  0.28336200  0.82102300  1
  N  1635  1  0.55217900  0.29616800  0.81878300  1
  N  1641  1  0.01179030  0.31345600  0.81600600  1
  N  1649  1  0.07852230  0.28954000  0.81569100  1
  N  1651  1  0.11893500  0.31029900  0.81653700  1
  N  1658  1  0.28448200  0.28588900  0.82027700  1
  N  1681  1  0.81516900  0.31978900  0.01176530  1
  N  1692  1  0.31439200  0.81672900  0.01119530  1
  N  1702  1  0.81462600  0.34119000  0.08037130  1
  N  1704  1  0.81732100  0.31777700  0.11886900  1
  N  1712  1  0.33762300  0.81678400  0.07932730  1
  N  1717  1  0.29087500  0.81731500  0.07810830  1
  N  1719  1  0.31191300  0.81771800  0.11840600  1
  N  1727  1  0.81859200  0.29463300  0.07809430  1
  N  1733  1  0.82205000  0.34405800  0.28226700  1
  N  1750  1  0.81915800  0.55186200  0.29471400  1
  N  1758  1  0.34720300  0.82171900  0.28585200  1
  N  1773  1  0.55149400  0.81753500  0.29056500  1
  N  1775  1  0.51127900  0.81772400  0.31177400  1
  N  1777  1  0.61852900  0.81650600  0.31373500  1
  N  1792  1  0.07825530  0.81876100  0.29453000  1
  N  1798  1  0.28656300  0.82187700  0.28320700  1
  N  1810  1  0.81650600  0.01160600  0.31357600  1
  N  1817  1  0.81715600  0.07862500  0.29040100  1
  N  1819  1  0.81751900  0.11880900  0.31163100  1
  N  1825  1  0.82176200  0.28350500  0.28639300  1
