# generated using pymatgen
data_H7C11N2
_symmetry_space_group_name_H-M   'P 1'
_cell_length_a   35.22970000
_cell_length_b   50.16780000
_cell_length_c   92.16240000
_cell_angle_alpha   90.00000000
_cell_angle_beta   90.00000000
_cell_angle_gamma   90.07490000
_symmetry_Int_Tables_number   1
_chemical_formula_structural   H7C11N2
_chemical_formula_sum   'H672 C1056 N192'
_cell_volume   162887.36803565
_cell_formula_units_Z   96
loop_
 _symmetry_equiv_pos_site_id
 _symmetry_equiv_pos_as_xyz
  1  'x, y, z'
loop_
 _atom_site_type_symbol
 _atom_site_label
 _atom_site_symmetry_multiplicity
 _atom_site_fract_x
 _atom_site_fract_y
 _atom_site_fract_z
 _atom_site_occupancy
  H  49  1  0.71968200  0.75679800  0.78335000  1
  H  50  1  0.75904900  0.75708100  0.80463600  1
  H  51  1  0.62322100  0.74340600  0.80957200  1
  H  52  1  0.66236900  0.74388800  0.83074300  1
  H  53  1  0.73156700  0.69763900  0.82183400  1
  H  54  1  0.75953200  0.66213600  0.83824600  1
  H  55  1  0.77197800  0.73417400  0.85831100  1
  H  56  1  0.79642900  0.76679500  0.87369900  1
  H  57  1  0.72378800  0.80484700  0.82305900  1
  H  58  1  0.75257300  0.84037000  0.83942900  1
  H  59  1  0.85034400  0.84662200  0.85428500  1
  H  60  1  0.86088200  0.89385600  0.85458900  1
  H  61  1  0.74336900  0.85781300  0.87407000  1
  H  62  1  0.75389300  0.90500800  0.87439700  1
  H  63  1  0.82504800  0.83916100  0.89075500  1
  H  64  1  0.84192200  0.80366200  0.90921000  1
  H  65  1  0.81858500  0.66082300  0.89211200  1
  H  66  1  0.83625900  0.69644600  0.91057300  1
  H  67  1  0.77901100  0.75257700  0.92305200  1
  H  68  1  0.79443800  0.75335600  0.94834700  1
  H  69  1  0.89568800  0.74920800  0.91266800  1
  H  70  1  0.91110700  0.74986200  0.93815300  1
  H  71  1  0.85264100  0.65514700  0.85711000  1
  H  72  1  0.86341800  0.60796000  0.85739300  1
  H  73  1  0.75102900  0.59551200  0.87187600  1
  H  74  1  0.74021800  0.64272800  0.87159700  1
  H  127  1  0.71997400  0.74239500  0.21638600  1
  H  128  1  0.75941700  0.74239100  0.19511600  1
  H  129  1  0.62357800  0.75574500  0.19014800  1
  H  130  1  0.66279000  0.75554200  0.16899700  1
  H  131  1  0.73263800  0.80184700  0.17816300  1
  H  132  1  0.76015300  0.83755300  0.16172900  1
  H  133  1  0.77147400  0.76577000  0.14132900  1
  H  134  1  0.79452400  0.73333400  0.12560100  1
  H  135  1  0.72415500  0.69465700  0.17653200  1
  H  136  1  0.75268100  0.65935500  0.15997900  1
  H  137  1  0.85072300  0.65377800  0.14479200  1
  H  138  1  0.86149900  0.60658700  0.14448400  1
  H  139  1  0.74313200  0.64203700  0.12556300  1
  H  140  1  0.75387800  0.59488900  0.12524400  1
  H  141  1  0.82494300  0.66134100  0.10859500  1
  H  142  1  0.84064200  0.69702400  0.09007200  1
  H  143  1  0.81543000  0.83954600  0.10730800  1
  H  144  1  0.83181800  0.80418300  0.08856200  1
  H  145  1  0.77551100  0.74170600  0.07688600  1
  H  146  1  0.78867200  0.74101400  0.05140800  1
  H  147  1  0.89101400  0.75787000  0.08553000  1
  H  148  1  0.90417600  0.75730400  0.05990700  1
  H  149  1  0.85236100  0.84478000  0.14228400  1
  H  150  1  0.86331500  0.89197000  0.14206100  1
  H  151  1  0.75038500  0.90455200  0.12829100  1
  H  152  1  0.73939100  0.85733800  0.12852300  1
  H  205  1  0.95008100  0.25359500  0.21638000  1
  H  206  1  0.91062500  0.25360400  0.19511700  1
  H  207  1  0.04710600  0.24438600  0.18994600  1
  H  208  1  0.00785800  0.24459100  0.16880800  1
  H  209  1  0.94148500  0.19590000  0.17701400  1
  H  210  1  0.91372900  0.16051400  0.16044700  1
  H  211  1  0.89628900  0.23310000  0.14159400  1
  H  212  1  0.87069100  0.26569500  0.12651900  1
  H  213  1  0.94356800  0.30324200  0.17739100  1
  H  214  1  0.91468200  0.33890600  0.16118700  1
  H  215  1  0.81692900  0.34524300  0.14325200  1
  H  216  1  0.80629800  0.39243600  0.14258100  1
  H  217  1  0.92893600  0.35701600  0.12815100  1
  H  218  1  0.91829000  0.40422600  0.12749600  1
  H  219  1  0.84937600  0.33847700  0.10850700  1
  H  220  1  0.83246200  0.30315000  0.08996000  1
  H  221  1  0.84839700  0.16000900  0.10766900  1
  H  222  1  0.83074000  0.19583700  0.08934300  1
  H  223  1  0.89125600  0.25029600  0.07666700  1
  H  224  1  0.87609200  0.25128200  0.05135500  1
  H  225  1  0.77439800  0.25015600  0.08691700  1
  H  226  1  0.75922900  0.25097000  0.06141400  1
  H  227  1  0.82037700  0.15364900  0.14489800  1
  H  228  1  0.80977300  0.10642100  0.14496100  1
  H  229  1  0.91674800  0.09467700  0.12524600  1
  H  230  1  0.92736800  0.14186900  0.12522900  1
  H  283  1  0.94989500  0.24575700  0.78313900  1
  H  284  1  0.91034800  0.24601400  0.80438000  1
  H  285  1  0.04683400  0.25538900  0.80959400  1
  H  286  1  0.00750600  0.25545600  0.83070500  1
  H  287  1  0.94018200  0.30392700  0.82212400  1
  H  288  1  0.91282000  0.33944600  0.83868000  1
  H  289  1  0.89695900  0.26710400  0.85803500  1
  H  290  1  0.87314700  0.23462900  0.87352200  1
  H  291  1  0.94329700  0.19661600  0.82230500  1
  H  292  1  0.91472300  0.16109100  0.83871500  1
  H  293  1  0.81685400  0.15512600  0.85684800  1
  H  294  1  0.80594500  0.10793700  0.85751100  1
  H  295  1  0.92907100  0.14317400  0.87163200  1
  H  296  1  0.91815900  0.09597200  0.87226600  1
  H  297  1  0.84897000  0.16209700  0.89134500  1
  H  298  1  0.83317600  0.19757900  0.90993500  1
  H  299  1  0.85188400  0.34052500  0.89219100  1
  H  300  1  0.83554500  0.30492700  0.91082600  1
  H  301  1  0.89506500  0.24422000  0.92267600  1
  H  302  1  0.88204500  0.24326500  0.94816500  1
  H  303  1  0.77872600  0.25694200  0.91407600  1
  H  304  1  0.76570400  0.25613800  0.93970900  1
  H  305  1  0.82044200  0.34631000  0.85495300  1
  H  306  1  0.80970000  0.39350200  0.85487900  1
  H  307  1  0.91762900  0.40571600  0.87376600  1
  H  308  1  0.92839800  0.35856600  0.87378400  1
  H  361  1  0.22161800  0.25815600  0.28297700  1
  H  362  1  0.25985900  0.25829500  0.30455700  1
  H  363  1  0.12431100  0.24209900  0.30828400  1
  H  364  1  0.16236100  0.24242500  0.32976700  1
  H  365  1  0.23240200  0.19754600  0.32122800  1
  H  366  1  0.26005200  0.16195100  0.33765700  1
  H  367  1  0.27055400  0.23373300  0.35815900  1
  H  368  1  0.29469600  0.26632200  0.37368000  1
  H  369  1  0.22314000  0.30469800  0.32292200  1
  H  370  1  0.25157300  0.34011100  0.33944800  1
  H  371  1  0.34931800  0.34604900  0.35414900  1
  H  372  1  0.36027400  0.39323100  0.35453400  1
  H  373  1  0.24281100  0.35754200  0.37424100  1
  H  374  1  0.25375900  0.40468800  0.37464900  1
  H  375  1  0.32423900  0.33850900  0.39073900  1
  H  376  1  0.34071700  0.30289200  0.40918000  1
  H  377  1  0.31678000  0.16019700  0.39189600  1
  H  378  1  0.33399000  0.19570700  0.41048800  1
  H  379  1  0.27706600  0.25191400  0.42294200  1
  H  380  1  0.29230000  0.25268000  0.44825500  1
  H  381  1  0.39380900  0.24838200  0.41269000  1
  H  382  1  0.40903700  0.24902800  0.43819200  1
  H  383  1  0.35225500  0.15507100  0.35700000  1
  H  384  1  0.36344500  0.10792900  0.35712400  1
  H  385  1  0.25070700  0.09477100  0.37100400  1
  H  386  1  0.23947500  0.14194100  0.37088000  1
  H  439  1  0.22188500  0.24071900  0.71675800  1
  H  440  1  0.26019700  0.24062300  0.69519200  1
  H  441  1  0.12466300  0.25659400  0.69140100  1
  H  442  1  0.16276700  0.25631400  0.66994000  1
  H  443  1  0.23343800  0.30126700  0.67867600  1
  H  444  1  0.26065900  0.33700000  0.66219100  1
  H  445  1  0.27006600  0.26539500  0.64145200  1
  H  446  1  0.29286200  0.23293700  0.62564500  1
  H  447  1  0.22353400  0.19413100  0.67672600  1
  H  448  1  0.25165500  0.15887100  0.66004700  1
  H  449  1  0.34963300  0.15351500  0.64493800  1
  H  450  1  0.36080800  0.10637400  0.64455800  1
  H  451  1  0.24236500  0.14145700  0.62551200  1
  H  452  1  0.25351200  0.09435700  0.62512100  1
  H  453  1  0.32380200  0.16105000  0.60863400  1
  H  454  1  0.33913300  0.19679100  0.59009800  1
  H  455  1  0.31376200  0.33923500  0.60744300  1
  H  456  1  0.32963800  0.30391400  0.58860200  1
  H  457  1  0.27351200  0.24138500  0.57698500  1
  H  458  1  0.28649300  0.24065900  0.55149200  1
  H  459  1  0.38905700  0.25763600  0.58549700  1
  H  460  1  0.40203700  0.25703000  0.55986200  1
  H  461  1  0.35200300  0.34403000  0.64229500  1
  H  462  1  0.36337700  0.39117300  0.64221800  1
  H  463  1  0.25014500  0.40444600  0.62902900  1
  H  464  1  0.23872600  0.35727800  0.62911800  1
  H  517  1  0.44816600  0.75482000  0.71673300  1
  H  518  1  0.40991400  0.75471000  0.69515600  1
  H  519  1  0.54636200  0.74333300  0.69121600  1
  H  520  1  0.50828900  0.74340200  0.66974300  1
  H  521  1  0.44111500  0.69585400  0.67758400  1
  H  522  1  0.41372600  0.66035800  0.66100200  1
  H  523  1  0.39802700  0.73274400  0.64169000  1
  H  524  1  0.37253400  0.76528200  0.62653100  1
  H  525  1  0.44441700  0.80319200  0.67750000  1
  H  526  1  0.41590600  0.83874900  0.66113300  1
  H  527  1  0.31814500  0.84475900  0.64315400  1
  H  528  1  0.30719400  0.89191100  0.64242300  1
  H  529  1  0.43010200  0.85685000  0.62807900  1
  H  530  1  0.41913100  0.90402500  0.62736900  1
  H  531  1  0.35082800  0.83792300  0.60841300  1
  H  532  1  0.33425900  0.80246000  0.58989900  1
  H  533  1  0.35048400  0.65943500  0.60784200  1
  H  534  1  0.33321200  0.69515300  0.58939700  1
  H  535  1  0.39347600  0.74951200  0.57673800  1
  H  536  1  0.37847800  0.75047300  0.55141200  1
  H  537  1  0.27654900  0.74954000  0.58687800  1
  H  538  1  0.26154800  0.75033000  0.56136200  1
  H  539  1  0.32136400  0.65347200  0.64509800  1
  H  540  1  0.31052900  0.60627000  0.64527400  1
  H  541  1  0.41774900  0.59408000  0.62584400  1
  H  542  1  0.42860600  0.64124200  0.62571900  1
  H  595  1  0.44789700  0.74406200  0.28278300  1
  H  596  1  0.40956200  0.74431000  0.30434200  1
  H  597  1  0.54604700  0.75567000  0.30833500  1
  H  598  1  0.50790300  0.75574400  0.32978400  1
  H  599  1  0.43986900  0.80319600  0.32161700  1
  H  600  1  0.41289800  0.83880300  0.33820500  1
  H  601  1  0.39860600  0.76663900  0.35794000  1
  H  602  1  0.37495200  0.73420800  0.37350700  1
  H  603  1  0.44399900  0.69590000  0.32216000  1
  H  604  1  0.41584100  0.66045900  0.33872800  1
  H  605  1  0.31806800  0.65477000  0.35698900  1
  H  606  1  0.30687000  0.60762200  0.35771400  1
  H  607  1  0.43032900  0.64252900  0.37164300  1
  H  608  1  0.41912500  0.59535900  0.37233700  1
  H  609  1  0.35060900  0.66179700  0.39145200  1
  H  610  1  0.33517000  0.69739700  0.41002000  1
  H  611  1  0.35388800  0.84024000  0.39204400  1
  H  612  1  0.33796600  0.80473000  0.41078300  1
  H  613  1  0.39736800  0.74413400  0.42262000  1
  H  614  1  0.38450100  0.74317300  0.44812200  1
  H  615  1  0.28093200  0.75665800  0.41412100  1
  H  616  1  0.26806500  0.75584300  0.43976300  1
  H  617  1  0.32146900  0.84565900  0.35476100  1
  H  618  1  0.31050900  0.89282300  0.35454800  1
  H  619  1  0.41858000  0.90548900  0.37322100  1
  H  620  1  0.42957100  0.85836700  0.37337300  1
  H  635  1  0.99565100  0.73897200  0.00469200  1
  H  636  1  0.81207300  0.75562500  0.01580400  1
  H  637  1  0.80008800  0.74916400  0.99080500  1
  H  639  1  0.98167200  0.72883300  0.96424000  1
  H  640  1  0.00748300  0.71277800  0.97823300  1
  H  641  1  0.01278500  0.74763200  0.97536900  1
  H  643  1  0.90347100  0.75974300  0.03336600  1
  H  645  1  0.82677400  0.72622100  0.96807600  1
  H  656  1  0.67449800  0.23898000  0.99492600  1
  H  657  1  0.85819800  0.25537000  0.98381700  1
  H  658  1  0.87013900  0.24878900  0.00880600  1
  H  660  1  0.68844700  0.22869500  0.03536900  1
  H  661  1  0.66252000  0.21271700  0.02136500  1
  H  662  1  0.65744200  0.24756700  0.02426000  1
  H  664  1  0.76661600  0.25930300  0.96623800  1
  H  666  1  0.84301900  0.22552200  0.03148200  1
  H  677  1  0.49337000  0.23878200  0.50466300  1
  H  678  1  0.30972900  0.25498800  0.51581500  1
  H  679  1  0.29773000  0.24845700  0.49082400  1
  H  681  1  0.47936700  0.22852100  0.46422100  1
  H  682  1  0.50528900  0.21256700  0.47821800  1
  H  683  1  0.51040400  0.24742600  0.47532800  1
  H  685  1  0.40117700  0.25936600  0.53334000  1
  H  687  1  0.32433900  0.22570000  0.46808100  1
  H  698  1  0.17698300  0.73877500  0.49492800  1
  H  699  1  0.36073700  0.75489000  0.48382600  1
  H  700  1  0.37267300  0.74815300  0.50880300  1
  H  702  1  0.19092200  0.72823300  0.53535200  1
  H  703  1  0.16492200  0.71238600  0.52132300  1
  H  704  1  0.15998500  0.74723000  0.52428000  1
  H  706  1  0.26912900  0.75906300  0.46627000  1
  H  708  1  0.34553400  0.72489800  0.53146300  1
  H  719  1  0.75854800  0.00303300  0.90829600  1
  H  720  1  0.84876600  0.96849200  0.84840200  1
  H  721  1  0.87996000  0.01062500  0.84784900  1
  H  723  1  0.80542600  0.07119000  0.90908600  1
  H  724  1  0.79662700  0.04541400  0.92180200  1
  H  725  1  0.75873500  0.05865700  0.91130600  1
  H  727  1  0.77180300  0.94986700  0.87085800  1
  H  729  1  0.90023400  0.05109800  0.86523400  1
  H  740  1  0.75853300  0.49653700  0.09143600  1
  H  741  1  0.84938900  0.53195400  0.15106600  1
  H  742  1  0.88058900  0.48988400  0.15171900  1
  H  744  1  0.80539000  0.42845300  0.09081700  1
  H  745  1  0.79645500  0.45405700  0.07802200  1
  H  746  1  0.75867800  0.44088000  0.08862700  1
  H  748  1  0.77215900  0.55014200  0.12867900  1
  H  750  1  0.90066000  0.44921300  0.13437900  1
  H  761  1  0.91064000  0.99630800  0.09163600  1
  H  762  1  0.82184400  0.03180500  0.15167400  1
  H  763  1  0.79017400  0.98984900  0.15239900  1
  H  765  1  0.86293400  0.92841900  0.09111200  1
  H  766  1  0.87182900  0.95404600  0.07831700  1
  H  767  1  0.90973600  0.94065600  0.08874700  1
  H  769  1  0.89855300  0.04989500  0.12895900  1
  H  771  1  0.76910700  0.94937000  0.13512300  1
  H  782  1  0.91101000  0.50344600  0.90797800  1
  H  783  1  0.82186900  0.46843200  0.84790300  1
  H  784  1  0.79014500  0.51032800  0.84735200  1
  H  786  1  0.86320500  0.57120100  0.90879300  1
  H  787  1  0.87221500  0.54543800  0.92148500  1
  H  788  1  0.91003900  0.55905700  0.91107100  1
  H  790  1  0.89890400  0.45038100  0.87036400  1
  H  792  1  0.76924000  0.55064500  0.86477300  1
  H  803  1  0.25874000  0.50290500  0.40846600  1
  H  804  1  0.34921000  0.46788600  0.34871400  1
  H  805  1  0.38051900  0.50996600  0.34811500  1
  H  807  1  0.30578600  0.57101000  0.40917100  1
  H  808  1  0.29685600  0.54532200  0.42192700  1
  H  809  1  0.25905300  0.55854500  0.41137700  1
  H  811  1  0.27207900  0.44949300  0.37123700  1
  H  813  1  0.40083400  0.55049500  0.36539700  1
  H  824  1  0.25864100  0.99587800  0.59128400  1
  H  825  1  0.34967800  0.03169400  0.65080200  1
  H  826  1  0.38101500  0.98968500  0.65148100  1
  H  828  1  0.30570900  0.92786300  0.59072100  1
  H  829  1  0.29663700  0.95339700  0.57789900  1
  H  830  1  0.25894800  0.94020800  0.58854600  1
  H  832  1  0.27229400  0.04967300  0.62833900  1
  H  834  1  0.40116000  0.94899200  0.63421700  1
  H  845  1  0.41111200  0.49565000  0.59226400  1
  H  846  1  0.32244200  0.53151000  0.65226200  1
  H  847  1  0.29070500  0.48958100  0.65305300  1
  H  849  1  0.36328600  0.42780000  0.59183900  1
  H  850  1  0.37218200  0.45336400  0.57900700  1
  H  851  1  0.41009900  0.43999400  0.58944100  1
  H  853  1  0.39922200  0.54938500  0.62955800  1
  H  855  1  0.26950400  0.44909200  0.63596200  1
  H  866  1  0.41133400  0.00338600  0.40732400  1
  H  867  1  0.32253000  0.96785900  0.34726900  1
  H  868  1  0.29071600  0.00971600  0.34661200  1
  H  870  1  0.36337400  0.07109500  0.40797400  1
  H  871  1  0.37236600  0.04542300  0.42072300  1
  H  872  1  0.41022100  0.05901000  0.41031200  1
  H  874  1  0.39954200  0.95007000  0.36980200  1
  H  876  1  0.26958400  0.05007300  0.36387600  1
  H  887  1  0.50489100  0.80901100  0.77624300  1
  H  888  1  0.63833900  0.72433600  0.75648100  1
  H  889  1  0.61403800  0.72384100  0.73241800  1
  H  891  1  0.46203500  0.81060800  0.73845100  1
  H  892  1  0.47486000  0.83455500  0.75171800  1
  H  893  1  0.44453300  0.80753500  0.75639900  1
  H  895  1  0.59347300  0.75212700  0.78741600  1
  H  897  1  0.57490300  0.74893100  0.71394700  1
  H  908  1  0.50505300  0.68961800  0.22332000  1
  H  909  1  0.63844100  0.77448200  0.24321800  1
  H  910  1  0.61395000  0.77496000  0.26725200  1
  H  912  1  0.46188200  0.68800700  0.26106000  1
  H  913  1  0.47478600  0.66406400  0.24781400  1
  H  914  1  0.44453300  0.69104300  0.24308800  1
  H  916  1  0.59379100  0.74654800  0.21223700  1
  H  918  1  0.57465300  0.74970400  0.28567200  1
  H  929  1  0.16430000  0.30941600  0.22319900  1
  H  930  1  0.03210200  0.22377100  0.24324900  1
  H  931  1  0.05645600  0.22373000  0.26730700  1
  H  933  1  0.20719000  0.31179300  0.26097400  1
  H  934  1  0.19400800  0.33548000  0.24763200  1
  H  935  1  0.22471200  0.30868000  0.24303200  1
  H  937  1  0.07658400  0.25163500  0.21222600  1
  H  939  1  0.09534100  0.24919600  0.28570000  1
  H  950  1  0.16421200  0.19006000  0.77672900  1
  H  951  1  0.03208700  0.27515100  0.75621300  1
  H  952  1  0.05659500  0.27491800  0.73217800  1
  H  954  1  0.20734900  0.18727100  0.73900500  1
  H  955  1  0.19409600  0.16373800  0.75242900  1
  H  956  1  0.22475200  0.19066600  0.75695200  1
  H  958  1  0.07637100  0.24773400  0.78738800  1
  H  960  1  0.09561100  0.24921400  0.71393100  1
  H  1009  1  0.40744500  0.75679800  0.78335000  1
  H  1010  1  0.44681200  0.75708100  0.80463600  1
  H  1011  1  0.31098400  0.74340600  0.80957200  1
  H  1012  1  0.35013200  0.74388800  0.83074300  1
  H  1013  1  0.41933000  0.69763900  0.82183400  1
  H  1014  1  0.44729500  0.66213600  0.83824600  1
  H  1015  1  0.45974100  0.73417400  0.85831100  1
  H  1016  1  0.48419200  0.76679500  0.87369900  1
  H  1017  1  0.41155100  0.80484700  0.82305900  1
  H  1018  1  0.44033600  0.84037000  0.83942900  1
  H  1019  1  0.53810700  0.84662200  0.85428500  1
  H  1020  1  0.54864500  0.89385600  0.85458900  1
  H  1021  1  0.43113200  0.85781300  0.87407000  1
  H  1022  1  0.44165600  0.90500800  0.87439700  1
  H  1023  1  0.51281100  0.83916100  0.89075500  1
  H  1024  1  0.52968500  0.80366200  0.90921000  1
  H  1025  1  0.50634800  0.66082300  0.89211200  1
  H  1026  1  0.52402200  0.69644600  0.91057300  1
  H  1027  1  0.46677400  0.75257700  0.92305200  1
  H  1028  1  0.48220100  0.75335600  0.94834700  1
  H  1029  1  0.58345100  0.74920800  0.91266800  1
  H  1030  1  0.59887000  0.74986200  0.93815300  1
  H  1031  1  0.54040400  0.65514700  0.85711000  1
  H  1032  1  0.55118100  0.60796000  0.85739300  1
  H  1033  1  0.43879200  0.59551200  0.87187600  1
  H  1034  1  0.42798100  0.64272800  0.87159700  1
  H  1087  1  0.40773700  0.74239500  0.21638600  1
  H  1088  1  0.44718000  0.74239100  0.19511600  1
  H  1089  1  0.31134100  0.75574500  0.19014800  1
  H  1090  1  0.35055300  0.75554200  0.16899700  1
  H  1091  1  0.42040100  0.80184700  0.17816300  1
  H  1092  1  0.44791600  0.83755300  0.16172900  1
  H  1093  1  0.45923700  0.76577000  0.14132900  1
  H  1094  1  0.48228700  0.73333400  0.12560100  1
  H  1095  1  0.41191800  0.69465700  0.17653200  1
  H  1096  1  0.44044400  0.65935500  0.15997900  1
  H  1097  1  0.53848600  0.65377800  0.14479200  1
  H  1098  1  0.54926200  0.60658700  0.14448400  1
  H  1099  1  0.43089500  0.64203700  0.12556300  1
  H  1100  1  0.44164100  0.59488900  0.12524400  1
  H  1101  1  0.51270600  0.66134100  0.10859500  1
  H  1102  1  0.52840500  0.69702400  0.09007200  1
  H  1103  1  0.50319300  0.83954600  0.10730800  1
  H  1104  1  0.51958100  0.80418300  0.08856200  1
  H  1105  1  0.46327400  0.74170600  0.07688600  1
  H  1106  1  0.47643500  0.74101400  0.05140800  1
  H  1107  1  0.57877700  0.75787000  0.08553000  1
  H  1108  1  0.59193900  0.75730400  0.05990700  1
  H  1109  1  0.54012400  0.84478000  0.14228400  1
  H  1110  1  0.55107800  0.89197000  0.14206100  1
  H  1111  1  0.43814800  0.90455200  0.12829100  1
  H  1112  1  0.42715400  0.85733800  0.12852300  1
  H  1165  1  0.63784400  0.25359500  0.21638000  1
  H  1166  1  0.59838800  0.25360400  0.19511700  1
  H  1167  1  0.73486900  0.24438600  0.18994600  1
  H  1168  1  0.69562100  0.24459100  0.16880800  1
  H  1169  1  0.62924800  0.19590000  0.17701400  1
  H  1170  1  0.60149200  0.16051400  0.16044700  1
  H  1171  1  0.58405200  0.23310000  0.14159400  1
  H  1172  1  0.55845400  0.26569500  0.12651900  1
  H  1173  1  0.63133100  0.30324200  0.17739100  1
  H  1174  1  0.60244500  0.33890600  0.16118700  1
  H  1175  1  0.50469200  0.34524300  0.14325200  1
  H  1176  1  0.49406100  0.39243600  0.14258100  1
  H  1177  1  0.61669900  0.35701600  0.12815100  1
  H  1178  1  0.60605300  0.40422600  0.12749600  1
  H  1179  1  0.53713900  0.33847700  0.10850700  1
  H  1180  1  0.52022500  0.30315000  0.08996000  1
  H  1181  1  0.53616000  0.16000900  0.10766900  1
  H  1182  1  0.51850300  0.19583700  0.08934300  1
  H  1183  1  0.57901900  0.25029600  0.07666700  1
  H  1184  1  0.56385500  0.25128200  0.05135500  1
  H  1185  1  0.46216100  0.25015600  0.08691700  1
  H  1186  1  0.44699200  0.25097000  0.06141400  1
  H  1187  1  0.50814000  0.15364900  0.14489800  1
  H  1188  1  0.49753600  0.10642100  0.14496100  1
  H  1189  1  0.60451100  0.09467700  0.12524600  1
  H  1190  1  0.61513100  0.14186900  0.12522900  1
  H  1243  1  0.63765800  0.24575700  0.78313900  1
  H  1244  1  0.59811100  0.24601400  0.80438000  1
  H  1245  1  0.73459700  0.25538900  0.80959400  1
  H  1246  1  0.69526900  0.25545600  0.83070500  1
  H  1247  1  0.62794500  0.30392700  0.82212400  1
  H  1248  1  0.60058300  0.33944600  0.83868000  1
  H  1249  1  0.58472200  0.26710400  0.85803500  1
  H  1250  1  0.56091000  0.23462900  0.87352200  1
  H  1251  1  0.63106000  0.19661600  0.82230500  1
  H  1252  1  0.60248600  0.16109100  0.83871500  1
  H  1253  1  0.50461700  0.15512600  0.85684800  1
  H  1254  1  0.49370800  0.10793700  0.85751100  1
  H  1255  1  0.61683400  0.14317400  0.87163200  1
  H  1256  1  0.60592200  0.09597200  0.87226600  1
  H  1257  1  0.53673300  0.16209700  0.89134500  1
  H  1258  1  0.52093900  0.19757900  0.90993500  1
  H  1259  1  0.53964700  0.34052500  0.89219100  1
  H  1260  1  0.52330800  0.30492700  0.91082600  1
  H  1261  1  0.58282800  0.24422000  0.92267600  1
  H  1262  1  0.56980800  0.24326500  0.94816500  1
  H  1263  1  0.46648900  0.25694200  0.91407600  1
  H  1264  1  0.45346700  0.25613800  0.93970900  1
  H  1265  1  0.50820500  0.34631000  0.85495300  1
  H  1266  1  0.49746300  0.39350200  0.85487900  1
  H  1267  1  0.60539200  0.40571600  0.87376600  1
  H  1268  1  0.61616100  0.35856600  0.87378400  1
  H  1321  1  0.90938140  0.25815600  0.28297700  1
  H  1322  1  0.94762240  0.25829500  0.30455700  1
  H  1323  1  0.81207400  0.24209900  0.30828400  1
  H  1324  1  0.85012400  0.24242500  0.32976700  1
  H  1325  1  0.92016540  0.19754600  0.32122800  1
  H  1326  1  0.94781540  0.16195100  0.33765700  1
  H  1327  1  0.95831740  0.23373300  0.35815900  1
  H  1328  1  0.98245940  0.26632200  0.37368000  1
  H  1329  1  0.91090340  0.30469800  0.32292200  1
  H  1330  1  0.93933640  0.34011100  0.33944800  1
  H  1331  1  0.03708100  0.34604900  0.35414900  1
  H  1332  1  0.04803700  0.39323100  0.35453400  1
  H  1333  1  0.93057440  0.35754200  0.37424100  1
  H  1334  1  0.94152240  0.40468800  0.37464900  1
  H  1335  1  0.01200200  0.33850900  0.39073900  1
  H  1336  1  0.02848000  0.30289200  0.40918000  1
  H  1337  1  0.00454300  0.16019700  0.39189600  1
  H  1338  1  0.02175300  0.19570700  0.41048800  1
  H  1339  1  0.96482940  0.25191400  0.42294200  1
  H  1340  1  0.98006340  0.25268000  0.44825500  1
  H  1341  1  0.08157200  0.24838200  0.41269000  1
  H  1342  1  0.09680000  0.24902800  0.43819200  1
  H  1343  1  0.04001800  0.15507100  0.35700000  1
  H  1344  1  0.05120800  0.10792900  0.35712400  1
  H  1345  1  0.93847040  0.09477100  0.37100400  1
  H  1346  1  0.92723840  0.14194100  0.37088000  1
  H  1399  1  0.90964840  0.24071900  0.71675800  1
  H  1400  1  0.94796040  0.24062300  0.69519200  1
  H  1401  1  0.81242600  0.25659400  0.69140100  1
  H  1402  1  0.85053000  0.25631400  0.66994000  1
  H  1403  1  0.92120140  0.30126700  0.67867600  1
  H  1404  1  0.94842240  0.33700000  0.66219100  1
  H  1405  1  0.95782940  0.26539500  0.64145200  1
  H  1406  1  0.98062540  0.23293700  0.62564500  1
  H  1407  1  0.91129740  0.19413100  0.67672600  1
  H  1408  1  0.93941840  0.15887100  0.66004700  1
  H  1409  1  0.03739600  0.15351500  0.64493800  1
  H  1410  1  0.04857100  0.10637400  0.64455800  1
  H  1411  1  0.93012840  0.14145700  0.62551200  1
  H  1412  1  0.94127540  0.09435700  0.62512100  1
  H  1413  1  0.01156500  0.16105000  0.60863400  1
  H  1414  1  0.02689600  0.19679100  0.59009800  1
  H  1415  1  0.00152500  0.33923500  0.60744300  1
  H  1416  1  0.01740100  0.30391400  0.58860200  1
  H  1417  1  0.96127540  0.24138500  0.57698500  1
  H  1418  1  0.97425640  0.24065900  0.55149200  1
  H  1419  1  0.07682000  0.25763600  0.58549700  1
  H  1420  1  0.08980000  0.25703000  0.55986200  1
  H  1421  1  0.03976600  0.34403000  0.64229500  1
  H  1422  1  0.05114000  0.39117300  0.64221800  1
  H  1423  1  0.93790840  0.40444600  0.62902900  1
  H  1424  1  0.92648940  0.35727800  0.62911800  1
  H  1477  1  0.13592900  0.75482000  0.71673300  1
  H  1478  1  0.09767700  0.75471000  0.69515600  1
  H  1479  1  0.23412500  0.74333300  0.69121600  1
  H  1480  1  0.19605200  0.74340200  0.66974300  1
  H  1481  1  0.12887800  0.69585400  0.67758400  1
  H  1482  1  0.10148900  0.66035800  0.66100200  1
  H  1483  1  0.08579000  0.73274400  0.64169000  1
  H  1484  1  0.06029700  0.76528200  0.62653100  1
  H  1485  1  0.13218000  0.80319200  0.67750000  1
  H  1486  1  0.10366900  0.83874900  0.66113300  1
  H  1487  1  0.00590800  0.84475900  0.64315400  1
  H  1488  1  0.99495745  0.89191100  0.64242300  1
  H  1489  1  0.11786500  0.85685000  0.62807900  1
  H  1490  1  0.10689400  0.90402500  0.62736900  1
  H  1491  1  0.03859100  0.83792300  0.60841300  1
  H  1492  1  0.02202200  0.80246000  0.58989900  1
  H  1493  1  0.03824700  0.65943500  0.60784200  1
  H  1494  1  0.02097500  0.69515300  0.58939700  1
  H  1495  1  0.08123900  0.74951200  0.57673800  1
  H  1496  1  0.06624100  0.75047300  0.55141200  1
  H  1497  1  0.96431240  0.74954000  0.58687800  1
  H  1498  1  0.94931140  0.75033000  0.56136200  1
  H  1499  1  0.00912700  0.65347200  0.64509800  1
  H  1500  1  0.99829245  0.60627000  0.64527400  1
  H  1501  1  0.10551200  0.59408000  0.62584400  1
  H  1502  1  0.11636900  0.64124200  0.62571900  1
  H  1555  1  0.13566000  0.74406200  0.28278300  1
  H  1556  1  0.09732500  0.74431000  0.30434200  1
  H  1557  1  0.23381000  0.75567000  0.30833500  1
  H  1558  1  0.19566600  0.75574400  0.32978400  1
  H  1559  1  0.12763200  0.80319600  0.32161700  1
  H  1560  1  0.10066100  0.83880300  0.33820500  1
  H  1561  1  0.08636900  0.76663900  0.35794000  1
  H  1562  1  0.06271500  0.73420800  0.37350700  1
  H  1563  1  0.13176200  0.69590000  0.32216000  1
  H  1564  1  0.10360400  0.66045900  0.33872800  1
  H  1565  1  0.00583100  0.65477000  0.35698900  1
  H  1566  1  0.99463345  0.60762200  0.35771400  1
  H  1567  1  0.11809200  0.64252900  0.37164300  1
  H  1568  1  0.10688800  0.59535900  0.37233700  1
  H  1569  1  0.03837200  0.66179700  0.39145200  1
  H  1570  1  0.02293300  0.69739700  0.41002000  1
  H  1571  1  0.04165100  0.84024000  0.39204400  1
  H  1572  1  0.02572900  0.80473000  0.41078300  1
  H  1573  1  0.08513100  0.74413400  0.42262000  1
  H  1574  1  0.07226400  0.74317300  0.44812200  1
  H  1575  1  0.96869540  0.75665800  0.41412100  1
  H  1576  1  0.95582840  0.75584300  0.43976300  1
  H  1577  1  0.00923200  0.84565900  0.35476100  1
  H  1578  1  0.99827245  0.89282300  0.35454800  1
  H  1579  1  0.10634300  0.90548900  0.37322100  1
  H  1580  1  0.11733400  0.85836700  0.37337300  1
  H  1595  1  0.68341400  0.73897200  0.00469200  1
  H  1596  1  0.49983600  0.75562500  0.01580400  1
  H  1597  1  0.48785100  0.74916400  0.99080500  1
  H  1599  1  0.66943500  0.72883300  0.96424000  1
  H  1600  1  0.69524600  0.71277800  0.97823300  1
  H  1601  1  0.70054800  0.74763200  0.97536900  1
  H  1603  1  0.59123400  0.75974300  0.03336600  1
  H  1605  1  0.51453700  0.72622100  0.96807600  1
  H  1616  1  0.36226100  0.23898000  0.99492600  1
  H  1617  1  0.54596100  0.25537000  0.98381700  1
  H  1618  1  0.55790200  0.24878900  0.00880600  1
  H  1620  1  0.37621000  0.22869500  0.03536900  1
  H  1621  1  0.35028300  0.21271700  0.02136500  1
  H  1622  1  0.34520500  0.24756700  0.02426000  1
  H  1624  1  0.45437900  0.25930300  0.96623800  1
  H  1626  1  0.53078200  0.22552200  0.03148200  1
  H  1637  1  0.18113300  0.23878200  0.50466300  1
  H  1638  1  0.99749245  0.25498800  0.51581500  1
  H  1639  1  0.98549340  0.24845700  0.49082400  1
  H  1641  1  0.16713000  0.22852100  0.46422100  1
  H  1642  1  0.19305200  0.21256700  0.47821800  1
  H  1643  1  0.19816700  0.24742600  0.47532800  1
  H  1645  1  0.08894000  0.25936600  0.53334000  1
  H  1647  1  0.01210200  0.22570000  0.46808100  1
  H  1658  1  0.86474600  0.73877500  0.49492800  1
  H  1659  1  0.04850000  0.75489000  0.48382600  1
  H  1660  1  0.06043600  0.74815300  0.50880300  1
  H  1662  1  0.87868500  0.72823300  0.53535200  1
  H  1663  1  0.85268500  0.71238600  0.52132300  1
  H  1664  1  0.84774800  0.74723000  0.52428000  1
  H  1666  1  0.95689240  0.75906300  0.46627000  1
  H  1668  1  0.03329700  0.72489800  0.53146300  1
  H  1679  1  0.44631100  0.00303300  0.90829600  1
  H  1680  1  0.53652900  0.96849200  0.84840200  1
  H  1681  1  0.56772300  0.01062500  0.84784900  1
  H  1683  1  0.49318900  0.07119000  0.90908600  1
  H  1684  1  0.48439000  0.04541400  0.92180200  1
  H  1685  1  0.44649800  0.05865700  0.91130600  1
  H  1687  1  0.45956600  0.94986700  0.87085800  1
  H  1689  1  0.58799700  0.05109800  0.86523400  1
  H  1700  1  0.44629600  0.49653700  0.09143600  1
  H  1701  1  0.53715200  0.53195400  0.15106600  1
  H  1702  1  0.56835200  0.48988400  0.15171900  1
  H  1704  1  0.49315300  0.42845300  0.09081700  1
  H  1705  1  0.48421800  0.45405700  0.07802200  1
  H  1706  1  0.44644100  0.44088000  0.08862700  1
  H  1708  1  0.45992200  0.55014200  0.12867900  1
  H  1710  1  0.58842300  0.44921300  0.13437900  1
  H  1721  1  0.59840300  0.99630800  0.09163600  1
  H  1722  1  0.50960700  0.03180500  0.15167400  1
  H  1723  1  0.47793700  0.98984900  0.15239900  1
  H  1725  1  0.55069700  0.92841900  0.09111200  1
  H  1726  1  0.55959200  0.95404600  0.07831700  1
  H  1727  1  0.59749900  0.94065600  0.08874700  1
  H  1729  1  0.58631600  0.04989500  0.12895900  1
  H  1731  1  0.45687000  0.94937000  0.13512300  1
  H  1742  1  0.59877300  0.50344600  0.90797800  1
  H  1743  1  0.50963200  0.46843200  0.84790300  1
  H  1744  1  0.47790800  0.51032800  0.84735200  1
  H  1746  1  0.55096800  0.57120100  0.90879300  1
  H  1747  1  0.55997800  0.54543800  0.92148500  1
  H  1748  1  0.59780200  0.55905700  0.91107100  1
  H  1750  1  0.58666700  0.45038100  0.87036400  1
  H  1752  1  0.45700300  0.55064500  0.86477300  1
  H  1763  1  0.94650340  0.50290500  0.40846600  1
  H  1764  1  0.03697300  0.46788600  0.34871400  1
  H  1765  1  0.06828200  0.50996600  0.34811500  1
  H  1767  1  0.99354945  0.57101000  0.40917100  1
  H  1768  1  0.98461940  0.54532200  0.42192700  1
  H  1769  1  0.94681640  0.55854500  0.41137700  1
  H  1771  1  0.95984240  0.44949300  0.37123700  1
  H  1773  1  0.08859700  0.55049500  0.36539700  1
  H  1784  1  0.94640440  0.99587800  0.59128400  1
  H  1785  1  0.03744100  0.03169400  0.65080200  1
  H  1786  1  0.06877800  0.98968500  0.65148100  1
  H  1788  1  0.99347245  0.92786300  0.59072100  1
  H  1789  1  0.98440040  0.95339700  0.57789900  1
  H  1790  1  0.94671140  0.94020800  0.58854600  1
  H  1792  1  0.96005740  0.04967300  0.62833900  1
  H  1794  1  0.08892300  0.94899200  0.63421700  1
  H  1805  1  0.09887500  0.49565000  0.59226400  1
  H  1806  1  0.01020500  0.53151000  0.65226200  1
  H  1807  1  0.97846840  0.48958100  0.65305300  1
  H  1809  1  0.05104900  0.42780000  0.59183900  1
  H  1810  1  0.05994500  0.45336400  0.57900700  1
  H  1811  1  0.09786200  0.43999400  0.58944100  1
  H  1813  1  0.08698500  0.54938500  0.62955800  1
  H  1815  1  0.95726740  0.44909200  0.63596200  1
  H  1826  1  0.09909700  0.00338600  0.40732400  1
  H  1827  1  0.01029300  0.96785900  0.34726900  1
  H  1828  1  0.97847940  0.00971600  0.34661200  1
  H  1830  1  0.05113700  0.07109500  0.40797400  1
  H  1831  1  0.06012900  0.04542300  0.42072300  1
  H  1832  1  0.09798400  0.05901000  0.41031200  1
  H  1834  1  0.08730500  0.95007000  0.36980200  1
  H  1836  1  0.95734740  0.05007300  0.36387600  1
  H  1847  1  0.19265400  0.80901100  0.77624300  1
  H  1848  1  0.32610200  0.72433600  0.75648100  1
  H  1849  1  0.30180100  0.72384100  0.73241800  1
  H  1851  1  0.14979800  0.81060800  0.73845100  1
  H  1852  1  0.16262300  0.83455500  0.75171800  1
  H  1853  1  0.13229600  0.80753500  0.75639900  1
  H  1855  1  0.28123600  0.75212700  0.78741600  1
  H  1857  1  0.26266600  0.74893100  0.71394700  1
  H  1868  1  0.19281600  0.68961800  0.22332000  1
  H  1869  1  0.32620400  0.77448200  0.24321800  1
  H  1870  1  0.30171300  0.77496000  0.26725200  1
  H  1872  1  0.14964500  0.68800700  0.26106000  1
  H  1873  1  0.16254900  0.66406400  0.24781400  1
  H  1874  1  0.13229600  0.69104300  0.24308800  1
  H  1876  1  0.28155400  0.74654800  0.21223700  1
  H  1878  1  0.26241600  0.74970400  0.28567200  1
  H  1889  1  0.85206300  0.30941600  0.22319900  1
  H  1890  1  0.71986500  0.22377100  0.24324900  1
  H  1891  1  0.74421900  0.22373000  0.26730700  1
  H  1893  1  0.89495300  0.31179300  0.26097400  1
  H  1894  1  0.88177100  0.33548000  0.24763200  1
  H  1895  1  0.91247540  0.30868000  0.24303200  1
  H  1897  1  0.76434700  0.25163500  0.21222600  1
  H  1899  1  0.78310400  0.24919600  0.28570000  1
  H  1910  1  0.85197500  0.19006000  0.77672900  1
  H  1911  1  0.71985000  0.27515100  0.75621300  1
  H  1912  1  0.74435800  0.27491800  0.73217800  1
  H  1914  1  0.89511200  0.18727100  0.73900500  1
  H  1915  1  0.88185900  0.16373800  0.75242900  1
  H  1916  1  0.91251540  0.19066600  0.75695200  1
  H  1918  1  0.76413400  0.24773400  0.78738800  1
  H  1920  1  0.78337400  0.24921400  0.71393100  1
  C  1  1  0.74364200  0.70134000  0.83171700  1
  C  2  1  0.75924400  0.68205100  0.84058100  1
  C  3  1  0.77326900  0.69451800  0.85304200  1
  C  5  1  0.74854100  0.72608800  0.83841700  1
  C  6  1  0.73716400  0.75096000  0.83242600  1
  C  7  1  0.74695000  0.77616000  0.83835800  1
  C  9  1  0.77201400  0.80742400  0.85282400  1
  C  10  1  0.75445700  0.82030000  0.84118800  1
  C  11  1  0.73837900  0.80104000  0.83241400  1
  C  12  1  0.79090200  0.81992300  0.86460400  1
  C  13  1  0.80546100  0.80660800  0.87704200  1
  C  15  1  0.82064600  0.77505400  0.89344700  1
  C  16  1  0.83010800  0.79987500  0.89929100  1
  C  17  1  0.82134700  0.81916500  0.88915800  1
  C  18  1  0.82583200  0.75021000  0.90058700  1
  C  19  1  0.81914600  0.72501400  0.89409200  1
  C  21  1  0.80348500  0.69372500  0.87786600  1
  C  22  1  0.81672400  0.68088800  0.89033400  1
  C  23  1  0.82573400  0.70018600  0.90044200  1
  C  24  1  0.79026800  0.68119700  0.86500900  1
  C  25  1  0.79521200  0.65313900  0.86405600  1
  C  26  1  0.76591800  0.63550200  0.86823600  1
  C  27  1  0.77225500  0.60781600  0.86834800  1
  C  28  1  0.80798500  0.59732600  0.86429800  1
  C  29  1  0.83710600  0.61503800  0.86010900  1
  C  30  1  0.83080400  0.64268700  0.85992200  1
  C  31  1  0.83595200  0.75056800  0.91555100  1
  C  32  1  0.80694300  0.75179300  0.92609900  1
  C  33  1  0.81600100  0.75209000  0.94094400  1
  C  34  1  0.85422300  0.75088800  0.94560900  1
  C  35  1  0.88322500  0.75030000  0.93504500  1
  C  36  1  0.87422000  0.74989500  0.92013900  1
  C  37  1  0.79563700  0.84802800  0.86393900  1
  C  38  1  0.82958600  0.85883900  0.85830000  1
  C  39  1  0.83576600  0.88651900  0.85852400  1
  C  40  1  0.80822300  0.90391100  0.86431600  1
  C  41  1  0.77411600  0.89301700  0.86988200  1
  C  42  1  0.76788100  0.86531400  0.86970800  1
  C  43  1  0.71431100  0.75062800  0.81965300  1
  C  44  1  0.73042100  0.75424000  0.80575500  1
  C  45  1  0.67473100  0.74664900  0.82080000  1
  C  46  1  0.65170200  0.74649200  0.80832400  1
  C  47  1  0.66763200  0.75037200  0.79437400  1
  C  48  1  0.70728600  0.75405400  0.79328800  1
  C  79  1  0.74439400  0.79826800  0.16821400  1
  C  80  1  0.75983300  0.81765500  0.15935200  1
  C  81  1  0.77322400  0.80534500  0.14675000  1
  C  83  1  0.74890900  0.77360800  0.16139100  1
  C  84  1  0.73755100  0.74867000  0.16732500  1
  C  85  1  0.74720600  0.72354300  0.16129700  1
  C  87  1  0.77200500  0.69248600  0.14667000  1
  C  88  1  0.75466300  0.67945000  0.15831200  1
  C  89  1  0.73875100  0.69858900  0.16718900  1
  C  90  1  0.79070200  0.68017000  0.13480000  1
  C  91  1  0.80480800  0.69365800  0.12233300  1
  C  93  1  0.81877600  0.72536100  0.10583800  1
  C  94  1  0.82885500  0.70066300  0.10001000  1
  C  95  1  0.82082800  0.68128800  0.11019400  1
  C  96  1  0.82318700  0.75023500  0.09863800  1
  C  97  1  0.81667100  0.77536900  0.10521700  1
  C  99  1  0.80193500  0.80645200  0.12167400  1
  C  100  1  0.81389800  0.81945800  0.10906400  1
  C  101  1  0.82228900  0.80028300  0.09881800  1
  C  102  1  0.78958600  0.81881500  0.13469600  1
  C  103  1  0.79465400  0.84686300  0.13569800  1
  C  104  1  0.76525100  0.86453600  0.13175000  1
  C  105  1  0.77172300  0.89221800  0.13164500  1
  C  106  1  0.80765500  0.90267000  0.13550700  1
  C  107  1  0.83686900  0.88491900  0.13947900  1
  C  108  1  0.83045600  0.85727000  0.13964200  1
  C  109  1  0.83207300  0.74986700  0.08355100  1
  C  110  1  0.80276300  0.74496600  0.07344000  1
  C  111  1  0.81051700  0.74455700  0.05848900  1
  C  112  1  0.84758600  0.74915700  0.05327200  1
  C  113  1  0.87701700  0.75401800  0.06337700  1
  C  114  1  0.86933400  0.75432000  0.07839300  1
  C  115  1  0.79570700  0.65209300  0.13540700  1
  C  116  1  0.82991100  0.64145400  0.14087900  1
  C  117  1  0.83622400  0.61380100  0.14065800  1
  C  118  1  0.80857200  0.59626400  0.13502800  1
  C  119  1  0.77421600  0.60698700  0.12962400  1
  C  120  1  0.76784900  0.63466400  0.12979600  1
  C  121  1  0.71471200  0.74885400  0.18009800  1
  C  122  1  0.73078800  0.74516300  0.19399200  1
  C  123  1  0.67512900  0.75273300  0.17894000  1
  C  124  1  0.65205700  0.75271500  0.19140200  1
  C  125  1  0.66794700  0.74875300  0.20534900  1
  C  126  1  0.70760700  0.74518000  0.20644800  1
  C  157  1  0.92850500  0.19976300  0.16732200  1
  C  158  1  0.91294800  0.18052800  0.15839500  1
  C  159  1  0.89746100  0.19321100  0.14626400  1
  C  161  1  0.92210600  0.22468000  0.16100900  1
  C  162  1  0.93272500  0.24953800  0.16724400  1
  C  163  1  0.92231500  0.27478200  0.16154600  1
  C  165  1  0.89718800  0.30619200  0.14721600  1
  C  166  1  0.91353600  0.31888800  0.15917200  1
  C  167  1  0.92965000  0.29955800  0.16787000  1
  C  168  1  0.87897800  0.31884000  0.13533800  1
  C  169  1  0.86533700  0.30566800  0.12269400  1
  C  171  1  0.85023900  0.27424900  0.10618000  1
  C  172  1  0.84288900  0.29920700  0.10008400  1
  C  173  1  0.85159600  0.31842600  0.11027100  1
  C  174  1  0.84413900  0.24944700  0.09908600  1
  C  175  1  0.85008600  0.22418100  0.10559200  1
  C  177  1  0.86590000  0.19270700  0.12167500  1
  C  178  1  0.85129000  0.18003900  0.10937300  1
  C  179  1  0.84210100  0.19944300  0.09935800  1
  C  180  1  0.87983700  0.18003700  0.13437000  1
  C  181  1  0.87507000  0.15195500  0.13524800  1
  C  182  1  0.90284400  0.13449900  0.12964600  1
  C  183  1  0.89655200  0.10679800  0.12967400  1
  C  184  1  0.86239700  0.09607900  0.13529800  1
  C  185  1  0.83489700  0.11363800  0.14096800  1
  C  186  1  0.84110800  0.14131500  0.14097000  1
  C  187  1  0.83418700  0.24984700  0.08410300  1
  C  188  1  0.86332500  0.25020200  0.07358600  1
  C  189  1  0.85440700  0.25061500  0.05873000  1
  C  190  1  0.81618000  0.25039400  0.05401800  1
  C  191  1  0.78709300  0.25068000  0.06455300  1
  C  192  1  0.79594800  0.25018000  0.07947000  1
  C  193  1  0.87416100  0.34693600  0.13605200  1
  C  194  1  0.83871800  0.35757500  0.14022700  1
  C  195  1  0.83249500  0.38522700  0.13980600  1
  C  196  1  0.86155300  0.40275900  0.13533800  1
  C  197  1  0.89711700  0.39207700  0.13122400  1
  C  198  1  0.90335400  0.36439000  0.13155000  1
  C  199  1  0.95562000  0.24917900  0.18000600  1
  C  200  1  0.93938200  0.25165100  0.19395300  1
  C  201  1  0.99539000  0.24647000  0.17879300  1
  C  202  1  0.01847100  0.24645500  0.19125500  1
  C  203  1  0.00240500  0.24921900  0.20526000  1
  C  204  1  0.96257600  0.25163700  0.20640600  1
  C  235  1  0.92770100  0.30017000  0.83192600  1
  C  236  1  0.91222100  0.31945900  0.84082300  1
  C  237  1  0.89741400  0.30690100  0.85312400  1
  C  239  1  0.92173800  0.27533000  0.83839800  1
  C  240  1  0.93241000  0.25042900  0.83225500  1
  C  241  1  0.92221800  0.22522400  0.83808100  1
  C  243  1  0.89740700  0.19394200  0.85260000  1
  C  244  1  0.91358600  0.18113000  0.84065600  1
  C  245  1  0.92954500  0.20038600  0.83184800  1
  C  246  1  0.87929100  0.18143000  0.86455200  1
  C  247  1  0.86600900  0.19473500  0.87720500  1
  C  249  1  0.85203600  0.22628600  0.89377900  1
  C  250  1  0.84379900  0.20141000  0.89982600  1
  C  251  1  0.85179300  0.18212200  0.88960100  1
  C  252  1  0.84682900  0.25112800  0.90093500  1
  C  253  1  0.85260500  0.27634900  0.89433800  1
  C  255  1  0.86740700  0.30765100  0.87799300  1
  C  256  1  0.85413000  0.32046600  0.89046100  1
  C  257  1  0.84572100  0.30117100  0.90064700  1
  C  258  1  0.88046100  0.32018300  0.86511300  1
  C  259  1  0.87562900  0.34824500  0.86417700  1
  C  260  1  0.90364500  0.36582900  0.86952400  1
  C  261  1  0.89726400  0.39350700  0.86949700  1
  C  262  1  0.86279000  0.40408100  0.86411400  1
  C  263  1  0.83506600  0.38639500  0.85867800  1
  C  264  1  0.84136000  0.35873800  0.85868000  1
  C  265  1  0.83807800  0.25071500  0.91603400  1
  C  266  1  0.86767900  0.24674400  0.92613500  1
  C  267  1  0.86000700  0.24617700  0.94109200  1
  C  268  1  0.82273300  0.24972400  0.94632400  1
  C  269  1  0.79302100  0.25367800  0.93622800  1
  C  270  1  0.80062100  0.25410700  0.92120700  1
  C  271  1  0.87420200  0.15334300  0.86390000  1
  C  272  1  0.83861400  0.14275800  0.85981400  1
  C  273  1  0.83222000  0.11511300  0.86024100  1
  C  274  1  0.86126500  0.09753300  0.86460200  1
  C  275  1  0.89697100  0.10816000  0.86862600  1
  C  276  1  0.90337500  0.13584100  0.86830400  1
  C  277  1  0.95529800  0.25069700  0.81949500  1
  C  278  1  0.93910300  0.24801500  0.80555100  1
  C  279  1  0.99506900  0.25344100  0.82072200  1
  C  280  1  0.01819900  0.25329100  0.80827500  1
  C  281  1  0.00218100  0.25032100  0.79427400  1
  C  282  1  0.96234900  0.24787100  0.79311200  1
  C  313  1  0.24395700  0.20116000  0.33121100  1
  C  314  1  0.25939000  0.18182300  0.34008600  1
  C  315  1  0.27272000  0.19417400  0.35269100  1
  C  317  1  0.24824400  0.22583100  0.33805500  1
  C  318  1  0.23685000  0.25072900  0.33209600  1
  C  319  1  0.24633900  0.27589400  0.33814900  1
  C  321  1  0.27107900  0.30707200  0.35275600  1
  C  322  1  0.25355200  0.32002800  0.34114300  1
  C  323  1  0.23767000  0.30082000  0.33228200  1
  C  324  1  0.28987000  0.31949900  0.36458200  1
  C  325  1  0.30430700  0.30608400  0.37701000  1
  C  327  1  0.31915500  0.27442200  0.39340100  1
  C  328  1  0.32886600  0.29918400  0.39925900  1
  C  329  1  0.32032200  0.31853700  0.38913200  1
  C  330  1  0.32406600  0.24953600  0.40052900  1
  C  331  1  0.31739300  0.22438200  0.39398400  1
  C  333  1  0.30214100  0.19319100  0.37764400  1
  C  334  1  0.31498000  0.18027400  0.39014900  1
  C  335  1  0.32372800  0.19951300  0.40032500  1
  C  336  1  0.28938500  0.18075100  0.36469500  1
  C  337  1  0.29462200  0.15271700  0.36366200  1
  C  338  1  0.26535400  0.13488000  0.36761500  1
  C  339  1  0.27194000  0.10721900  0.36763300  1
  C  340  1  0.30789200  0.09694100  0.36371200  1
  C  341  1  0.33698100  0.11485000  0.35974500  1
  C  342  1  0.33043900  0.14247500  0.35965400  1
  C  343  1  0.33405500  0.24982000  0.41550500  1
  C  344  1  0.30496900  0.25108300  0.42602200  1
  C  345  1  0.31391600  0.25137000  0.44087700  1
  C  346  1  0.35210200  0.25014000  0.44558500  1
  C  347  1  0.38117700  0.24949000  0.43505300  1
  C  348  1  0.37228700  0.24908800  0.42013800  1
  C  349  1  0.29479800  0.34760200  0.36394800  1
  C  350  1  0.32873300  0.35832100  0.35824400  1
  C  351  1  0.33516500  0.38597400  0.35851600  1
  C  352  1  0.30789800  0.40344800  0.36442600  1
  C  353  1  0.27379300  0.39264900  0.37005200  1
  C  354  1  0.26730700  0.36497200  0.36982800  1
  C  355  1  0.21462100  0.25045600  0.31915700  1
  C  356  1  0.23129800  0.25487600  0.30542600  1
  C  357  1  0.17513700  0.24572900  0.31995000  1
  C  358  1  0.15275900  0.24562900  0.30729900  1
  C  359  1  0.16929300  0.25026500  0.29352500  1
  C  360  1  0.20882800  0.25475600  0.29278400  1
  C  391  1  0.24467600  0.29773500  0.66863400  1
  C  392  1  0.25995200  0.31713600  0.65974000  1
  C  393  1  0.27267200  0.30489500  0.64701800  1
  C  395  1  0.24858700  0.27312700  0.66170000  1
  C  396  1  0.23721900  0.24818600  0.66763700  1
  C  397  1  0.24656900  0.22307300  0.66151800  1
  C  399  1  0.27100600  0.19204200  0.64677700  1
  C  400  1  0.25372800  0.17897400  0.65841900  1
  C  401  1  0.23803900  0.19809500  0.66736700  1
  C  402  1  0.28956100  0.17975200  0.63486600  1
  C  403  1  0.30350700  0.19329400  0.62238800  1
  C  405  1  0.31716000  0.22504800  0.60588400  1
  C  406  1  0.32737000  0.20038600  0.60004500  1
  C  407  1  0.31954400  0.18098400  0.61023700  1
  C  408  1  0.32136400  0.24994200  0.59868200  1
  C  409  1  0.31493200  0.27505800  0.60529300  1
  C  411  1  0.30064500  0.30610200  0.62183000  1
  C  412  1  0.31225800  0.31914100  0.60918400  1
  C  413  1  0.32036500  0.29998900  0.59888900  1
  C  414  1  0.28873800  0.31842400  0.63492300  1
  C  415  1  0.29411700  0.34644700  0.63597900  1
  C  416  1  0.26475800  0.36431400  0.63224600  1
  C  417  1  0.27147700  0.39197100  0.63222700  1
  C  418  1  0.30762000  0.40221800  0.63596900  1
  C  419  1  0.33679100  0.38427500  0.63972600  1
  C  420  1  0.33013500  0.35665000  0.63980000  1
  C  421  1  0.33010900  0.24960300  0.58358400  1
  C  422  1  0.30073100  0.24466900  0.57350700  1
  C  423  1  0.30837800  0.24423900  0.55854800  1
  C  424  1  0.34540600  0.24884600  0.55328800  1
  C  425  1  0.37490100  0.25374600  0.56336100  1
  C  426  1  0.36732500  0.25407600  0.57838300  1
  C  427  1  0.29473300  0.15167900  0.63546500  1
  C  428  1  0.32895700  0.14113400  0.64097500  1
  C  429  1  0.33551100  0.11350500  0.64070800  1
  C  430  1  0.30809100  0.09588300  0.63499000  1
  C  431  1  0.27369900  0.10650900  0.62956000  1
  C  432  1  0.26708800  0.13416000  0.62977700  1
  C  433  1  0.21499600  0.24837300  0.68057400  1
  C  434  1  0.23163500  0.24397900  0.69431100  1
  C  435  1  0.17551500  0.25302100  0.67976200  1
  C  436  1  0.15309900  0.25309000  0.69240200  1
  C  437  1  0.16959100  0.24849500  0.70618300  1
  C  438  1  0.20912600  0.24407000  0.70694300  1
  C  469  1  0.42862300  0.69963800  0.66779000  1
  C  470  1  0.41327200  0.68034200  0.65884900  1
  C  471  1  0.39841800  0.69291600  0.64657100  1
  C  473  1  0.42276700  0.72449100  0.66132700  1
  C  474  1  0.43336000  0.74939100  0.66752400  1
  C  475  1  0.42323500  0.77460500  0.66170600  1
  C  477  1  0.39845000  0.80593400  0.64722800  1
  C  478  1  0.41470600  0.81871300  0.65917700  1
  C  479  1  0.43061000  0.79943300  0.66796300  1
  C  480  1  0.38037400  0.81850800  0.63529700  1
  C  481  1  0.36688200  0.80522900  0.62266300  1
  C  483  1  0.35208500  0.77368500  0.60617700  1
  C  484  1  0.34463400  0.79859400  0.60004000  1
  C  485  1  0.35315200  0.81788700  0.61020900  1
  C  486  1  0.34619200  0.74882700  0.59911200  1
  C  487  1  0.35210800  0.72360100  0.60566900  1
  C  489  1  0.36758600  0.69222000  0.62185700  1
  C  490  1  0.35332000  0.67947400  0.60952000  1
  C  491  1  0.34433900  0.69882100  0.59944400  1
  C  492  1  0.38113500  0.67963500  0.63463700  1
  C  493  1  0.37620100  0.65156300  0.63558100  1
  C  494  1  0.40397300  0.63397700  0.63010000  1
  C  495  1  0.39754100  0.60629000  0.63019000  1
  C  496  1  0.36324600  0.59569600  0.63576200  1
  C  497  1  0.33575200  0.61338600  0.64132000  1
  C  498  1  0.34209900  0.64105100  0.64125400  1
  C  499  1  0.33635700  0.74913900  0.58412000  1
  C  500  1  0.36556800  0.74943200  0.57363200  1
  C  501  1  0.35674600  0.74982900  0.55876700  1
  C  502  1  0.31854800  0.74966200  0.55402000  1
  C  503  1  0.28939100  0.74999400  0.56452600  1
  C  504  1  0.29815000  0.74950400  0.57945200  1
  C  505  1  0.37538400  0.84660300  0.63597100  1
  C  506  1  0.33986000  0.85715100  0.64012000  1
  C  507  1  0.33344500  0.88478100  0.63966300  1
  C  508  1  0.36238300  0.90240300  0.63518600  1
  C  509  1  0.39802900  0.89181700  0.63109800  1
  C  510  1  0.40445900  0.86414700  0.63145900  1
  C  511  1  0.45558600  0.74909100  0.68046100  1
  C  512  1  0.43865700  0.75225600  0.69424700  1
  C  513  1  0.49532500  0.74574200  0.67960400  1
  C  514  1  0.51771000  0.74577100  0.69225400  1
  C  515  1  0.50091700  0.74916400  0.70608700  1
  C  516  1  0.46113800  0.75229500  0.70688500  1
  C  547  1  0.42785700  0.79950800  0.33151100  1
  C  548  1  0.41259400  0.81884400  0.34043100  1
  C  549  1  0.39837600  0.80638000  0.35286100  1
  C  551  1  0.42238400  0.77472200  0.33810800  1
  C  552  1  0.43299700  0.74978900  0.33198200  1
  C  553  1  0.42308200  0.72460900  0.33791500  1
  C  555  1  0.39864300  0.69339100  0.35257500  1
  C  556  1  0.41467200  0.68051300  0.34062400  1
  C  557  1  0.43040000  0.69972900  0.33172800  1
  C  558  1  0.38071200  0.68093800  0.36458700  1
  C  559  1  0.36762600  0.69433500  0.37724000  1
  C  561  1  0.35396700  0.72599400  0.39379400  1
  C  562  1  0.34569800  0.70116200  0.39988800  1
  C  563  1  0.35349600  0.68180800  0.38967700  1
  C  564  1  0.34893700  0.75088200  0.40092300  1
  C  565  1  0.35464000  0.77607100  0.39427900  1
  C  567  1  0.36907900  0.80729700  0.37784300  1
  C  568  1  0.35611000  0.82017300  0.39033800  1
  C  569  1  0.34792700  0.80092700  0.40057700  1
  C  570  1  0.38174800  0.81975800  0.36488700  1
  C  571  1  0.37674300  0.84780800  0.36389300  1
  C  572  1  0.40472800  0.86552300  0.36913600  1
  C  573  1  0.39821700  0.89318900  0.36902900  1
  C  574  1  0.36364100  0.90363600  0.36366700  1
  C  575  1  0.33594500  0.88581900  0.35833400  1
  C  576  1  0.34236600  0.85817300  0.35841900  1
  C  577  1  0.34031900  0.75054700  0.41603100  1
  C  578  1  0.36999900  0.74663600  0.42610400  1
  C  579  1  0.36241700  0.74606300  0.44106800  1
  C  580  1  0.32515900  0.74954500  0.44633000  1
  C  581  1  0.29537400  0.75345200  0.43626000  1
  C  582  1  0.30288200  0.75388800  0.42123500  1
  C  583  1  0.37546300  0.65285000  0.36397000  1
  C  584  1  0.33977700  0.64235000  0.35994200  1
  C  585  1  0.33321200  0.61472300  0.36040600  1
  C  586  1  0.36217300  0.59706100  0.36475000  1
  C  587  1  0.39798100  0.60760000  0.36871500  1
  C  588  1  0.40455500  0.63526500  0.36835600  1
  C  589  1  0.45521100  0.75001500  0.31904600  1
  C  590  1  0.43831400  0.74676200  0.30526000  1
  C  591  1  0.49496500  0.75334300  0.31992000  1
  C  592  1  0.51739200  0.75323000  0.30728300  1
  C  593  1  0.50063600  0.74975400  0.29344800  1
  C  594  1  0.46084000  0.74664200  0.29263300  1
  C  625  1  0.87211200  0.75066700  0.01490200  1
  C  626  1  0.90235000  0.74606400  0.00501300  1
  C  627  1  0.89510500  0.74244200  0.98991700  1
  C  628  1  0.85751800  0.74338400  0.98448400  1
  C  629  1  0.82765300  0.74829200  0.99433600  1
  C  630  1  0.83482800  0.75204800  0.00917600  1
  C  632  1  0.96174200  0.73625000  0.98564400  1
  C  633  1  0.96877000  0.73986400  0.00056000  1
  C  638  1  0.99266800  0.73107000  0.97525200  1
  C  642  1  0.87831700  0.75364900  0.02979300  1
  C  644  1  0.84814200  0.73871700  0.97011100  1
  C  646  1  0.79811500  0.25052900  0.98470800  1
  C  647  1  0.76785100  0.24593700  0.99459900  1
  C  648  1  0.77507500  0.24225600  0.00969100  1
  C  649  1  0.81266800  0.24311300  0.01512200  1
  C  650  1  0.84256500  0.24800000  0.00527500  1
  C  651  1  0.83541000  0.25182700  0.99044000  1
  C  653  1  0.70840500  0.23614700  0.01396800  1
  C  654  1  0.70138800  0.23982400  0.99905800  1
  C  659  1  0.67745300  0.23097900  0.02436000  1
  C  663  1  0.79190900  0.25355100  0.96981500  1
  C  665  1  0.82200500  0.23828200  0.02947800  1
  C  667  1  0.36979200  0.25019400  0.51489900  1
  C  668  1  0.40003100  0.24564300  0.50500200  1
  C  669  1  0.39277500  0.24197200  0.48991100  1
  C  670  1  0.35517300  0.24281300  0.48448500  1
  C  671  1  0.32530700  0.24765500  0.49434700  1
  C  672  1  0.33248800  0.25145700  0.50918100  1
  C  674  1  0.45944100  0.23593600  0.48562500  1
  C  675  1  0.46647700  0.23959800  0.50053600  1
  C  680  1  0.49037200  0.23081200  0.47522800  1
  C  684  1  0.37602000  0.25324300  0.52978400  1
  C  686  1  0.34579200  0.23812400  0.47011100  1
  C  688  1  0.30063400  0.75016000  0.48471900  1
  C  689  1  0.27036100  0.74556600  0.49460500  1
  C  690  1  0.27758500  0.74178300  0.50968800  1
  C  691  1  0.31518400  0.74254300  0.51511600  1
  C  692  1  0.34509400  0.74743000  0.50527300  1
  C  693  1  0.33794100  0.75135100  0.49044600  1
  C  695  1  0.21089100  0.73577200  0.51396200  1
  C  696  1  0.20387700  0.73954300  0.49905900  1
  C  701  1  0.17993200  0.73060300  0.52434800  1
  C  705  1  0.29442100  0.75327600  0.46983400  1
  C  707  1  0.32450600  0.73765000  0.52946600  1
  C  709  1  0.81675000  0.97553300  0.86760300  1
  C  710  1  0.80934100  0.99487600  0.87845600  1
  C  711  1  0.82790800  0.02005600  0.87808900  1
  C  712  1  0.85394500  0.02616100  0.86684500  1
  C  713  1  0.86138900  0.00674100  0.85614300  1
  C  714  1  0.84295500  0.98189500  0.85648300  1
  C  716  1  0.79553900  0.03287900  0.89994800  1
  C  717  1  0.77724300  0.00791200  0.90024300  1
  C  722  1  0.78872800  0.05324000  0.91117500  1
  C  726  1  0.79880800  0.95091300  0.86780400  1
  C  728  1  0.87209900  0.05051800  0.86599800  1
  C  730  1  0.81718400  0.52463100  0.13193500  1
  C  731  1  0.80966000  0.50514700  0.12116300  1
  C  732  1  0.82822900  0.48000700  0.12158900  1
  C  733  1  0.85438100  0.47408300  0.13281500  1
  C  734  1  0.86194100  0.49364200  0.14343800  1
  C  735  1  0.84350300  0.51844800  0.14304000  1
  C  737  1  0.79561300  0.46685700  0.09983100  1
  C  738  1  0.77731800  0.49179000  0.09947500  1
  C  743  1  0.78867300  0.44634700  0.08869000  1
  C  747  1  0.79919900  0.54920200  0.13169000  1
  C  749  1  0.87250700  0.44975900  0.13372500  1
  C  751  1  0.85345800  0.02443500  0.13241400  1
  C  752  1  0.86046100  0.00497200  0.12158600  1
  C  753  1  0.84160400  0.97990500  0.12205400  1
  C  754  1  0.81568600  0.97402500  0.13337500  1
  C  755  1  0.80865800  0.99356400  0.14405400  1
  C  756  1  0.82737600  0.01830100  0.14361500  1
  C  758  1  0.87344300  0.96673800  0.10013900  1
  C  759  1  0.89202900  0.99159600  0.09974500  1
  C  764  1  0.87981400  0.94625200  0.08894200  1
  C  768  1  0.87160400  0.04897700  0.13209500  1
  C  770  1  0.79723400  0.94978400  0.13430100  1
  C  772  1  0.85361200  0.47567100  0.86715200  1
  C  773  1  0.86065300  0.49501800  0.87804400  1
  C  774  1  0.84175700  0.52003900  0.87768300  1
  C  775  1  0.81576400  0.52598900  0.86640600  1
  C  776  1  0.80867200  0.50655200  0.85567000  1
  C  777  1  0.82743100  0.48185800  0.85600300  1
  C  779  1  0.87371700  0.53302300  0.89961400  1
  C  780  1  0.89234000  0.50820900  0.89990200  1
  C  785  1  0.88012400  0.55338400  0.91088200  1
  C  789  1  0.87185100  0.45120000  0.86735800  1
  C  791  1  0.79737200  0.55022700  0.86556700  1
  C  793  1  0.31709500  0.47506500  0.36787400  1
  C  794  1  0.30968300  0.49449600  0.37868400  1
  C  795  1  0.32831300  0.51965500  0.37828500  1
  C  796  1  0.35442700  0.52567100  0.36705300  1
  C  797  1  0.36188700  0.50616100  0.35639900  1
  C  798  1  0.34338500  0.48133800  0.35676800  1
  C  800  1  0.29585400  0.53265400  0.40009500  1
  C  801  1  0.27749400  0.50771200  0.40042000  1
  C  806  1  0.28903300  0.55309300  0.41127900  1
  C  810  1  0.29901000  0.45047800  0.36808800  1
  C  812  1  0.37269800  0.54999400  0.36618300  1
  C  814  1  0.31739300  0.02426200  0.63170300  1
  C  815  1  0.30988800  0.00470600  0.62096400  1
  C  816  1  0.32852800  0.97958900  0.62141200  1
  C  817  1  0.35475300  0.97374200  0.63262600  1
  C  818  1  0.36230900  0.99337300  0.64320900  1
  C  819  1  0.34379700  0.01815400  0.64279200  1
  C  821  1  0.29585100  0.96629300  0.59969200  1
  C  822  1  0.27747500  0.99119400  0.59931700  1
  C  827  1  0.28892500  0.94572300  0.58858300  1
  C  831  1  0.29925500  0.04879400  0.63145900  1
  C  833  1  0.37300800  0.94945600  0.63354700  1
  C  835  1  0.35403800  0.52401600  0.63301300  1
  C  836  1  0.36099800  0.50448600  0.62221700  1
  C  837  1  0.34209900  0.47943500  0.62272200  1
  C  838  1  0.31618900  0.47361700  0.63405900  1
  C  839  1  0.30921200  0.49322800  0.64470600  1
  C  840  1  0.32795500  0.51795700  0.64422500  1
  C  842  1  0.37387100  0.46615100  0.60081200  1
  C  843  1  0.39250300  0.49098900  0.60038500  1
  C  848  1  0.38018400  0.44561100  0.58963900  1
  C  852  1  0.37223600  0.54854300  0.63265300  1
  C  854  1  0.29760500  0.44941300  0.63500500  1
  C  856  1  0.35418600  0.97526700  0.36651800  1
  C  857  1  0.36114000  0.99470600  0.37737100  1
  C  858  1  0.34219300  0.01971000  0.37694600  1
  C  859  1  0.31623700  0.02556400  0.36563900  1
  C  860  1  0.30923800  0.00603100  0.35494400  1
  C  861  1  0.32803400  0.98135000  0.35534300  1
  C  863  1  0.37401300  0.03286700  0.39887800  1
  C  864  1  0.39269300  0.00807700  0.39922600  1
  C  869  1  0.38031700  0.05330800  0.41011200  1
  C  873  1  0.37249400  0.95081400  0.36678600  1
  C  875  1  0.29770200  0.04975600  0.36475300  1
  C  877  1  0.59798300  0.75147600  0.76515800  1
  C  878  1  0.56553000  0.76673700  0.76142100  1
  C  879  1  0.55087200  0.76634800  0.74701800  1
  C  880  1  0.56820700  0.75050900  0.73612100  1
  C  881  1  0.60065400  0.73551000  0.73996900  1
  C  882  1  0.61514200  0.73587800  0.75419000  1
  C  884  1  0.50233900  0.79745100  0.75405500  1
  C  885  1  0.51692400  0.79765400  0.76827500  1
  C  890  1  0.46901800  0.81345000  0.74989200  1
  C  894  1  0.61192600  0.75110200  0.77928800  1
  C  896  1  0.55563000  0.74978600  0.72180600  1
  C  898  1  0.59812500  0.74728200  0.23449900  1
  C  899  1  0.56562400  0.73198100  0.23820000  1
  C  900  1  0.55084700  0.73236400  0.25258400  1
  C  901  1  0.56811600  0.74823500  0.26349400  1
  C  902  1  0.60061200  0.76327300  0.25968700  1
  C  903  1  0.61521300  0.76291300  0.24548300  1
  C  905  1  0.50233400  0.70119800  0.24550100  1
  C  906  1  0.51703200  0.70099700  0.23129800  1
  C  911  1  0.46895600  0.68516300  0.24962800  1
  C  915  1  0.61217900  0.74766600  0.22038600  1
  C  917  1  0.55543100  0.74894500  0.27779200  1
  C  919  1  0.07206500  0.25116800  0.23448000  1
  C  920  1  0.10429700  0.26676000  0.23816600  1
  C  921  1  0.11898600  0.26664900  0.25256600  1
  C  922  1  0.10190100  0.25076300  0.26351500  1
  C  923  1  0.06965500  0.23544500  0.25972000  1
  C  924  1  0.05513600  0.23554100  0.24550000  1
  C  926  1  0.16705600  0.29810800  0.24542200  1
  C  927  1  0.15244900  0.29803500  0.23120500  1
  C  932  1  0.20015300  0.31444800  0.24952500  1
  C  936  1  0.05813100  0.25052900  0.22035100  1
  C  938  1  0.11455500  0.25025000  0.27782600  1
  C  940  1  0.07201100  0.24795900  0.76512900  1
  C  941  1  0.10427700  0.23238500  0.76153700  1
  C  942  1  0.11905700  0.23233300  0.74715200  1
  C  943  1  0.10202300  0.24802400  0.73612400  1
  C  944  1  0.06975200  0.26333300  0.73982500  1
  C  945  1  0.05514800  0.26340500  0.75403200  1
  C  947  1  0.16710400  0.20107800  0.75446500  1
  C  948  1  0.15240400  0.20130700  0.76866700  1
  C  953  1  0.20023900  0.18475700  0.75045900  1
  C  957  1  0.05798000  0.24874900  0.77924100  1
  C  959  1  0.11477900  0.24837900  0.72182800  1
  C  961  1  0.43140500  0.70134000  0.83171700  1
  C  962  1  0.44700700  0.68205100  0.84058100  1
  C  963  1  0.46103200  0.69451800  0.85304200  1
  C  965  1  0.43630400  0.72608800  0.83841700  1
  C  966  1  0.42492700  0.75096000  0.83242600  1
  C  967  1  0.43471300  0.77616000  0.83835800  1
  C  969  1  0.45977700  0.80742400  0.85282400  1
  C  970  1  0.44222000  0.82030000  0.84118800  1
  C  971  1  0.42614200  0.80104000  0.83241400  1
  C  972  1  0.47866500  0.81992300  0.86460400  1
  C  973  1  0.49322400  0.80660800  0.87704200  1
  C  975  1  0.50840900  0.77505400  0.89344700  1
  C  976  1  0.51787100  0.79987500  0.89929100  1
  C  977  1  0.50911000  0.81916500  0.88915800  1
  C  978  1  0.51359500  0.75021000  0.90058700  1
  C  979  1  0.50690900  0.72501400  0.89409200  1
  C  981  1  0.49124800  0.69372500  0.87786600  1
  C  982  1  0.50448700  0.68088800  0.89033400  1
  C  983  1  0.51349700  0.70018600  0.90044200  1
  C  984  1  0.47803100  0.68119700  0.86500900  1
  C  985  1  0.48297500  0.65313900  0.86405600  1
  C  986  1  0.45368100  0.63550200  0.86823600  1
  C  987  1  0.46001800  0.60781600  0.86834800  1
  C  988  1  0.49574800  0.59732600  0.86429800  1
  C  989  1  0.52486900  0.61503800  0.86010900  1
  C  990  1  0.51856700  0.64268700  0.85992200  1
  C  991  1  0.52371500  0.75056800  0.91555100  1
  C  992  1  0.49470600  0.75179300  0.92609900  1
  C  993  1  0.50376400  0.75209000  0.94094400  1
  C  994  1  0.54198600  0.75088800  0.94560900  1
  C  995  1  0.57098800  0.75030000  0.93504500  1
  C  996  1  0.56198300  0.74989500  0.92013900  1
  C  997  1  0.48340000  0.84802800  0.86393900  1
  C  998  1  0.51734900  0.85883900  0.85830000  1
  C  999  1  0.52352900  0.88651900  0.85852400  1
  C  1000  1  0.49598600  0.90391100  0.86431600  1
  C  1001  1  0.46187900  0.89301700  0.86988200  1
  C  1002  1  0.45564400  0.86531400  0.86970800  1
  C  1003  1  0.40207400  0.75062800  0.81965300  1
  C  1004  1  0.41818400  0.75424000  0.80575500  1
  C  1005  1  0.36249400  0.74664900  0.82080000  1
  C  1006  1  0.33946500  0.74649200  0.80832400  1
  C  1007  1  0.35539500  0.75037200  0.79437400  1
  C  1008  1  0.39504900  0.75405400  0.79328800  1
  C  1039  1  0.43215700  0.79826800  0.16821400  1
  C  1040  1  0.44759600  0.81765500  0.15935200  1
  C  1041  1  0.46098700  0.80534500  0.14675000  1
  C  1043  1  0.43667200  0.77360800  0.16139100  1
  C  1044  1  0.42531400  0.74867000  0.16732500  1
  C  1045  1  0.43496900  0.72354300  0.16129700  1
  C  1047  1  0.45976800  0.69248600  0.14667000  1
  C  1048  1  0.44242600  0.67945000  0.15831200  1
  C  1049  1  0.42651400  0.69858900  0.16718900  1
  C  1050  1  0.47846500  0.68017000  0.13480000  1
  C  1051  1  0.49257100  0.69365800  0.12233300  1
  C  1053  1  0.50653900  0.72536100  0.10583800  1
  C  1054  1  0.51661800  0.70066300  0.10001000  1
  C  1055  1  0.50859100  0.68128800  0.11019400  1
  C  1056  1  0.51095000  0.75023500  0.09863800  1
  C  1057  1  0.50443400  0.77536900  0.10521700  1
  C  1059  1  0.48969800  0.80645200  0.12167400  1
  C  1060  1  0.50166100  0.81945800  0.10906400  1
  C  1061  1  0.51005200  0.80028300  0.09881800  1
  C  1062  1  0.47734900  0.81881500  0.13469600  1
  C  1063  1  0.48241700  0.84686300  0.13569800  1
  C  1064  1  0.45301400  0.86453600  0.13175000  1
  C  1065  1  0.45948600  0.89221800  0.13164500  1
  C  1066  1  0.49541800  0.90267000  0.13550700  1
  C  1067  1  0.52463200  0.88491900  0.13947900  1
  C  1068  1  0.51821900  0.85727000  0.13964200  1
  C  1069  1  0.51983600  0.74986700  0.08355100  1
  C  1070  1  0.49052600  0.74496600  0.07344000  1
  C  1071  1  0.49828000  0.74455700  0.05848900  1
  C  1072  1  0.53534900  0.74915700  0.05327200  1
  C  1073  1  0.56478000  0.75401800  0.06337700  1
  C  1074  1  0.55709700  0.75432000  0.07839300  1
  C  1075  1  0.48347000  0.65209300  0.13540700  1
  C  1076  1  0.51767400  0.64145400  0.14087900  1
  C  1077  1  0.52398700  0.61380100  0.14065800  1
  C  1078  1  0.49633500  0.59626400  0.13502800  1
  C  1079  1  0.46197900  0.60698700  0.12962400  1
  C  1080  1  0.45561200  0.63466400  0.12979600  1
  C  1081  1  0.40247500  0.74885400  0.18009800  1
  C  1082  1  0.41855100  0.74516300  0.19399200  1
  C  1083  1  0.36289200  0.75273300  0.17894000  1
  C  1084  1  0.33982000  0.75271500  0.19140200  1
  C  1085  1  0.35571000  0.74875300  0.20534900  1
  C  1086  1  0.39537000  0.74518000  0.20644800  1
  C  1117  1  0.61626800  0.19976300  0.16732200  1
  C  1118  1  0.60071100  0.18052800  0.15839500  1
  C  1119  1  0.58522400  0.19321100  0.14626400  1
  C  1121  1  0.60986900  0.22468000  0.16100900  1
  C  1122  1  0.62048800  0.24953800  0.16724400  1
  C  1123  1  0.61007800  0.27478200  0.16154600  1
  C  1125  1  0.58495100  0.30619200  0.14721600  1
  C  1126  1  0.60129900  0.31888800  0.15917200  1
  C  1127  1  0.61741300  0.29955800  0.16787000  1
  C  1128  1  0.56674100  0.31884000  0.13533800  1
  C  1129  1  0.55310000  0.30566800  0.12269400  1
  C  1131  1  0.53800200  0.27424900  0.10618000  1
  C  1132  1  0.53065200  0.29920700  0.10008400  1
  C  1133  1  0.53935900  0.31842600  0.11027100  1
  C  1134  1  0.53190200  0.24944700  0.09908600  1
  C  1135  1  0.53784900  0.22418100  0.10559200  1
  C  1137  1  0.55366300  0.19270700  0.12167500  1
  C  1138  1  0.53905300  0.18003900  0.10937300  1
  C  1139  1  0.52986400  0.19944300  0.09935800  1
  C  1140  1  0.56760000  0.18003700  0.13437000  1
  C  1141  1  0.56283300  0.15195500  0.13524800  1
  C  1142  1  0.59060700  0.13449900  0.12964600  1
  C  1143  1  0.58431500  0.10679800  0.12967400  1
  C  1144  1  0.55016000  0.09607900  0.13529800  1
  C  1145  1  0.52266000  0.11363800  0.14096800  1
  C  1146  1  0.52887100  0.14131500  0.14097000  1
  C  1147  1  0.52195000  0.24984700  0.08410300  1
  C  1148  1  0.55108800  0.25020200  0.07358600  1
  C  1149  1  0.54217000  0.25061500  0.05873000  1
  C  1150  1  0.50394300  0.25039400  0.05401800  1
  C  1151  1  0.47485600  0.25068000  0.06455300  1
  C  1152  1  0.48371100  0.25018000  0.07947000  1
  C  1153  1  0.56192400  0.34693600  0.13605200  1
  C  1154  1  0.52648100  0.35757500  0.14022700  1
  C  1155  1  0.52025800  0.38522700  0.13980600  1
  C  1156  1  0.54931600  0.40275900  0.13533800  1
  C  1157  1  0.58488000  0.39207700  0.13122400  1
  C  1158  1  0.59111700  0.36439000  0.13155000  1
  C  1159  1  0.64338300  0.24917900  0.18000600  1
  C  1160  1  0.62714500  0.25165100  0.19395300  1
  C  1161  1  0.68315300  0.24647000  0.17879300  1
  C  1162  1  0.70623400  0.24645500  0.19125500  1
  C  1163  1  0.69016800  0.24921900  0.20526000  1
  C  1164  1  0.65033900  0.25163700  0.20640600  1
  C  1195  1  0.61546400  0.30017000  0.83192600  1
  C  1196  1  0.59998400  0.31945900  0.84082300  1
  C  1197  1  0.58517700  0.30690100  0.85312400  1
  C  1199  1  0.60950100  0.27533000  0.83839800  1
  C  1200  1  0.62017300  0.25042900  0.83225500  1
  C  1201  1  0.60998100  0.22522400  0.83808100  1
  C  1203  1  0.58517000  0.19394200  0.85260000  1
  C  1204  1  0.60134900  0.18113000  0.84065600  1
  C  1205  1  0.61730800  0.20038600  0.83184800  1
  C  1206  1  0.56705400  0.18143000  0.86455200  1
  C  1207  1  0.55377200  0.19473500  0.87720500  1
  C  1209  1  0.53979900  0.22628600  0.89377900  1
  C  1210  1  0.53156200  0.20141000  0.89982600  1
  C  1211  1  0.53955600  0.18212200  0.88960100  1
  C  1212  1  0.53459200  0.25112800  0.90093500  1
  C  1213  1  0.54036800  0.27634900  0.89433800  1
  C  1215  1  0.55517000  0.30765100  0.87799300  1
  C  1216  1  0.54189300  0.32046600  0.89046100  1
  C  1217  1  0.53348400  0.30117100  0.90064700  1
  C  1218  1  0.56822400  0.32018300  0.86511300  1
  C  1219  1  0.56339200  0.34824500  0.86417700  1
  C  1220  1  0.59140800  0.36582900  0.86952400  1
  C  1221  1  0.58502700  0.39350700  0.86949700  1
  C  1222  1  0.55055300  0.40408100  0.86411400  1
  C  1223  1  0.52282900  0.38639500  0.85867800  1
  C  1224  1  0.52912300  0.35873800  0.85868000  1
  C  1225  1  0.52584100  0.25071500  0.91603400  1
  C  1226  1  0.55544200  0.24674400  0.92613500  1
  C  1227  1  0.54777000  0.24617700  0.94109200  1
  C  1228  1  0.51049600  0.24972400  0.94632400  1
  C  1229  1  0.48078400  0.25367800  0.93622800  1
  C  1230  1  0.48838400  0.25410700  0.92120700  1
  C  1231  1  0.56196500  0.15334300  0.86390000  1
  C  1232  1  0.52637700  0.14275800  0.85981400  1
  C  1233  1  0.51998300  0.11511300  0.86024100  1
  C  1234  1  0.54902800  0.09753300  0.86460200  1
  C  1235  1  0.58473400  0.10816000  0.86862600  1
  C  1236  1  0.59113800  0.13584100  0.86830400  1
  C  1237  1  0.64306100  0.25069700  0.81949500  1
  C  1238  1  0.62686600  0.24801500  0.80555100  1
  C  1239  1  0.68283200  0.25344100  0.82072200  1
  C  1240  1  0.70596200  0.25329100  0.80827500  1
  C  1241  1  0.68994400  0.25032100  0.79427400  1
  C  1242  1  0.65011200  0.24787100  0.79311200  1
  C  1273  1  0.93172040  0.20116000  0.33121100  1
  C  1274  1  0.94715340  0.18182300  0.34008600  1
  C  1275  1  0.96048340  0.19417400  0.35269100  1
  C  1277  1  0.93600740  0.22583100  0.33805500  1
  C  1278  1  0.92461340  0.25072900  0.33209600  1
  C  1279  1  0.93410240  0.27589400  0.33814900  1
  C  1281  1  0.95884240  0.30707200  0.35275600  1
  C  1282  1  0.94131540  0.32002800  0.34114300  1
  C  1283  1  0.92543340  0.30082000  0.33228200  1
  C  1284  1  0.97763340  0.31949900  0.36458200  1
  C  1285  1  0.99207045  0.30608400  0.37701000  1
  C  1287  1  0.00691800  0.27442200  0.39340100  1
  C  1288  1  0.01662900  0.29918400  0.39925900  1
  C  1289  1  0.00808500  0.31853700  0.38913200  1
  C  1290  1  0.01182900  0.24953600  0.40052900  1
  C  1291  1  0.00515600  0.22438200  0.39398400  1
  C  1293  1  0.98990440  0.19319100  0.37764400  1
  C  1294  1  0.00274300  0.18027400  0.39014900  1
  C  1295  1  0.01149100  0.19951300  0.40032500  1
  C  1296  1  0.97714840  0.18075100  0.36469500  1
  C  1297  1  0.98238540  0.15271700  0.36366200  1
  C  1298  1  0.95311740  0.13488000  0.36761500  1
  C  1299  1  0.95970340  0.10721900  0.36763300  1
  C  1300  1  0.99565545  0.09694100  0.36371200  1
  C  1301  1  0.02474400  0.11485000  0.35974500  1
  C  1302  1  0.01820200  0.14247500  0.35965400  1
  C  1303  1  0.02181800  0.24982000  0.41550500  1
  C  1304  1  0.99273245  0.25108300  0.42602200  1
  C  1305  1  0.00167900  0.25137000  0.44087700  1
  C  1306  1  0.03986500  0.25014000  0.44558500  1
  C  1307  1  0.06894000  0.24949000  0.43505300  1
  C  1308  1  0.06005000  0.24908800  0.42013800  1
  C  1309  1  0.98256140  0.34760200  0.36394800  1
  C  1310  1  0.01649600  0.35832100  0.35824400  1
  C  1311  1  0.02292800  0.38597400  0.35851600  1
  C  1312  1  0.99566145  0.40344800  0.36442600  1
  C  1313  1  0.96155640  0.39264900  0.37005200  1
  C  1314  1  0.95507040  0.36497200  0.36982800  1
  C  1315  1  0.90238440  0.25045600  0.31915700  1
  C  1316  1  0.91906140  0.25487600  0.30542600  1
  C  1317  1  0.86290000  0.24572900  0.31995000  1
  C  1318  1  0.84052200  0.24562900  0.30729900  1
  C  1319  1  0.85705600  0.25026500  0.29352500  1
  C  1320  1  0.89659100  0.25475600  0.29278400  1
  C  1351  1  0.93243940  0.29773500  0.66863400  1
  C  1352  1  0.94771540  0.31713600  0.65974000  1
  C  1353  1  0.96043540  0.30489500  0.64701800  1
  C  1355  1  0.93635040  0.27312700  0.66170000  1
  C  1356  1  0.92498240  0.24818600  0.66763700  1
  C  1357  1  0.93433240  0.22307300  0.66151800  1
  C  1359  1  0.95876940  0.19204200  0.64677700  1
  C  1360  1  0.94149140  0.17897400  0.65841900  1
  C  1361  1  0.92580240  0.19809500  0.66736700  1
  C  1362  1  0.97732440  0.17975200  0.63486600  1
  C  1363  1  0.99127045  0.19329400  0.62238800  1
  C  1365  1  0.00492300  0.22504800  0.60588400  1
  C  1366  1  0.01513300  0.20038600  0.60004500  1
  C  1367  1  0.00730700  0.18098400  0.61023700  1
  C  1368  1  0.00912700  0.24994200  0.59868200  1
  C  1369  1  0.00269500  0.27505800  0.60529300  1
  C  1371  1  0.98840840  0.30610200  0.62183000  1
  C  1372  1  0.00002100  0.31914100  0.60918400  1
  C  1373  1  0.00812800  0.29998900  0.59888900  1
  C  1374  1  0.97650140  0.31842400  0.63492300  1
  C  1375  1  0.98188040  0.34644700  0.63597900  1
  C  1376  1  0.95252140  0.36431400  0.63224600  1
  C  1377  1  0.95924040  0.39197100  0.63222700  1
  C  1378  1  0.99538345  0.40221800  0.63596900  1
  C  1379  1  0.02455400  0.38427500  0.63972600  1
  C  1380  1  0.01789800  0.35665000  0.63980000  1
  C  1381  1  0.01787200  0.24960300  0.58358400  1
  C  1382  1  0.98849440  0.24466900  0.57350700  1
  C  1383  1  0.99614145  0.24423900  0.55854800  1
  C  1384  1  0.03316900  0.24884600  0.55328800  1
  C  1385  1  0.06266400  0.25374600  0.56336100  1
  C  1386  1  0.05508800  0.25407600  0.57838300  1
  C  1387  1  0.98249640  0.15167900  0.63546500  1
  C  1388  1  0.01672000  0.14113400  0.64097500  1
  C  1389  1  0.02327400  0.11350500  0.64070800  1
  C  1390  1  0.99585445  0.09588300  0.63499000  1
  C  1391  1  0.96146240  0.10650900  0.62956000  1
  C  1392  1  0.95485140  0.13416000  0.62977700  1
  C  1393  1  0.90275940  0.24837300  0.68057400  1
  C  1394  1  0.91939840  0.24397900  0.69431100  1
  C  1395  1  0.86327800  0.25302100  0.67976200  1
  C  1396  1  0.84086200  0.25309000  0.69240200  1
  C  1397  1  0.85735400  0.24849500  0.70618300  1
  C  1398  1  0.89688900  0.24407000  0.70694300  1
  C  1429  1  0.11638600  0.69963800  0.66779000  1
  C  1430  1  0.10103500  0.68034200  0.65884900  1
  C  1431  1  0.08618100  0.69291600  0.64657100  1
  C  1433  1  0.11053000  0.72449100  0.66132700  1
  C  1434  1  0.12112300  0.74939100  0.66752400  1
  C  1435  1  0.11099800  0.77460500  0.66170600  1
  C  1437  1  0.08621300  0.80593400  0.64722800  1
  C  1438  1  0.10246900  0.81871300  0.65917700  1
  C  1439  1  0.11837300  0.79943300  0.66796300  1
  C  1440  1  0.06813700  0.81850800  0.63529700  1
  C  1441  1  0.05464500  0.80522900  0.62266300  1
  C  1443  1  0.03984800  0.77368500  0.60617700  1
  C  1444  1  0.03239700  0.79859400  0.60004000  1
  C  1445  1  0.04091500  0.81788700  0.61020900  1
  C  1446  1  0.03395500  0.74882700  0.59911200  1
  C  1447  1  0.03987100  0.72360100  0.60566900  1
  C  1449  1  0.05534900  0.69222000  0.62185700  1
  C  1450  1  0.04108300  0.67947400  0.60952000  1
  C  1451  1  0.03210200  0.69882100  0.59944400  1
  C  1452  1  0.06889800  0.67963500  0.63463700  1
  C  1453  1  0.06396400  0.65156300  0.63558100  1
  C  1454  1  0.09173600  0.63397700  0.63010000  1
  C  1455  1  0.08530400  0.60629000  0.63019000  1
  C  1456  1  0.05100900  0.59569600  0.63576200  1
  C  1457  1  0.02351500  0.61338600  0.64132000  1
  C  1458  1  0.02986200  0.64105100  0.64125400  1
  C  1459  1  0.02412000  0.74913900  0.58412000  1
  C  1460  1  0.05333100  0.74943200  0.57363200  1
  C  1461  1  0.04450900  0.74982900  0.55876700  1
  C  1462  1  0.00631100  0.74966200  0.55402000  1
  C  1463  1  0.97715440  0.74999400  0.56452600  1
  C  1464  1  0.98591340  0.74950400  0.57945200  1
  C  1465  1  0.06314700  0.84660300  0.63597100  1
  C  1466  1  0.02762300  0.85715100  0.64012000  1
  C  1467  1  0.02120800  0.88478100  0.63966300  1
  C  1468  1  0.05014600  0.90240300  0.63518600  1
  C  1469  1  0.08579200  0.89181700  0.63109800  1
  C  1470  1  0.09222200  0.86414700  0.63145900  1
  C  1471  1  0.14334900  0.74909100  0.68046100  1
  C  1472  1  0.12642000  0.75225600  0.69424700  1
  C  1473  1  0.18308800  0.74574200  0.67960400  1
  C  1474  1  0.20547300  0.74577100  0.69225400  1
  C  1475  1  0.18868000  0.74916400  0.70608700  1
  C  1476  1  0.14890100  0.75229500  0.70688500  1
  C  1507  1  0.11562000  0.79950800  0.33151100  1
  C  1508  1  0.10035700  0.81884400  0.34043100  1
  C  1509  1  0.08613900  0.80638000  0.35286100  1
  C  1511  1  0.11014700  0.77472200  0.33810800  1
  C  1512  1  0.12076000  0.74978900  0.33198200  1
  C  1513  1  0.11084500  0.72460900  0.33791500  1
  C  1515  1  0.08640600  0.69339100  0.35257500  1
  C  1516  1  0.10243500  0.68051300  0.34062400  1
  C  1517  1  0.11816300  0.69972900  0.33172800  1
  C  1518  1  0.06847500  0.68093800  0.36458700  1
  C  1519  1  0.05538900  0.69433500  0.37724000  1
  C  1521  1  0.04173000  0.72599400  0.39379400  1
  C  1522  1  0.03346100  0.70116200  0.39988800  1
  C  1523  1  0.04125900  0.68180800  0.38967700  1
  C  1524  1  0.03670000  0.75088200  0.40092300  1
  C  1525  1  0.04240300  0.77607100  0.39427900  1
  C  1527  1  0.05684200  0.80729700  0.37784300  1
  C  1528  1  0.04387300  0.82017300  0.39033800  1
  C  1529  1  0.03569000  0.80092700  0.40057700  1
  C  1530  1  0.06951100  0.81975800  0.36488700  1
  C  1531  1  0.06450600  0.84780800  0.36389300  1
  C  1532  1  0.09249100  0.86552300  0.36913600  1
  C  1533  1  0.08598000  0.89318900  0.36902900  1
  C  1534  1  0.05140400  0.90363600  0.36366700  1
  C  1535  1  0.02370800  0.88581900  0.35833400  1
  C  1536  1  0.03012900  0.85817300  0.35841900  1
  C  1537  1  0.02808200  0.75054700  0.41603100  1
  C  1538  1  0.05776200  0.74663600  0.42610400  1
  C  1539  1  0.05018000  0.74606300  0.44106800  1
  C  1540  1  0.01292200  0.74954500  0.44633000  1
  C  1541  1  0.98313740  0.75345200  0.43626000  1
  C  1542  1  0.99064545  0.75388800  0.42123500  1
  C  1543  1  0.06322600  0.65285000  0.36397000  1
  C  1544  1  0.02754000  0.64235000  0.35994200  1
  C  1545  1  0.02097500  0.61472300  0.36040600  1
  C  1546  1  0.04993600  0.59706100  0.36475000  1
  C  1547  1  0.08574400  0.60760000  0.36871500  1
  C  1548  1  0.09231800  0.63526500  0.36835600  1
  C  1549  1  0.14297400  0.75001500  0.31904600  1
  C  1550  1  0.12607700  0.74676200  0.30526000  1
  C  1551  1  0.18272800  0.75334300  0.31992000  1
  C  1552  1  0.20515500  0.75323000  0.30728300  1
  C  1553  1  0.18839900  0.74975400  0.29344800  1
  C  1554  1  0.14860300  0.74664200  0.29263300  1
  C  1585  1  0.55987500  0.75066700  0.01490200  1
  C  1586  1  0.59011300  0.74606400  0.00501300  1
  C  1587  1  0.58286800  0.74244200  0.98991700  1
  C  1588  1  0.54528100  0.74338400  0.98448400  1
  C  1589  1  0.51541600  0.74829200  0.99433600  1
  C  1590  1  0.52259100  0.75204800  0.00917600  1
  C  1592  1  0.64950500  0.73625000  0.98564400  1
  C  1593  1  0.65653300  0.73986400  0.00056000  1
  C  1598  1  0.68043100  0.73107000  0.97525200  1
  C  1602  1  0.56608000  0.75364900  0.02979300  1
  C  1604  1  0.53590500  0.73871700  0.97011100  1
  C  1606  1  0.48587800  0.25052900  0.98470800  1
  C  1607  1  0.45561400  0.24593700  0.99459900  1
  C  1608  1  0.46283800  0.24225600  0.00969100  1
  C  1609  1  0.50043100  0.24311300  0.01512200  1
  C  1610  1  0.53032800  0.24800000  0.00527500  1
  C  1611  1  0.52317300  0.25182700  0.99044000  1
  C  1613  1  0.39616800  0.23614700  0.01396800  1
  C  1614  1  0.38915100  0.23982400  0.99905800  1
  C  1619  1  0.36521600  0.23097900  0.02436000  1
  C  1623  1  0.47967200  0.25355100  0.96981500  1
  C  1625  1  0.50976800  0.23828200  0.02947800  1
  C  1627  1  0.05755500  0.25019400  0.51489900  1
  C  1628  1  0.08779400  0.24564300  0.50500200  1
  C  1629  1  0.08053800  0.24197200  0.48991100  1
  C  1630  1  0.04293600  0.24281300  0.48448500  1
  C  1631  1  0.01307000  0.24765500  0.49434700  1
  C  1632  1  0.02025100  0.25145700  0.50918100  1
  C  1634  1  0.14720400  0.23593600  0.48562500  1
  C  1635  1  0.15424000  0.23959800  0.50053600  1
  C  1640  1  0.17813500  0.23081200  0.47522800  1
  C  1644  1  0.06378300  0.25324300  0.52978400  1
  C  1646  1  0.03355500  0.23812400  0.47011100  1
  C  1648  1  0.98839740  0.75016000  0.48471900  1
  C  1649  1  0.95812440  0.74556600  0.49460500  1
  C  1650  1  0.96534840  0.74178300  0.50968800  1
  C  1651  1  0.00294700  0.74254300  0.51511600  1
  C  1652  1  0.03285700  0.74743000  0.50527300  1
  C  1653  1  0.02570400  0.75135100  0.49044600  1
  C  1655  1  0.89865400  0.73577200  0.51396200  1
  C  1656  1  0.89164000  0.73954300  0.49905900  1
  C  1661  1  0.86769500  0.73060300  0.52434800  1
  C  1665  1  0.98218440  0.75327600  0.46983400  1
  C  1667  1  0.01226900  0.73765000  0.52946600  1
  C  1669  1  0.50451300  0.97553300  0.86760300  1
  C  1670  1  0.49710400  0.99487600  0.87845600  1
  C  1671  1  0.51567100  0.02005600  0.87808900  1
  C  1672  1  0.54170800  0.02616100  0.86684500  1
  C  1673  1  0.54915200  0.00674100  0.85614300  1
  C  1674  1  0.53071800  0.98189500  0.85648300  1
  C  1676  1  0.48330200  0.03287900  0.89994800  1
  C  1677  1  0.46500600  0.00791200  0.90024300  1
  C  1682  1  0.47649100  0.05324000  0.91117500  1
  C  1686  1  0.48657100  0.95091300  0.86780400  1
  C  1688  1  0.55986200  0.05051800  0.86599800  1
  C  1690  1  0.50494700  0.52463100  0.13193500  1
  C  1691  1  0.49742300  0.50514700  0.12116300  1
  C  1692  1  0.51599200  0.48000700  0.12158900  1
  C  1693  1  0.54214400  0.47408300  0.13281500  1
  C  1694  1  0.54970400  0.49364200  0.14343800  1
  C  1695  1  0.53126600  0.51844800  0.14304000  1
  C  1697  1  0.48337600  0.46685700  0.09983100  1
  C  1698  1  0.46508100  0.49179000  0.09947500  1
  C  1703  1  0.47643600  0.44634700  0.08869000  1
  C  1707  1  0.48696200  0.54920200  0.13169000  1
  C  1709  1  0.56027000  0.44975900  0.13372500  1
  C  1711  1  0.54122100  0.02443500  0.13241400  1
  C  1712  1  0.54822400  0.00497200  0.12158600  1
  C  1713  1  0.52936700  0.97990500  0.12205400  1
  C  1714  1  0.50344900  0.97402500  0.13337500  1
  C  1715  1  0.49642100  0.99356400  0.14405400  1
  C  1716  1  0.51513900  0.01830100  0.14361500  1
  C  1718  1  0.56120600  0.96673800  0.10013900  1
  C  1719  1  0.57979200  0.99159600  0.09974500  1
  C  1724  1  0.56757700  0.94625200  0.08894200  1
  C  1728  1  0.55936700  0.04897700  0.13209500  1
  C  1730  1  0.48499700  0.94978400  0.13430100  1
  C  1732  1  0.54137500  0.47567100  0.86715200  1
  C  1733  1  0.54841600  0.49501800  0.87804400  1
  C  1734  1  0.52952000  0.52003900  0.87768300  1
  C  1735  1  0.50352700  0.52598900  0.86640600  1
  C  1736  1  0.49643500  0.50655200  0.85567000  1
  C  1737  1  0.51519400  0.48185800  0.85600300  1
  C  1739  1  0.56148000  0.53302300  0.89961400  1
  C  1740  1  0.58010300  0.50820900  0.89990200  1
  C  1745  1  0.56788700  0.55338400  0.91088200  1
  C  1749  1  0.55961400  0.45120000  0.86735800  1
  C  1751  1  0.48513500  0.55022700  0.86556700  1
  C  1753  1  0.00485800  0.47506500  0.36787400  1
  C  1754  1  0.99744645  0.49449600  0.37868400  1
  C  1755  1  0.01607600  0.51965500  0.37828500  1
  C  1756  1  0.04219000  0.52567100  0.36705300  1
  C  1757  1  0.04965000  0.50616100  0.35639900  1
  C  1758  1  0.03114800  0.48133800  0.35676800  1
  C  1760  1  0.98361740  0.53265400  0.40009500  1
  C  1761  1  0.96525740  0.50771200  0.40042000  1
  C  1766  1  0.97679640  0.55309300  0.41127900  1
  C  1770  1  0.98677340  0.45047800  0.36808800  1
  C  1772  1  0.06046100  0.54999400  0.36618300  1
  C  1774  1  0.00515600  0.02426200  0.63170300  1
  C  1775  1  0.99765145  0.00470600  0.62096400  1
  C  1776  1  0.01629100  0.97958900  0.62141200  1
  C  1777  1  0.04251600  0.97374200  0.63262600  1
  C  1778  1  0.05007200  0.99337300  0.64320900  1
  C  1779  1  0.03156000  0.01815400  0.64279200  1
  C  1781  1  0.98361440  0.96629300  0.59969200  1
  C  1782  1  0.96523840  0.99119400  0.59931700  1
  C  1787  1  0.97668840  0.94572300  0.58858300  1
  C  1791  1  0.98701840  0.04879400  0.63145900  1
  C  1793  1  0.06077100  0.94945600  0.63354700  1
  C  1795  1  0.04180100  0.52401600  0.63301300  1
  C  1796  1  0.04876100  0.50448600  0.62221700  1
  C  1797  1  0.02986200  0.47943500  0.62272200  1
  C  1798  1  0.00395200  0.47361700  0.63405900  1
  C  1799  1  0.99697545  0.49322800  0.64470600  1
  C  1800  1  0.01571800  0.51795700  0.64422500  1
  C  1802  1  0.06163400  0.46615100  0.60081200  1
  C  1803  1  0.08026600  0.49098900  0.60038500  1
  C  1808  1  0.06794700  0.44561100  0.58963900  1
  C  1812  1  0.05999900  0.54854300  0.63265300  1
  C  1814  1  0.98536840  0.44941300  0.63500500  1
  C  1816  1  0.04194900  0.97526700  0.36651800  1
  C  1817  1  0.04890300  0.99470600  0.37737100  1
  C  1818  1  0.02995600  0.01971000  0.37694600  1
  C  1819  1  0.00400000  0.02556400  0.36563900  1
  C  1820  1  0.99700145  0.00603100  0.35494400  1
  C  1821  1  0.01579700  0.98135000  0.35534300  1
  C  1823  1  0.06177600  0.03286700  0.39887800  1
  C  1824  1  0.08045600  0.00807700  0.39922600  1
  C  1829  1  0.06808000  0.05330800  0.41011200  1
  C  1833  1  0.06025700  0.95081400  0.36678600  1
  C  1835  1  0.98546540  0.04975600  0.36475300  1
  C  1837  1  0.28574600  0.75147600  0.76515800  1
  C  1838  1  0.25329300  0.76673700  0.76142100  1
  C  1839  1  0.23863500  0.76634800  0.74701800  1
  C  1840  1  0.25597000  0.75050900  0.73612100  1
  C  1841  1  0.28841700  0.73551000  0.73996900  1
  C  1842  1  0.30290500  0.73587800  0.75419000  1
  C  1844  1  0.19010200  0.79745100  0.75405500  1
  C  1845  1  0.20468700  0.79765400  0.76827500  1
  C  1850  1  0.15678100  0.81345000  0.74989200  1
  C  1854  1  0.29968900  0.75110200  0.77928800  1
  C  1856  1  0.24339300  0.74978600  0.72180600  1
  C  1858  1  0.28588800  0.74728200  0.23449900  1
  C  1859  1  0.25338700  0.73198100  0.23820000  1
  C  1860  1  0.23861000  0.73236400  0.25258400  1
  C  1861  1  0.25587900  0.74823500  0.26349400  1
  C  1862  1  0.28837500  0.76327300  0.25968700  1
  C  1863  1  0.30297600  0.76291300  0.24548300  1
  C  1865  1  0.19009700  0.70119800  0.24550100  1
  C  1866  1  0.20479500  0.70099700  0.23129800  1
  C  1871  1  0.15671900  0.68516300  0.24962800  1
  C  1875  1  0.29994200  0.74766600  0.22038600  1
  C  1877  1  0.24319400  0.74894500  0.27779200  1
  C  1879  1  0.75982800  0.25116800  0.23448000  1
  C  1880  1  0.79206000  0.26676000  0.23816600  1
  C  1881  1  0.80674900  0.26664900  0.25256600  1
  C  1882  1  0.78966400  0.25076300  0.26351500  1
  C  1883  1  0.75741800  0.23544500  0.25972000  1
  C  1884  1  0.74289900  0.23554100  0.24550000  1
  C  1886  1  0.85481900  0.29810800  0.24542200  1
  C  1887  1  0.84021200  0.29803500  0.23120500  1
  C  1892  1  0.88791600  0.31444800  0.24952500  1
  C  1896  1  0.74589400  0.25052900  0.22035100  1
  C  1898  1  0.80231800  0.25025000  0.27782600  1
  C  1900  1  0.75977400  0.24795900  0.76512900  1
  C  1901  1  0.79204000  0.23238500  0.76153700  1
  C  1902  1  0.80682000  0.23233300  0.74715200  1
  C  1903  1  0.78978600  0.24802400  0.73612400  1
  C  1904  1  0.75751500  0.26333300  0.73982500  1
  C  1905  1  0.74291100  0.26340500  0.75403200  1
  C  1907  1  0.85486700  0.20107800  0.75446500  1
  C  1908  1  0.84016700  0.20130700  0.76866700  1
  C  1913  1  0.88800200  0.18475700  0.75045900  1
  C  1917  1  0.74574300  0.24874900  0.77924100  1
  C  1919  1  0.80254200  0.24837900  0.72182800  1
  N  4  1  0.76622800  0.72084100  0.85116600  1
  N  8  1  0.76694800  0.78105800  0.85058300  1
  N  14  1  0.80620300  0.78022100  0.88010600  1
  N  20  1  0.80577900  0.72009000  0.88061800  1
  N  75  1  0.86341700  0.75182900  0.95962000  1
  N  76  1  0.81719300  0.92959300  0.86465200  1
  N  77  1  0.64773400  0.75048900  0.78205500  1
  N  78  1  0.81706500  0.57175300  0.86512000  1
  N  82  1  0.76618200  0.77900200  0.14857400  1
  N  86  1  0.76702500  0.71881500  0.14901500  1
  N  92  1  0.80471900  0.72003600  0.11922200  1
  N  98  1  0.80439200  0.78012000  0.11885800  1
  N  153  1  0.85183100  0.74854700  0.03898000  1
  N  154  1  0.81758700  0.57060300  0.13474200  1
  N  155  1  0.64799800  0.74851200  0.21765400  1
  N  156  1  0.81682700  0.92824600  0.13468400  1
  N  160  1  0.90363800  0.21958200  0.14840000  1
  N  164  1  0.90300700  0.27983900  0.14918200  1
  N  170  1  0.86349700  0.27926900  0.11972200  1
  N  176  1  0.86435500  0.21909200  0.11890600  1
  N  231  1  0.80708700  0.25149200  0.03999800  1
  N  232  1  0.85261200  0.42834500  0.13439000  1
  N  233  1  0.02233700  0.24957200  0.21757300  1
  N  234  1  0.85334800  0.07040400  0.13513600  1
  N  238  1  0.90368700  0.28053200  0.85107800  1
  N  242  1  0.90307700  0.22028300  0.85050000  1
  N  248  1  0.86503800  0.22114100  0.88021900  1
  N  254  1  0.86565900  0.28129200  0.88082200  1
  N  309  1  0.81853500  0.24893700  0.96061800  1
  N  310  1  0.85224800  0.07193200  0.86548700  1
  N  311  1  0.02217800  0.24979300  0.78197900  1
  N  312  1  0.85360400  0.42971500  0.86435500  1
  N  316  1  0.26540500  0.22048300  0.35089800  1
  N  320  1  0.26618300  0.28071400  0.35042100  1
  N  326  1  0.30476400  0.27968500  0.38006300  1
  N  332  1  0.30442100  0.21954200  0.38044500  1
  N  387  1  0.36121400  0.25110900  0.45960500  1
  N  388  1  0.31710900  0.42909900  0.36480100  1
  N  389  1  0.15008800  0.25068600  0.28106400  1
  N  390  1  0.31718600  0.07138900  0.36447300  1
  N  394  1  0.26534800  0.27857200  0.64878900  1
  N  398  1  0.26619700  0.21837300  0.64918700  1
  N  404  1  0.30320300  0.21967300  0.61927600  1
  N  410  1  0.30303000  0.27977500  0.61898700  1
  N  465  1  0.34957000  0.24817200  0.53899200  1
  N  466  1  0.31734400  0.07025500  0.63465900  1
  N  467  1  0.15033700  0.24811600  0.71863400  1
  N  468  1  0.31699800  0.42777300  0.63520400  1
  N  472  1  0.40481100  0.71929000  0.64862100  1
  N  476  1  0.40412700  0.77958500  0.64928600  1
  N  482  1  0.36523000  0.77881000  0.61972300  1
  N  488  1  0.36604800  0.71859200  0.61904300  1
  N  543  1  0.30953000  0.75080000  0.53999600  1
  N  544  1  0.35326900  0.92796700  0.63421500  1
  N  545  1  0.52010800  0.74979800  0.71854900  1
  N  546  1  0.35406400  0.57003400  0.63564300  1
  N  550  1  0.40482800  0.78001000  0.35087900  1
  N  554  1  0.40418600  0.71973000  0.35039600  1
  N  560  1  0.36681100  0.72075800  0.38022300  1
  N  566  1  0.36737600  0.78094800  0.38071300  1
  N  621  1  0.32102600  0.74869000  0.46062400  1
  N  622  1  0.35299600  0.57148000  0.36566500  1
  N  623  1  0.51987900  0.74906800  0.28100000  1
  N  624  1  0.35434200  0.92926300  0.36383500  1
  N  631  1  0.92518100  0.73763500  0.98102300  1
  N  634  1  0.93907300  0.74450500  0.00955900  1
  N  652  1  0.74497800  0.23746400  0.01858500  1
  N  655  1  0.73110900  0.24445000  0.99005900  1
  N  673  1  0.42286400  0.23722400  0.48101400  1
  N  676  1  0.43677000  0.24418500  0.50954000  1
  N  694  1  0.24747400  0.73699500  0.51857700  1
  N  697  1  0.23361100  0.74416900  0.49006500  1
  N  715  1  0.82005900  0.03775100  0.88888600  1
  N  718  1  0.78485000  0.99005800  0.88959800  1
  N  736  1  0.82025500  0.46216300  0.11087000  1
  N  739  1  0.78504400  0.50978500  0.11004400  1
  N  757  1  0.84905800  0.96209200  0.11127300  1
  N  760  1  0.88481400  0.00956900  0.11037100  1
  N  778  1  0.84925700  0.53774400  0.88852100  1
  N  781  1  0.88508600  0.49034600  0.88921800  1
  N  799  1  0.32044700  0.53742600  0.38904300  1
  N  802  1  0.28511600  0.48978400  0.38981500  1
  N  820  1  0.32056100  0.96168700  0.61072200  1
  N  823  1  0.28520100  0.00925000  0.60985500  1
  N  841  1  0.34949900  0.46157600  0.61195900  1
  N  844  1  0.38533800  0.50901300  0.61099000  1
  N  862  1  0.34959600  0.03748700  0.38775700  1
  N  865  1  0.38552900  0.99013600  0.38857100  1
  N  883  1  0.52008000  0.78184400  0.74411800  1
  N  886  1  0.54769000  0.78248300  0.77134600  1
  N  904  1  0.52000900  0.71683800  0.25545400  1
  N  907  1  0.54784400  0.71620200  0.22826000  1
  N  925  1  0.14956000  0.28244700  0.25541000  1
  N  928  1  0.12189500  0.28256100  0.22818900  1
  N  946  1  0.14966200  0.21656600  0.74439800  1
  N  949  1  0.12182200  0.21675500  0.77159200  1
  N  964  1  0.45399100  0.72084100  0.85116600  1
  N  968  1  0.45471100  0.78105800  0.85058300  1
  N  974  1  0.49396600  0.78022100  0.88010600  1
  N  980  1  0.49354200  0.72009000  0.88061800  1
  N  1035  1  0.55118000  0.75182900  0.95962000  1
  N  1036  1  0.50495600  0.92959300  0.86465200  1
  N  1037  1  0.33549700  0.75048900  0.78205500  1
  N  1038  1  0.50482800  0.57175300  0.86512000  1
  N  1042  1  0.45394500  0.77900200  0.14857400  1
  N  1046  1  0.45478800  0.71881500  0.14901500  1
  N  1052  1  0.49248200  0.72003600  0.11922200  1
  N  1058  1  0.49215500  0.78012000  0.11885800  1
  N  1113  1  0.53959400  0.74854700  0.03898000  1
  N  1114  1  0.50535000  0.57060300  0.13474200  1
  N  1115  1  0.33576100  0.74851200  0.21765400  1
  N  1116  1  0.50459000  0.92824600  0.13468400  1
  N  1120  1  0.59140100  0.21958200  0.14840000  1
  N  1124  1  0.59077000  0.27983900  0.14918200  1
  N  1130  1  0.55126000  0.27926900  0.11972200  1
  N  1136  1  0.55211800  0.21909200  0.11890600  1
  N  1191  1  0.49485000  0.25149200  0.03999800  1
  N  1192  1  0.54037500  0.42834500  0.13439000  1
  N  1193  1  0.71010000  0.24957200  0.21757300  1
  N  1194  1  0.54111100  0.07040400  0.13513600  1
  N  1198  1  0.59145000  0.28053200  0.85107800  1
  N  1202  1  0.59084000  0.22028300  0.85050000  1
  N  1208  1  0.55280100  0.22114100  0.88021900  1
  N  1214  1  0.55342200  0.28129200  0.88082200  1
  N  1269  1  0.50629800  0.24893700  0.96061800  1
  N  1270  1  0.54001100  0.07193200  0.86548700  1
  N  1271  1  0.70994100  0.24979300  0.78197900  1
  N  1272  1  0.54136700  0.42971500  0.86435500  1
  N  1276  1  0.95316840  0.22048300  0.35089800  1
  N  1280  1  0.95394640  0.28071400  0.35042100  1
  N  1286  1  0.99252745  0.27968500  0.38006300  1
  N  1292  1  0.99218445  0.21954200  0.38044500  1
  N  1347  1  0.04897700  0.25110900  0.45960500  1
  N  1348  1  0.00487200  0.42909900  0.36480100  1
  N  1349  1  0.83785100  0.25068600  0.28106400  1
  N  1350  1  0.00494900  0.07138900  0.36447300  1
  N  1354  1  0.95311140  0.27857200  0.64878900  1
  N  1358  1  0.95396040  0.21837300  0.64918700  1
  N  1364  1  0.99096645  0.21967300  0.61927600  1
  N  1370  1  0.99079345  0.27977500  0.61898700  1
  N  1425  1  0.03733300  0.24817200  0.53899200  1
  N  1426  1  0.00510700  0.07025500  0.63465900  1
  N  1427  1  0.83810000  0.24811600  0.71863400  1
  N  1428  1  0.00476100  0.42777300  0.63520400  1
  N  1432  1  0.09257400  0.71929000  0.64862100  1
  N  1436  1  0.09189000  0.77958500  0.64928600  1
  N  1442  1  0.05299300  0.77881000  0.61972300  1
  N  1448  1  0.05381100  0.71859200  0.61904300  1
  N  1503  1  0.99729345  0.75080000  0.53999600  1
  N  1504  1  0.04103200  0.92796700  0.63421500  1
  N  1505  1  0.20787100  0.74979800  0.71854900  1
  N  1506  1  0.04182700  0.57003400  0.63564300  1
  N  1510  1  0.09259100  0.78001000  0.35087900  1
  N  1514  1  0.09194900  0.71973000  0.35039600  1
  N  1520  1  0.05457400  0.72075800  0.38022300  1
  N  1526  1  0.05513900  0.78094800  0.38071300  1
  N  1581  1  0.00878900  0.74869000  0.46062400  1
  N  1582  1  0.04075900  0.57148000  0.36566500  1
  N  1583  1  0.20764200  0.74906800  0.28100000  1
  N  1584  1  0.04210500  0.92926300  0.36383500  1
  N  1591  1  0.61294400  0.73763500  0.98102300  1
  N  1594  1  0.62683600  0.74450500  0.00955900  1
  N  1612  1  0.43274100  0.23746400  0.01858500  1
  N  1615  1  0.41887200  0.24445000  0.99005900  1
  N  1633  1  0.11062700  0.23722400  0.48101400  1
  N  1636  1  0.12453300  0.24418500  0.50954000  1
  N  1654  1  0.93523740  0.73699500  0.51857700  1
  N  1657  1  0.92137440  0.74416900  0.49006500  1
  N  1675  1  0.50782200  0.03775100  0.88888600  1
  N  1678  1  0.47261300  0.99005800  0.88959800  1
  N  1696  1  0.50801800  0.46216300  0.11087000  1
  N  1699  1  0.47280700  0.50978500  0.11004400  1
  N  1717  1  0.53682100  0.96209200  0.11127300  1
  N  1720  1  0.57257700  0.00956900  0.11037100  1
  N  1738  1  0.53702000  0.53774400  0.88852100  1
  N  1741  1  0.57284900  0.49034600  0.88921800  1
  N  1759  1  0.00821000  0.53742600  0.38904300  1
  N  1762  1  0.97287940  0.48978400  0.38981500  1
  N  1780  1  0.00832400  0.96168700  0.61072200  1
  N  1783  1  0.97296440  0.00925000  0.60985500  1
  N  1801  1  0.03726200  0.46157600  0.61195900  1
  N  1804  1  0.07310100  0.50901300  0.61099000  1
  N  1822  1  0.03735900  0.03748700  0.38775700  1
  N  1825  1  0.07329200  0.99013600  0.38857100  1
  N  1843  1  0.20784300  0.78184400  0.74411800  1
  N  1846  1  0.23545300  0.78248300  0.77134600  1
  N  1864  1  0.20777200  0.71683800  0.25545400  1
  N  1867  1  0.23560700  0.71620200  0.22826000  1
  N  1885  1  0.83732300  0.28244700  0.25541000  1
  N  1888  1  0.80965800  0.28256100  0.22818900  1
  N  1906  1  0.83742500  0.21656600  0.74439800  1
  N  1909  1  0.80958500  0.21675500  0.77159200  1
