# generated using pymatgen
data_H26C43(N3O)2
_symmetry_space_group_name_H-M   'P 1'
_cell_length_a   53.49250000
_cell_length_b   53.49210000
_cell_length_c   53.49200000
_cell_angle_alpha   90.00050000
_cell_angle_beta   90.00030000
_cell_angle_gamma   89.99900000
_symmetry_Int_Tables_number   1
_chemical_formula_structural   H26C43(N3O)2
_chemical_formula_sum   'H624 C1032 N144 O48'
_cell_volume   153063.40807936
_cell_formula_units_Z   24
loop_
 _symmetry_equiv_pos_site_id
 _symmetry_equiv_pos_as_xyz
  1  'x, y, z'
loop_
 _atom_site_type_symbol
 _atom_site_label
 _atom_site_symmetry_multiplicity
 _atom_site_fract_x
 _atom_site_fract_y
 _atom_site_fract_z
 _atom_site_occupancy
  H  26  1  0.04373200  0.21427900  0.54920000  1
  H  27  1  0.01127300  0.24397200  0.55536000  1
  H  28  1  0.03679000  0.22343900  0.47115700  1
  H  29  1  0.00439700  0.25270200  0.47738600  1
  H  30  1  0.95620100  0.24397400  0.48756300  1
  H  31  1  0.92373800  0.21428600  0.49372100  1
  H  32  1  0.93067200  0.22345100  0.57176400  1
  H  33  1  0.96306900  0.25270900  0.56553700  1
  H  34  1  0.94985400  0.29946100  0.54902100  1
  H  35  1  0.95603300  0.32914400  0.58148400  1
  H  36  1  0.03407300  0.31998700  0.57449400  1
  H  37  1  0.02782300  0.29073400  0.54209800  1
  H  38  1  0.01761900  0.29945500  0.49389300  1
  H  39  1  0.93965000  0.29073500  0.50081700  1
  H  40  1  0.93340200  0.31998500  0.46841800  1
  H  41  1  0.01144300  0.32913400  0.46142600  1
  H  44  1  0.89798300  0.19730700  0.55549700  1
  H  45  1  0.06947100  0.19728300  0.48742300  1
  H  47  1  0.01786900  0.34634100  0.60701500  1
  H  49  1  0.94960800  0.34633100  0.43589200  1
  H  75  1  0.92367500  0.82858000  0.54921500  1
  H  76  1  0.95611100  0.79886400  0.55537500  1
  H  77  1  0.93081300  0.81963000  0.47116400  1
  H  78  1  0.96318000  0.79033900  0.47740100  1
  H  79  1  0.01135900  0.79886400  0.48754800  1
  H  80  1  0.04379300  0.82858100  0.49370600  1
  H  81  1  0.03666200  0.81963000  0.57175700  1
  H  82  1  0.00429600  0.79033600  0.56552200  1
  H  83  1  0.01763500  0.74355900  0.54910900  1
  H  84  1  0.01145800  0.71384600  0.58154200  1
  H  85  1  0.93341300  0.72278600  0.57435600  1
  H  86  1  0.93966600  0.75207500  0.54199000  1
  H  87  1  0.94984000  0.74356200  0.49380500  1
  H  88  1  0.02780800  0.75207500  0.50092400  1
  H  89  1  0.03406100  0.72278800  0.46855800  1
  H  90  1  0.95601600  0.71385300  0.46136800  1
  H  93  1  0.06938200  0.84574300  0.55550200  1
  H  94  1  0.89810000  0.84575600  0.48741500  1
  H  96  1  0.94960200  0.69644200  0.60688900  1
  H  98  1  0.01787100  0.69646100  0.43600800  1
  H  124  1  0.79084500  0.54921500  0.96138600  1
  H  125  1  0.76112100  0.55537600  0.99381300  1
  H  126  1  0.78191300  0.47116500  0.96854200  1
  H  127  1  0.75261300  0.47740200  0.00090200  1
  H  128  1  0.76112500  0.48755400  0.04907600  1
  H  129  1  0.79084400  0.49371500  0.08150700  1
  H  130  1  0.78189900  0.57176400  0.07436100  1
  H  131  1  0.75260300  0.56552600  0.04199800  1
  H  132  1  0.70582600  0.54911900  0.05534300  1
  H  133  1  0.67611900  0.58155400  0.04916300  1
  H  134  1  0.68504900  0.57435000  0.97111600  1
  H  135  1  0.71433300  0.54198200  0.97737300  1
  H  136  1  0.70583300  0.49379700  0.98754900  1
  H  137  1  0.71433200  0.50094000  0.06551900  1
  H  138  1  0.68504800  0.46857300  0.07177600  1
  H  139  1  0.67612400  0.46136100  0.99372900  1
  H  142  1  0.80802000  0.55551300  0.10707900  1
  H  143  1  0.80804300  0.48741300  0.93583200  1
  H  145  1  0.65872300  0.60690500  0.98730400  1
  H  147  1  0.65871900  0.43602400  0.05559100  1
  H  173  1  0.17671400  0.54922600  0.08161800  1
  H  174  1  0.20643600  0.55538800  0.04919000  1
  H  175  1  0.18546900  0.47117100  0.07429000  1
  H  176  1  0.21477200  0.47741200  0.04193400  1
  H  177  1  0.20643500  0.48752500  0.99376300  1
  H  178  1  0.17672300  0.49368900  0.96132400  1
  H  179  1  0.18548100  0.57174300  0.96864700  1
  H  180  1  0.21477700  0.56550500  0.00101200  1
  H  181  1  0.26155300  0.54920200  0.98755000  1
  H  182  1  0.29125300  0.58164800  0.99373300  1
  H  183  1  0.28251100  0.57427200  0.07178500  1
  H  184  1  0.25323000  0.54190200  0.06552800  1
  H  185  1  0.26156200  0.49371300  0.05539400  1
  H  186  1  0.25322300  0.50102500  0.97742000  1
  H  187  1  0.28250800  0.46865700  0.97115400  1
  H  188  1  0.29126500  0.46127400  0.04920400  1
  H  191  1  0.15946200  0.55549200  0.93583800  1
  H  192  1  0.15940000  0.48741100  0.10705900  1
  H  194  1  0.30875200  0.60689900  0.05559800  1
  H  196  1  0.30875600  0.43603100  0.98733200  1
  H  222  1  0.45597100  0.96136200  0.21439900  1
  H  223  1  0.44981500  0.99380400  0.24411000  1
  H  224  1  0.53402500  0.96856900  0.22326000  1
  H  225  1  0.52779300  0.00094000  0.25255000  1
  H  226  1  0.51766400  0.04913400  0.24411900  1
  H  227  1  0.51150600  0.08158300  0.21441700  1
  H  228  1  0.43345200  0.07435500  0.22326200  1
  H  229  1  0.43968500  0.04197700  0.25254500  1
  H  230  1  0.45602800  0.05537400  0.29932200  1
  H  231  1  0.42358400  0.04918800  0.32902100  1
  H  232  1  0.43087900  0.97114000  0.32017500  1
  H  233  1  0.46325100  0.97740200  0.29089800  1
  H  234  1  0.51143400  0.98754900  0.29932700  1
  H  235  1  0.50421000  0.06552200  0.29090400  1
  H  236  1  0.53657900  0.07178300  0.32018600  1
  H  237  1  0.54387200  0.99373400  0.32903300  1
  H  240  1  0.44971000  0.10714000  0.19722400  1
  H  241  1  0.51776700  0.93581300  0.19718700  1
  H  243  1  0.39829300  0.98732100  0.34646500  1
  H  245  1  0.56916400  0.05560000  0.34648000  1
  H  271  1  0.45598400  0.08154200  0.82856000  1
  H  272  1  0.44982600  0.04909500  0.79885700  1
  H  273  1  0.53403400  0.07443400  0.81958500  1
  H  274  1  0.52780300  0.04205600  0.79030400  1
  H  275  1  0.51765400  0.99386400  0.79886200  1
  H  276  1  0.51149400  0.96142000  0.82856900  1
  H  277  1  0.43344400  0.96853700  0.81959800  1
  H  278  1  0.43967800  0.00091100  0.79031500  1
  H  279  1  0.45608400  0.98757400  0.74354200  1
  H  280  1  0.42363700  0.99375300  0.71384400  1
  H  281  1  0.43081000  0.07180000  0.72280600  1
  H  282  1  0.46318800  0.06554500  0.75207800  1
  H  283  1  0.51137400  0.05537700  0.74353800  1
  H  284  1  0.50428700  0.97740300  0.75209100  1
  H  285  1  0.53668100  0.97115100  0.72283200  1
  H  286  1  0.54383700  0.04919700  0.71385500  1
  H  289  1  0.44970100  0.93581400  0.84570800  1
  H  290  1  0.51777400  0.10715800  0.84569400  1
  H  292  1  0.39826700  0.05561100  0.69647100  1
  H  294  1  0.56927200  0.98735100  0.69655700  1
  H  320  1  0.78769000  0.95789800  0.49385000  1
  H  321  1  0.75767700  0.98993900  0.48749000  1
  H  322  1  0.78716200  0.97313300  0.57125400  1
  H  323  1  0.75725100  0.00503900  0.56479000  1
  H  324  1  0.75767300  0.05300900  0.55545200  1
  H  325  1  0.78768700  0.08505000  0.54908800  1
  H  326  1  0.78716700  0.06979800  0.47168800  1
  H  327  1  0.75725600  0.03789400  0.47815600  1
  H  328  1  0.71033200  0.05542200  0.48987700  1
  H  329  1  0.68014600  0.04903400  0.45800900  1
  H  330  1  0.68065100  0.97166400  0.47342100  1
  H  331  1  0.71073200  0.97815700  0.50514100  1
  H  332  1  0.71033600  0.98751900  0.55303600  1
  H  333  1  0.71072800  0.06479300  0.53779300  1
  H  334  1  0.68065700  0.07127600  0.56952900  1
  H  335  1  0.68016200  0.99390000  0.58491400  1
  H  338  1  0.80990300  0.10582800  0.48740200  1
  H  339  1  0.80991400  0.93711600  0.55553400  1
  H  341  1  0.65728900  0.98727000  0.43789400  1
  H  343  1  0.65731800  0.05565600  0.60506700  1
  H  369  1  0.17966100  0.08491300  0.49382400  1
  H  370  1  0.20966900  0.05286500  0.48747500  1
  H  371  1  0.18044100  0.06993200  0.57127500  1
  H  372  1  0.21034200  0.03801700  0.56482000  1
  H  373  1  0.20967700  0.99005500  0.55545000  1
  H  374  1  0.17967600  0.95799900  0.54909800  1
  H  375  1  0.18045000  0.97298500  0.47164700  1
  H  376  1  0.21034400  0.00490700  0.47810200  1
  H  377  1  0.25725500  0.98750200  0.49000800  1
  H  378  1  0.28742700  0.99387400  0.45812500  1
  H  379  1  0.28667400  0.07129900  0.47326200  1
  H  380  1  0.25661000  0.06482300  0.50500300  1
  H  381  1  0.25725700  0.05542100  0.55290900  1
  H  382  1  0.25661400  0.97810100  0.53790900  1
  H  383  1  0.28668000  0.97162300  0.56964800  1
  H  384  1  0.28743200  0.04904700  0.58478900  1
  H  387  1  0.15761800  0.93704600  0.48740600  1
  H  388  1  0.15758100  0.10585100  0.55551900  1
  H  390  1  0.31014100  0.05564500  0.43783800  1
  H  392  1  0.31015100  0.98727600  0.60507000  1
  H  418  1  0.45611400  0.21745900  0.08499600  1
  H  419  1  0.44975300  0.24746200  0.05294300  1
  H  420  1  0.53354000  0.21811600  0.06987500  1
  H  421  1  0.52707400  0.24801400  0.03795700  1
  H  422  1  0.51772000  0.24745800  0.98999700  1
  H  423  1  0.51136000  0.21745300  0.95794800  1
  H  424  1  0.43393500  0.21811400  0.97305700  1
  H  425  1  0.44039700  0.24801400  0.00497400  1
  H  426  1  0.45223100  0.29492600  0.98751100  1
  H  427  1  0.42034400  0.32509300  0.99388600  1
  H  428  1  0.43559800  0.32446100  0.07128900  1
  H  429  1  0.46734000  0.29439900  0.06481000  1
  H  430  1  0.51524600  0.29492800  0.05542100  1
  H  431  1  0.50013500  0.29439600  0.97812300  1
  H  432  1  0.53187200  0.32446100  0.97164100  1
  H  433  1  0.54712700  0.32510000  0.04904300  1
  H  436  1  0.44967100  0.19531600  0.93708300  1
  H  437  1  0.51780700  0.19532600  0.10585700  1
  H  439  1  0.40010100  0.34784600  0.05564900  1
  H  441  1  0.56735400  0.34786400  0.98727900  1
  H  467  1  0.45611000  0.82547900  0.95792400  1
  H  468  1  0.44974800  0.79546200  0.98995800  1
  H  469  1  0.53352400  0.82486100  0.97308800  1
  H  470  1  0.52705600  0.79494600  0.00498700  1
  H  471  1  0.51770400  0.79546400  0.05293900  1
  H  472  1  0.51134500  0.82548000  0.08497500  1
  H  473  1  0.43392600  0.82485800  0.06982100  1
  H  474  1  0.44039400  0.79494300  0.03792000  1
  H  475  1  0.45220500  0.74801300  0.05539700  1
  H  476  1  0.42034900  0.71781600  0.04902100  1
  H  477  1  0.43565300  0.71841300  0.97163000  1
  H  478  1  0.46736400  0.74850300  0.97811500  1
  H  479  1  0.51525800  0.74801400  0.98750600  1
  H  480  1  0.50009600  0.74850400  0.06478700  1
  H  481  1  0.53180400  0.71841100  0.07127200  1
  H  482  1  0.54711200  0.71781300  0.99388200  1
  H  485  1  0.44965200  0.84765200  0.10580300  1
  H  486  1  0.51780200  0.84764500  0.93709600  1
  H  488  1  0.40018400  0.69499000  0.98725500  1
  H  490  1  0.56726300  0.69497100  0.05565100  1
  H  516  1  0.04725500  0.54908300  0.82549600  1
  H  517  1  0.01522200  0.55544300  0.79547700  1
  H  518  1  0.03213000  0.47166100  0.82483600  1
  H  519  1  0.00023300  0.47812900  0.79492000  1
  H  520  1  0.95228600  0.48748600  0.79548000  1
  H  521  1  0.92025000  0.49384300  0.82549600  1
  H  522  1  0.93535700  0.57126900  0.82482900  1
  H  523  1  0.96725900  0.56480400  0.79491600  1
  H  524  1  0.94980400  0.55297200  0.74798400  1
  H  525  1  0.95618100  0.58482100  0.71778300  1
  H  526  1  0.03357400  0.56954900  0.71842000  1
  H  527  1  0.02709100  0.53784200  0.74851400  1
  H  528  1  0.01769200  0.48994900  0.74798700  1
  H  529  1  0.94040700  0.50508300  0.74851800  1
  H  530  1  0.93392000  0.47337500  0.71842400  1
  H  531  1  0.01131300  0.45809700  0.71778600  1
  H  534  1  0.89939200  0.55553700  0.84764000  1
  H  535  1  0.06810300  0.48738800  0.84764100  1
  H  537  1  0.01794900  0.60499000  0.69496200  1
  H  539  1  0.94954200  0.43793600  0.69496200  1
  H  565  1  0.92007800  0.54907000  0.21757100  1
  H  566  1  0.95210800  0.55543500  0.24759400  1
  H  567  1  0.93548700  0.47170100  0.21792800  1
  H  568  1  0.96737900  0.47817300  0.24785000  1
  H  569  1  0.01534700  0.48747900  0.24759400  1
  H  570  1  0.04738100  0.49385100  0.21757900  1
  H  571  1  0.03196400  0.57122000  0.21794100  1
  H  572  1  0.00006600  0.56474300  0.24785800  1
  H  573  1  0.01767300  0.55312100  0.29478100  1
  H  574  1  0.01128500  0.58498400  0.32497000  1
  H  575  1  0.93394600  0.56941800  0.32463600  1
  H  576  1  0.94044000  0.53770200  0.29454700  1
  H  577  1  0.94978000  0.48979000  0.29478100  1
  H  578  1  0.02701200  0.50521800  0.29454700  1
  H  579  1  0.03350900  0.47350700  0.32463800  1
  H  580  1  0.95617200  0.45793300  0.32497400  1
  H  583  1  0.06804700  0.55553400  0.19526100  1
  H  584  1  0.89939100  0.48739200  0.19526300  1
  H  586  1  0.94953400  0.60501000  0.34792300  1
  H  588  1  0.01792500  0.43792400  0.34793800  1
  H  595  1  0.94620400  0.37003100  0.39962100  1
  H  596  1  0.94716500  0.40208300  0.36854500  1
  H  600  1  0.05663900  0.41406700  0.41732300  1
  H  609  1  0.02124700  0.67288300  0.39963600  1
  H  610  1  0.02028800  0.64084100  0.36855100  1
  H  614  1  0.91078100  0.62889300  0.41726600  1
  H  623  1  0.94622800  0.67286500  0.64326700  1
  H  624  1  0.94718800  0.64081600  0.67434400  1
  H  628  1  0.05671300  0.62891300  0.62565300  1
  H  637  1  0.02127300  0.37005700  0.64327800  1
  H  638  1  0.02030900  0.40210700  0.67435400  1
  H  642  1  0.91078500  0.41399900  0.62565500  1
  H  651  1  0.63514900  0.39965100  0.05897900  1
  H  652  1  0.60309800  0.36857600  0.05803500  1
  H  656  1  0.59113200  0.41727200  0.94852000  1
  H  665  1  0.33232800  0.39965500  0.98394200  1
  H  666  1  0.36437000  0.36857000  0.98489200  1
  H  670  1  0.37628500  0.41721400  0.09443700  1
  H  679  1  0.33233100  0.64327400  0.05897600  1
  H  680  1  0.36438200  0.67434900  0.05801900  1
  H  684  1  0.37627400  0.62567700  0.94848300  1
  H  693  1  0.63512600  0.64326600  0.98392400  1
  H  694  1  0.60307400  0.67434200  0.98488300  1
  H  698  1  0.59119200  0.62567100  0.09442100  1
  H  707  1  0.60554100  0.05898300  0.37005200  1
  H  708  1  0.63661600  0.05803300  0.40210300  1
  H  712  1  0.58791800  0.94851800  0.41404900  1
  H  721  1  0.60556300  0.98394800  0.67288600  1
  H  722  1  0.63665100  0.98490400  0.64084800  1
  H  726  1  0.58793000  0.09440800  0.62887600  1
  H  735  1  0.36192300  0.05900100  0.67286000  1
  H  736  1  0.33084200  0.05804300  0.64081200  1
  H  740  1  0.37949200  0.94849400  0.62893800  1
  H  749  1  0.36193600  0.98392900  0.37006300  1
  H  750  1  0.33086100  0.98487700  0.40211500  1
  H  754  1  0.37946400  0.09444800  0.41396700  1
  H  763  1  0.44710800  0.86905100  0.90216600  1
  H  764  1  0.44614300  0.89997300  0.86997200  1
  H  768  1  0.55683600  0.91682100  0.91419200  1
  H  777  1  0.52037100  0.17389100  0.90218600  1
  H  778  1  0.52133500  0.14298100  0.86998100  1
  H  782  1  0.41055900  0.12626200  0.91405000  1
  H  791  1  0.44711700  0.17389900  0.14076400  1
  H  792  1  0.44615300  0.14297500  0.17295500  1
  H  796  1  0.55690600  0.12623600  0.12884000  1
  H  805  1  0.52034400  0.86903600  0.14074600  1
  H  806  1  0.52131300  0.89995900  0.17294000  1
  H  810  1  0.41056800  0.91673300  0.12881400  1
  H  819  1  0.13616000  0.90217600  0.55809700  1
  H  820  1  0.10523800  0.86998500  0.55905800  1
  H  824  1  0.08841600  0.91419100  0.44835500  1
  H  833  1  0.83131600  0.90219000  0.48483600  1
  H  834  1  0.86222900  0.86998800  0.48387100  1
  H  838  1  0.87896600  0.91408300  0.59463500  1
  H  847  1  0.83129600  0.14076300  0.55809900  1
  H  848  1  0.86221700  0.17295400  0.55907100  1
  H  852  1  0.87898600  0.12883600  0.44832000  1
  H  861  1  0.13617400  0.14075500  0.48482400  1
  H  862  1  0.10524700  0.17294300  0.48385000  1
  H  866  1  0.08847300  0.12881800  0.59459600  1
  H  875  1  0.10303900  0.55807800  0.86904500  1
  H  876  1  0.13523200  0.55904200  0.89996700  1
  H  880  1  0.09100600  0.44835200  0.91681800  1
  H  889  1  0.10302200  0.48484100  0.17388900  1
  H  890  1  0.13523000  0.48388300  0.14298200  1
  H  894  1  0.09111600  0.59463800  0.12623400  1
  H  903  1  0.86443700  0.55808900  0.17387800  1
  H  904  1  0.83224400  0.55905500  0.14295600  1
  H  908  1  0.87636500  0.44830400  0.12620000  1
  H  917  1  0.86447300  0.48483700  0.86904300  1
  H  918  1  0.83227800  0.48386800  0.89996300  1
  H  922  1  0.87636900  0.59463100  0.91670800  1
  H  950  1  0.85679000  0.40122200  0.73614400  1
  H  951  1  0.82433100  0.43091500  0.74230400  1
  H  952  1  0.84984800  0.41038200  0.65810100  1
  H  953  1  0.81745500  0.43964500  0.66433000  1
  H  954  1  0.76925900  0.43091700  0.67450700  1
  H  955  1  0.73679600  0.40122900  0.68066500  1
  H  956  1  0.74373000  0.41039400  0.75870800  1
  H  957  1  0.77612700  0.43965200  0.75248100  1
  H  958  1  0.76291200  0.48640400  0.73596500  1
  H  959  1  0.76909100  0.51608700  0.76842800  1
  H  960  1  0.84713100  0.50693000  0.76143800  1
  H  961  1  0.84088100  0.47767700  0.72904200  1
  H  962  1  0.83067700  0.48639800  0.68083700  1
  H  963  1  0.75270800  0.47767800  0.68776100  1
  H  964  1  0.74646000  0.50692800  0.65536200  1
  H  965  1  0.82450100  0.51607700  0.64837000  1
  H  968  1  0.71104100  0.38425000  0.74244100  1
  H  969  1  0.88252900  0.38422600  0.67436700  1
  H  971  1  0.83092700  0.53328400  0.79395900  1
  H  973  1  0.76266600  0.53327400  0.62283600  1
  H  999  1  0.73673300  0.01552350  0.73615900  1
  H  1000  1  0.76916900  0.98580700  0.74231900  1
  H  1001  1  0.74387100  0.00657349  0.65810800  1
  H  1002  1  0.77623800  0.97728200  0.66434500  1
  H  1003  1  0.82441700  0.98580700  0.67449200  1
  H  1004  1  0.85685100  0.01552450  0.68065000  1
  H  1005  1  0.84972000  0.00657349  0.75870100  1
  H  1006  1  0.81735400  0.97727900  0.75246600  1
  H  1007  1  0.83069300  0.93050200  0.73605300  1
  H  1008  1  0.82451600  0.90078900  0.76848600  1
  H  1009  1  0.74647100  0.90972900  0.76130000  1
  H  1010  1  0.75272400  0.93901800  0.72893400  1
  H  1011  1  0.76289800  0.93050500  0.68074900  1
  H  1012  1  0.84086600  0.93901800  0.68786800  1
  H  1013  1  0.84711900  0.90973100  0.65550200  1
  H  1014  1  0.76907400  0.90079600  0.64831200  1
  H  1017  1  0.88244000  0.03268650  0.74244600  1
  H  1018  1  0.71115800  0.03269950  0.67435900  1
  H  1020  1  0.76266000  0.88338500  0.79383300  1
  H  1022  1  0.83092900  0.88340400  0.62295200  1
  H  1048  1  0.60390300  0.73615800  0.14833000  1
  H  1049  1  0.57417900  0.74231900  0.18075700  1
  H  1050  1  0.59497100  0.65810800  0.15548600  1
  H  1051  1  0.56567100  0.66434500  0.18784600  1
  H  1052  1  0.57418300  0.67449700  0.23602000  1
  H  1053  1  0.60390200  0.68065800  0.26845100  1
  H  1054  1  0.59495700  0.75870700  0.26130500  1
  H  1055  1  0.56566100  0.75246900  0.22894200  1
  H  1056  1  0.51888400  0.73606200  0.24228700  1
  H  1057  1  0.48917700  0.76849700  0.23610700  1
  H  1058  1  0.49810700  0.76129300  0.15806000  1
  H  1059  1  0.52739100  0.72892500  0.16431700  1
  H  1060  1  0.51889100  0.68074000  0.17449300  1
  H  1061  1  0.52739000  0.68788300  0.25246300  1
  H  1062  1  0.49810600  0.65551600  0.25872000  1
  H  1063  1  0.48918200  0.64830400  0.18067300  1
  H  1066  1  0.62107800  0.74245600  0.29402300  1
  H  1067  1  0.62110100  0.67435600  0.12277600  1
  H  1069  1  0.47178100  0.79384800  0.17424800  1
  H  1071  1  0.47177700  0.62296700  0.24253500  1
  H  1097  1  0.98977190  0.73616900  0.26856200  1
  H  1098  1  0.01949400  0.74233100  0.23613400  1
  H  1099  1  0.99852691  0.65811400  0.26123400  1
  H  1100  1  0.02783000  0.66435500  0.22887800  1
  H  1101  1  0.01949300  0.67446800  0.18070700  1
  H  1102  1  0.98978090  0.68063200  0.14826800  1
  H  1103  1  0.99853891  0.75868600  0.15559100  1
  H  1104  1  0.02783500  0.75244800  0.18795600  1
  H  1105  1  0.07461100  0.73614500  0.17449400  1
  H  1106  1  0.10431100  0.76859100  0.18067700  1
  H  1107  1  0.09556900  0.76121500  0.25872900  1
  H  1108  1  0.06628800  0.72884500  0.25247200  1
  H  1109  1  0.07462000  0.68065600  0.24233800  1
  H  1110  1  0.06628100  0.68796800  0.16436400  1
  H  1111  1  0.09556600  0.65560000  0.15809800  1
  H  1112  1  0.10432300  0.64821700  0.23614800  1
  H  1115  1  0.97251990  0.74243500  0.12278200  1
  H  1116  1  0.97245790  0.67435400  0.29400300  1
  H  1118  1  0.12181000  0.79384200  0.24254200  1
  H  1120  1  0.12181400  0.62297400  0.17427600  1
  H  1146  1  0.26902900  0.14830500  0.40134300  1
  H  1147  1  0.26287300  0.18074700  0.43105400  1
  H  1148  1  0.34708300  0.15551200  0.41020400  1
  H  1149  1  0.34085100  0.18788300  0.43949400  1
  H  1150  1  0.33072200  0.23607700  0.43106300  1
  H  1151  1  0.32456400  0.26852600  0.40136100  1
  H  1152  1  0.24651000  0.26129800  0.41020600  1
  H  1153  1  0.25274300  0.22892000  0.43948900  1
  H  1154  1  0.26908600  0.24231700  0.48626600  1
  H  1155  1  0.23664200  0.23613100  0.51596500  1
  H  1156  1  0.24393700  0.15808300  0.50711900  1
  H  1157  1  0.27630900  0.16434500  0.47784200  1
  H  1158  1  0.32449200  0.17449200  0.48627100  1
  H  1159  1  0.31726800  0.25246500  0.47784800  1
  H  1160  1  0.34963700  0.25872600  0.50713000  1
  H  1161  1  0.35693000  0.18067700  0.51597700  1
  H  1164  1  0.26276800  0.29408300  0.38416800  1
  H  1165  1  0.33082500  0.12275600  0.38413100  1
  H  1167  1  0.21135100  0.17426400  0.53340900  1
  H  1169  1  0.38222200  0.24254300  0.53342400  1
  H  1195  1  0.26904200  0.26848500  0.01550380  1
  H  1196  1  0.26288400  0.23603800  0.98580100  1
  H  1197  1  0.34709200  0.26137700  0.00652884  1
  H  1198  1  0.34086100  0.22899900  0.97724800  1
  H  1199  1  0.33071200  0.18080700  0.98580600  1
  H  1200  1  0.32455200  0.14836300  0.01551280  1
  H  1201  1  0.24650200  0.15548000  0.00654184  1
  H  1202  1  0.25273600  0.18785400  0.97725900  1
  H  1203  1  0.26914200  0.17451700  0.93048600  1
  H  1204  1  0.23669500  0.18069600  0.90078800  1
  H  1205  1  0.24386800  0.25874300  0.90975000  1
  H  1206  1  0.27624600  0.25248800  0.93902200  1
  H  1207  1  0.32443200  0.24232000  0.93048200  1
  H  1208  1  0.31734500  0.16434600  0.93903500  1
  H  1209  1  0.34973900  0.15809400  0.90977600  1
  H  1210  1  0.35689500  0.23614000  0.90079900  1
  H  1213  1  0.26275900  0.12275700  0.03265180  1
  H  1214  1  0.33083200  0.29410100  0.03263780  1
  H  1216  1  0.21132500  0.24255400  0.88341500  1
  H  1218  1  0.38233000  0.17429400  0.88350100  1
  H  1244  1  0.60074800  0.14484100  0.68079400  1
  H  1245  1  0.57073500  0.17688200  0.67443400  1
  H  1246  1  0.60022000  0.16007600  0.75819800  1
  H  1247  1  0.57030900  0.19198200  0.75173400  1
  H  1248  1  0.57073100  0.23995200  0.74239600  1
  H  1249  1  0.60074500  0.27199300  0.73603200  1
  H  1250  1  0.60022500  0.25674100  0.65863200  1
  H  1251  1  0.57031400  0.22483700  0.66510000  1
  H  1252  1  0.52339000  0.24236500  0.67682100  1
  H  1253  1  0.49320400  0.23597700  0.64495300  1
  H  1254  1  0.49370900  0.15860700  0.66036500  1
  H  1255  1  0.52379000  0.16510000  0.69208500  1
  H  1256  1  0.52339400  0.17446200  0.73998000  1
  H  1257  1  0.52378600  0.25173600  0.72473700  1
  H  1258  1  0.49371500  0.25821900  0.75647300  1
  H  1259  1  0.49322000  0.18084300  0.77185800  1
  H  1262  1  0.62296100  0.29277100  0.67434600  1
  H  1263  1  0.62297200  0.12405900  0.74247800  1
  H  1265  1  0.47034700  0.17421300  0.62483800  1
  H  1267  1  0.47037600  0.24259900  0.79201100  1
  H  1293  1  0.99271891  0.27185600  0.68076800  1
  H  1294  1  0.02272700  0.23980800  0.67441900  1
  H  1295  1  0.99349891  0.25687500  0.75821900  1
  H  1296  1  0.02340000  0.22496000  0.75176400  1
  H  1297  1  0.02273500  0.17699800  0.74239400  1
  H  1298  1  0.99273391  0.14494200  0.73604200  1
  H  1299  1  0.99350791  0.15992800  0.65859100  1
  H  1300  1  0.02340200  0.19185000  0.66504600  1
  H  1301  1  0.07031300  0.17444500  0.67695200  1
  H  1302  1  0.10048500  0.18081700  0.64506900  1
  H  1303  1  0.09973200  0.25824200  0.66020600  1
  H  1304  1  0.06966800  0.25176600  0.69194700  1
  H  1305  1  0.07031500  0.24236400  0.73985300  1
  H  1306  1  0.06967200  0.16504400  0.72485300  1
  H  1307  1  0.09973800  0.15856600  0.75659200  1
  H  1308  1  0.10049000  0.23599000  0.77173300  1
  H  1311  1  0.97067590  0.12398900  0.67435000  1
  H  1312  1  0.97063890  0.29279400  0.74246300  1
  H  1314  1  0.12319900  0.24258800  0.62478200  1
  H  1316  1  0.12320900  0.17421900  0.79201400  1
  H  1342  1  0.26917200  0.40440200  0.27194000  1
  H  1343  1  0.26281100  0.43440500  0.23988700  1
  H  1344  1  0.34659800  0.40505900  0.25681900  1
  H  1345  1  0.34013200  0.43495700  0.22490100  1
  H  1346  1  0.33077800  0.43440100  0.17694100  1
  H  1347  1  0.32441800  0.40439600  0.14489200  1
  H  1348  1  0.24699300  0.40505700  0.16000100  1
  H  1349  1  0.25345500  0.43495700  0.19191800  1
  H  1350  1  0.26528900  0.48186900  0.17445500  1
  H  1351  1  0.23340200  0.51203600  0.18083000  1
  H  1352  1  0.24865600  0.51140400  0.25823300  1
  H  1353  1  0.28039800  0.48134200  0.25175400  1
  H  1354  1  0.32830400  0.48187100  0.24236500  1
  H  1355  1  0.31319300  0.48133900  0.16506700  1
  H  1356  1  0.34493000  0.51140400  0.15858500  1
  H  1357  1  0.36018500  0.51204300  0.23598700  1
  H  1360  1  0.26272900  0.38225900  0.12402700  1
  H  1361  1  0.33086500  0.38226900  0.29280100  1
  H  1363  1  0.21315900  0.53478900  0.24259300  1
  H  1365  1  0.38041200  0.53480700  0.17422300  1
  H  1391  1  0.26916800  0.01242250  0.14486800  1
  H  1392  1  0.26280600  0.98240500  0.17690200  1
  H  1393  1  0.34658200  0.01180450  0.16003200  1
  H  1394  1  0.34011400  0.98188900  0.19193100  1
  H  1395  1  0.33076200  0.98240700  0.23988300  1
  H  1396  1  0.32440300  0.01242350  0.27191900  1
  H  1397  1  0.24698400  0.01180150  0.25676500  1
  H  1398  1  0.25345200  0.98188600  0.22486400  1
  H  1399  1  0.26526300  0.93495600  0.24234100  1
  H  1400  1  0.23340700  0.90475900  0.23596500  1
  H  1401  1  0.24871100  0.90535600  0.15857400  1
  H  1402  1  0.28042200  0.93544600  0.16505900  1
  H  1403  1  0.32831600  0.93495700  0.17445000  1
  H  1404  1  0.31315400  0.93544700  0.25173100  1
  H  1405  1  0.34486200  0.90535400  0.25821600  1
  H  1406  1  0.36017000  0.90475600  0.18082600  1
  H  1409  1  0.26271000  0.03459550  0.29274700  1
  H  1410  1  0.33086000  0.03458850  0.12404000  1
  H  1412  1  0.21324200  0.88193300  0.17419900  1
  H  1414  1  0.38032100  0.88191400  0.24259500  1
  H  1440  1  0.86031300  0.73602600  0.01243980  1
  H  1441  1  0.82828000  0.74238600  0.98242100  1
  H  1442  1  0.84518800  0.65860400  0.01177980  1
  H  1443  1  0.81329100  0.66507200  0.98186400  1
  H  1444  1  0.76534400  0.67442900  0.98242400  1
  H  1445  1  0.73330800  0.68078600  0.01243980  1
  H  1446  1  0.74841500  0.75821200  0.01177280  1
  H  1447  1  0.78031700  0.75174700  0.98186000  1
  H  1448  1  0.76286200  0.73991500  0.93492800  1
  H  1449  1  0.76923900  0.77176400  0.90472700  1
  H  1450  1  0.84663200  0.75649200  0.90536400  1
  H  1451  1  0.84014900  0.72478500  0.93545800  1
  H  1452  1  0.83075000  0.67689200  0.93493100  1
  H  1453  1  0.75346500  0.69202600  0.93546200  1
  H  1454  1  0.74697800  0.66031800  0.90536800  1
  H  1455  1  0.82437100  0.64504000  0.90473000  1
  H  1458  1  0.71245000  0.74248000  0.03458380  1
  H  1459  1  0.88116100  0.67433100  0.03458480  1
  H  1461  1  0.83100700  0.79193300  0.88190600  1
  H  1463  1  0.76260000  0.62487900  0.88190600  1
  H  1489  1  0.73313600  0.73601300  0.40451500  1
  H  1490  1  0.76516600  0.74237800  0.43453800  1
  H  1491  1  0.74854500  0.65864400  0.40487200  1
  H  1492  1  0.78043700  0.66511600  0.43479400  1
  H  1493  1  0.82840500  0.67442200  0.43453800  1
  H  1494  1  0.86043900  0.68079400  0.40452300  1
  H  1495  1  0.84502200  0.75816300  0.40488500  1
  H  1496  1  0.81312400  0.75168600  0.43480200  1
  H  1497  1  0.83073100  0.74006400  0.48172500  1
  H  1498  1  0.82434300  0.77192700  0.51191400  1
  H  1499  1  0.74700400  0.75636100  0.51158000  1
  H  1500  1  0.75349800  0.72464500  0.48149100  1
  H  1501  1  0.76283800  0.67673300  0.48172500  1
  H  1502  1  0.84007000  0.69216100  0.48149100  1
  H  1503  1  0.84656700  0.66045000  0.51158200  1
  H  1504  1  0.76923000  0.64487600  0.51191800  1
  H  1507  1  0.88110500  0.74247700  0.38220500  1
  H  1508  1  0.71244900  0.67433500  0.38220700  1
  H  1510  1  0.76259200  0.79195300  0.53486700  1
  H  1512  1  0.83098300  0.62486700  0.53488200  1
  H  1519  1  0.75926200  0.55697400  0.58656500  1
  H  1520  1  0.76022300  0.58902600  0.55548900  1
  H  1524  1  0.86969700  0.60101000  0.60426700  1
  H  1533  1  0.83430500  0.85982600  0.58658000  1
  H  1534  1  0.83334600  0.82778400  0.55549500  1
  H  1538  1  0.72383900  0.81583600  0.60421000  1
  H  1547  1  0.75928600  0.85980800  0.83021100  1
  H  1548  1  0.76024600  0.82775900  0.86128800  1
  H  1552  1  0.86977100  0.81585600  0.81259700  1
  H  1561  1  0.83433100  0.55700000  0.83022200  1
  H  1562  1  0.83336700  0.58905000  0.86129800  1
  H  1566  1  0.72384300  0.60094200  0.81259900  1
  H  1575  1  0.44820700  0.58659400  0.24592300  1
  H  1576  1  0.41615600  0.55551900  0.24497900  1
  H  1580  1  0.40419000  0.60421500  0.13546400  1
  H  1589  1  0.14538600  0.58659800  0.17088600  1
  H  1590  1  0.17742800  0.55551300  0.17183600  1
  H  1594  1  0.18934300  0.60415700  0.28138100  1
  H  1603  1  0.14538900  0.83021700  0.24592000  1
  H  1604  1  0.17744000  0.86129200  0.24496300  1
  H  1608  1  0.18933200  0.81262000  0.13542700  1
  H  1617  1  0.44818400  0.83020900  0.17086800  1
  H  1618  1  0.41613200  0.86128500  0.17182700  1
  H  1622  1  0.40425000  0.81261400  0.28136500  1
  H  1631  1  0.41859900  0.24592600  0.55699600  1
  H  1632  1  0.44967400  0.24497600  0.58904700  1
  H  1636  1  0.40097600  0.13546100  0.60099300  1
  H  1645  1  0.41862100  0.17089100  0.85983000  1
  H  1646  1  0.44970900  0.17184700  0.82779200  1
  H  1650  1  0.40098800  0.28135100  0.81582000  1
  H  1659  1  0.17498100  0.24594400  0.85980400  1
  H  1660  1  0.14390000  0.24498600  0.82775600  1
  H  1664  1  0.19255000  0.13543700  0.81588200  1
  H  1673  1  0.17499400  0.17087200  0.55700700  1
  H  1674  1  0.14391900  0.17182000  0.58905900  1
  H  1678  1  0.19252200  0.28139100  0.60091100  1
  H  1687  1  0.26016600  0.05599450  0.08910980  1
  H  1688  1  0.25920100  0.08691650  0.05691580  1
  H  1692  1  0.36989400  0.10376400  0.10113600  1
  H  1701  1  0.33342900  0.36083400  0.08912980  1
  H  1702  1  0.33439300  0.32992400  0.05692480  1
  H  1706  1  0.22361700  0.31320500  0.10099400  1
  H  1715  1  0.26017500  0.36084200  0.32770800  1
  H  1716  1  0.25921100  0.32991800  0.35989900  1
  H  1720  1  0.36996400  0.31317900  0.31578400  1
  H  1729  1  0.33340200  0.05597950  0.32769000  1
  H  1730  1  0.33437100  0.08690250  0.35988400  1
  H  1734  1  0.22362600  0.10367600  0.31575800  1
  H  1743  1  0.94921790  0.08911950  0.74504100  1
  H  1744  1  0.91829590  0.05692850  0.74600200  1
  H  1748  1  0.90147390  0.10113400  0.63529900  1
  H  1757  1  0.64437400  0.08913350  0.67178000  1
  H  1758  1  0.67528700  0.05693150  0.67081500  1
  H  1762  1  0.69202400  0.10102600  0.78157900  1
  H  1771  1  0.64435400  0.32770600  0.74504300  1
  H  1772  1  0.67527500  0.35989700  0.74601500  1
  H  1776  1  0.69204400  0.31577900  0.63526400  1
  H  1785  1  0.94923190  0.32769800  0.67176800  1
  H  1786  1  0.91830490  0.35988600  0.67079400  1
  H  1790  1  0.90153090  0.31576100  0.78154000  1
  H  1799  1  0.91609690  0.74502100  0.05598880  1
  H  1800  1  0.94828990  0.74598500  0.08691080  1
  H  1804  1  0.90406390  0.63529500  0.10376200  1
  H  1813  1  0.91607990  0.67178400  0.36083300  1
  H  1814  1  0.94828790  0.67082600  0.32992600  1
  H  1818  1  0.90417390  0.78158100  0.31317800  1
  H  1827  1  0.67749500  0.74503200  0.36082200  1
  H  1828  1  0.64530200  0.74599800  0.32990000  1
  H  1832  1  0.68942300  0.63524700  0.31314400  1
  H  1841  1  0.67753100  0.67178000  0.05598680  1
  H  1842  1  0.64533600  0.67081100  0.08690680  1
  H  1846  1  0.68942700  0.78157400  0.10365200  1
  C  1  1  0.97176100  0.32731100  0.46098700  1
  C  2  1  0.95142000  0.31553800  0.47315700  1
  C  3  1  0.95517900  0.29781900  0.49225300  1
  C  4  1  0.97943500  0.29012600  0.49983800  1
  C  5  1  0.99967300  0.30310000  0.48841600  1
  C  6  1  0.99605500  0.32086900  0.46924600  1
  C  7  1  0.98373600  0.27171900  0.52145800  1
  C  8  1  0.98803800  0.29012900  0.54307800  1
  C  9  1  0.01229400  0.29782100  0.55066000  1
  C  10  1  0.01605300  0.31554900  0.56974900  1
  C  11  1  0.99571400  0.32732000  0.58192300  1
  C  12  1  0.97141900  0.32087600  0.57366800  1
  C  13  1  0.96780100  0.30310700  0.55449800  1
  C  14  1  0.96211700  0.25330800  0.52575000  1
  C  15  1  0.00535200  0.25330400  0.51717300  1
  C  16  1  0.01676000  0.24032500  0.53741700  1
  C  17  1  0.03591900  0.22254400  0.53380900  1
  C  18  1  0.04419000  0.21610600  0.50952000  1
  C  19  1  0.03204000  0.22788700  0.48917100  1
  C  20  1  0.01295100  0.24561500  0.49291900  1
  C  21  1  0.95071500  0.24032500  0.50550600  1
  C  22  1  0.93154900  0.22255100  0.50911200  1
  C  23  1  0.92327700  0.21611500  0.53340200  1
  C  24  1  0.93542600  0.22789400  0.55375100  1
  C  25  1  0.95451600  0.24562200  0.55000400  1
  C  42  1  0.06332900  0.19885200  0.50488500  1
  C  43  1  0.96711500  0.34457300  0.44185500  1
  C  46  1  0.00036100  0.34458400  0.60105300  1
  C  48  1  0.90412800  0.19887100  0.53803400  1
  C  50  1  0.99570200  0.71557100  0.46102400  1
  C  51  1  0.01604300  0.72729000  0.47324300  1
  C  52  1  0.01228200  0.74503100  0.49231900  1
  C  53  1  0.98803000  0.75280900  0.49983000  1
  C  54  1  0.96779000  0.73986800  0.48837300  1
  C  55  1  0.97140600  0.72208400  0.46921800  1
  C  56  1  0.98373600  0.77120800  0.52145800  1
  C  57  1  0.97944500  0.75280700  0.54308200  1
  C  58  1  0.95519200  0.74502500  0.55058900  1
  C  59  1  0.95143100  0.72727800  0.56966100  1
  C  60  1  0.97177200  0.71556200  0.58188400  1
  C  61  1  0.99606900  0.72207700  0.57369400  1
  C  62  1  0.99968400  0.73986700  0.55454100  1
  C  63  1  0.00536200  0.78961000  0.52574300  1
  C  64  1  0.96211400  0.78961400  0.51718100  1
  C  65  1  0.95066700  0.80255700  0.53742700  1
  C  66  1  0.93152100  0.82035200  0.53382200  1
  C  67  1  0.92331400  0.82685900  0.50952900  1
  C  68  1  0.93551900  0.81513800  0.48918000  1
  C  69  1  0.95459200  0.79739100  0.49293000  1
  C  70  1  0.01680100  0.80255900  0.50549500  1
  C  71  1  0.03594900  0.82035200  0.50909900  1
  C  72  1  0.04415800  0.82686000  0.53339200  1
  C  73  1  0.03195800  0.81513300  0.55374100  1
  C  74  1  0.01288400  0.79738900  0.54999300  1
  C  91  1  0.90418700  0.84412800  0.50489300  1
  C  92  1  0.00034900  0.69828600  0.44191300  1
  C  95  1  0.96712400  0.69827800  0.60099500  1
  C  97  1  0.06328800  0.84412400  0.53802900  1
  C  99  1  0.67783700  0.46102800  0.03341700  1
  C  100  1  0.68955100  0.47325400  0.05375800  1
  C  101  1  0.70729200  0.49232900  0.04999500  1
  C  102  1  0.71507400  0.49983300  0.02574100  1
  C  103  1  0.70214100  0.48836700  0.00550100  1
  C  104  1  0.68435300  0.46921500  0.00911800  1
  C  105  1  0.73347300  0.52146000  0.02144700  1
  C  106  1  0.71507000  0.54308400  0.01715300  1
  C  107  1  0.70728500  0.55058500  0.99289700  1
  C  108  1  0.68954100  0.56965900  0.98913400  1
  C  109  1  0.67783100  0.58189000  0.00947500  1
  C  110  1  0.68434600  0.57370200  0.03377400  1
  C  111  1  0.70213200  0.55454800  0.03739200  1
  C  112  1  0.75187400  0.52574600  0.04307200  1
  C  113  1  0.75187900  0.51718300  0.99982300  1
  C  114  1  0.76481700  0.53742900  0.98837500  1
  C  115  1  0.78261700  0.53382200  0.96923200  1
  C  116  1  0.78913200  0.50952900  0.96103400  1
  C  117  1  0.77741100  0.48918000  0.97323800  1
  C  118  1  0.75966300  0.49293100  0.99230800  1
  C  119  1  0.76481800  0.50550000  0.05451800  1
  C  120  1  0.78261500  0.50910600  0.07366300  1
  C  121  1  0.78912400  0.53340000  0.08186600  1
  C  122  1  0.77740100  0.55374800  0.06966200  1
  C  123  1  0.75965400  0.54999700  0.05058900  1
  C  140  1  0.80640800  0.50489000  0.94191400  1
  C  141  1  0.66055100  0.44191900  0.03806800  1
  C  144  1  0.66055000  0.60100500  0.00482600  1
  C  146  1  0.80639400  0.53803700  0.10099100  1
  C  148  1  0.28963800  0.46103000  0.00951100  1
  C  149  1  0.27797100  0.47330300  0.98917300  1
  C  150  1  0.26023000  0.49237900  0.99293800  1
  C  151  1  0.25241100  0.49983900  0.01719600  1
  C  152  1  0.26528700  0.48831700  0.03743900  1
  C  153  1  0.28307500  0.46916700  0.03381500  1
  C  154  1  0.23400100  0.52145900  0.02147700  1
  C  155  1  0.25241100  0.54308100  0.02575100  1
  C  156  1  0.26023400  0.55054400  0.05000600  1
  C  157  1  0.27797900  0.56961500  0.05376700  1
  C  158  1  0.28963700  0.58189400  0.03342500  1
  C  159  1  0.28306900  0.57375300  0.00912400  1
  C  160  1  0.26528500  0.55459900  0.00550400  1
  C  161  1  0.21558400  0.52572700  0.99985900  1
  C  162  1  0.21559800  0.51718800  0.04310200  1
  C  163  1  0.20270700  0.53743800  0.05459600  1
  C  164  1  0.18490400  0.53383100  0.07373600  1
  C  165  1  0.17833900  0.50953400  0.08188600  1
  C  166  1  0.19001300  0.48918500  0.06963500  1
  C  167  1  0.20776300  0.49293800  0.05056800  1
  C  168  1  0.20270200  0.50547500  0.98836000  1
  C  169  1  0.18490700  0.50908300  0.96921300  1
  C  170  1  0.17834500  0.53337900  0.96106000  1
  C  171  1  0.19001600  0.55372900  0.97331300  1
  C  172  1  0.20776100  0.54997700  0.99238700  1
  C  189  1  0.16106400  0.50489600  0.10100500  1
  C  190  1  0.30692100  0.44191800  0.00485800  1
  C  193  1  0.30691600  0.60100800  0.03807400  1
  C  195  1  0.16108500  0.53801700  0.94192900  1
  C  197  1  0.54416200  0.03342400  0.32736100  1
  C  198  1  0.53191300  0.05376400  0.31566800  1
  C  199  1  0.51283800  0.05000000  0.29792900  1
  C  200  1  0.50535200  0.02574300  0.29013300  1
  C  201  1  0.51684900  0.00550100  0.30303400  1
  C  202  1  0.53600000  0.00912300  0.32082400  1
  C  203  1  0.48373200  0.02146100  0.27172100  1
  C  204  1  0.46210900  0.01718000  0.29012800  1
  C  205  1  0.45462200  0.99292200  0.29792000  1
  C  206  1  0.43554500  0.98915800  0.31565900  1
  C  207  1  0.42329400  0.00949700  0.32735000  1
  C  208  1  0.43145800  0.03380000  0.32081300  1
  C  209  1  0.45061000  0.03742100  0.30302700  1
  C  210  1  0.47946600  0.04308100  0.25330900  1
  C  211  1  0.48801700  0.99983800  0.25331500  1
  C  212  1  0.46776400  0.98837300  0.24040300  1
  C  213  1  0.47136600  0.96922400  0.22260700  1
  C  214  1  0.49565900  0.96103600  0.21607500  1
  C  215  1  0.51601200  0.97326000  0.22777300  1
  C  216  1  0.51226500  0.99233000  0.24552100  1
  C  217  1  0.49971600  0.05455600  0.24040300  1
  C  218  1  0.49611100  0.07371100  0.22261700  1
  C  219  1  0.47181800  0.08189600  0.21608500  1
  C  220  1  0.45146600  0.06966600  0.22777600  1
  C  221  1  0.45521400  0.05058500  0.24551400  1
  C  238  1  0.50029100  0.94190600  0.19881100  1
  C  239  1  0.56327300  0.03807600  0.34464600  1
  C  242  1  0.40418300  0.00484500  0.34463300  1
  C  244  1  0.46718200  0.10103400  0.19883000  1
  C  246  1  0.54419200  0.00951000  0.71559200  1
  C  247  1  0.53197300  0.98916900  0.72731100  1
  C  248  1  0.51288700  0.99292900  0.74504100  1
  C  249  1  0.50535100  0.01718500  0.75278400  1
  C  250  1  0.51681400  0.03742700  0.73985300  1
  C  251  1  0.53598100  0.03380900  0.72208200  1
  C  252  1  0.48373300  0.02148000  0.77119600  1
  C  253  1  0.46210900  0.02576300  0.75279000  1
  C  254  1  0.45458300  0.05002000  0.74503500  1
  C  255  1  0.43550400  0.05378100  0.72729600  1
  C  256  1  0.42328500  0.03344100  0.71557500  1
  C  257  1  0.43148400  0.00914200  0.72207700  1
  C  258  1  0.45064100  0.00552200  0.73986100  1
  C  259  1  0.47946000  0.99986200  0.78961000  1
  C  260  1  0.48802200  0.04310400  0.78959900  1
  C  261  1  0.46777400  0.05454200  0.80254500  1
  C  262  1  0.47137700  0.07369900  0.82033100  1
  C  263  1  0.49567000  0.08191600  0.82682900  1
  C  264  1  0.51602000  0.06971900  0.81510000  1
  C  265  1  0.51227200  0.05064100  0.79735900  1
  C  266  1  0.49970800  0.98841500  0.80255100  1
  C  267  1  0.49610200  0.96926500  0.82034000  1
  C  268  1  0.47180800  0.96105100  0.82683800  1
  C  269  1  0.45146000  0.97324700  0.81511000  1
  C  270  1  0.45520800  0.99232700  0.79737000  1
  C  287  1  0.50030200  0.10105200  0.84408600  1
  C  288  1  0.56332300  0.00486200  0.69832900  1
  C  291  1  0.40417400  0.03809100  0.69829000  1
  C  293  1  0.46717400  0.94191400  0.84409500  1
  C  295  1  0.67759300  0.03335900  0.58105000  1
  C  296  1  0.68708800  0.05345700  0.56670200  1
  C  297  1  0.70518400  0.04960700  0.54797800  1
  C  298  1  0.71556800  0.02566500  0.54303900  1
  C  299  1  0.70490700  0.00547200  0.55668600  1
  C  300  1  0.68673600  0.00917300  0.57544400  1
  C  301  1  0.73401000  0.02147000  0.52146300  1
  C  302  1  0.71558100  0.01728300  0.49987500  1
  C  303  1  0.70518500  0.99334000  0.49495300  1
  C  304  1  0.68708600  0.98948200  0.47623600  1
  C  305  1  0.67758300  0.00957600  0.46188400  1
  C  306  1  0.68672500  0.03376400  0.46748300  1
  C  307  1  0.70490500  0.03746800  0.48623400  1
  C  308  1  0.75243100  0.04306500  0.51729600  1
  C  309  1  0.75243300  0.99988100  0.52564900  1
  C  310  1  0.76308300  0.98624700  0.50544100  1
  C  311  1  0.78115900  0.96739500  0.50912700  1
  C  312  1  0.79022000  0.96168200  0.53331800  1
  C  313  1  0.78078100  0.97604300  0.55343100  1
  C  314  1  0.76278400  0.99486700  0.54958900  1
  C  315  1  0.76308200  0.05669900  0.53750100  1
  C  316  1  0.78115700  0.07555100  0.53381300  1
  C  317  1  0.79021600  0.08125900  0.50962100  1
  C  318  1  0.78077900  0.06689500  0.48950900  1
  C  319  1  0.76278600  0.04806900  0.49335500  1
  C  336  1  0.80776800  0.94285700  0.53798600  1
  C  337  1  0.65987100  0.03804200  0.59971800  1
  C  340  1  0.65985700  0.00488800  0.44322200  1
  C  342  1  0.80776200  0.10008600  0.50494900  1
  C  344  1  0.28987100  0.00956700  0.58105000  1
  C  345  1  0.28030500  0.98945400  0.56676700  1
  C  346  1  0.26220900  0.99330200  0.54804500  1
  C  347  1  0.25189900  0.01726200  0.54303500  1
  C  348  1  0.26263400  0.03746300  0.55660900  1
  C  349  1  0.28080300  0.03376400  0.57537100  1
  C  350  1  0.23345900  0.02146300  0.52145800  1
  C  351  1  0.25189700  0.02566300  0.49988100  1
  C  352  1  0.26220500  0.04962200  0.49486900  1
  C  353  1  0.28030100  0.05346800  0.47614500  1
  C  354  1  0.28986900  0.03335500  0.46186400  1
  C  355  1  0.28080200  0.00915700  0.46754500  1
  C  356  1  0.26263100  0.00546000  0.48630700  1
  C  357  1  0.21503000  0.99987700  0.51727600  1
  C  358  1  0.21503800  0.04305400  0.52564900  1
  C  359  1  0.20431500  0.05661300  0.50542900  1
  C  360  1  0.18624700  0.07547300  0.50911200  1
  C  361  1  0.17726300  0.08126300  0.53331200  1
  C  362  1  0.18677600  0.06697400  0.55344400  1
  C  363  1  0.20476400  0.04814100  0.54960600  1
  C  364  1  0.20431900  0.98630900  0.53749400  1
  C  365  1  0.18625500  0.96744700  0.53381100  1
  C  366  1  0.17727000  0.96165900  0.50960900  1
  C  367  1  0.18677400  0.97595400  0.48947900  1
  C  368  1  0.20476300  0.99478500  0.49331500  1
  C  385  1  0.15971800  0.10009500  0.53797600  1
  C  386  1  0.30759500  0.00488800  0.59971600  1
  C  389  1  0.30758900  0.03803300  0.44319400  1
  C  391  1  0.15973100  0.94282300  0.50494500  1
  C  393  1  0.54333000  0.32759600  0.00957200  1
  C  394  1  0.52902300  0.31805700  0.98946500  1
  C  395  1  0.51029300  0.29996600  0.99331600  1
  C  396  1  0.50531500  0.28962400  0.01726800  1
  C  397  1  0.51892300  0.30032600  0.03746500  1
  C  398  1  0.53768300  0.31849700  0.03376500  1
  C  399  1  0.48373900  0.27118600  0.02146700  1
  C  400  1  0.46216200  0.28962600  0.02566500  1
  C  401  1  0.45718400  0.29997000  0.04961600  1
  C  402  1  0.43845800  0.31806500  0.05346400  1
  C  403  1  0.42414100  0.32759400  0.03335700  1
  C  404  1  0.42979000  0.31849200  0.00916500  1
  C  405  1  0.44855400  0.30032700  0.00546500  1
  C  406  1  0.47955400  0.25275800  0.99987900  1
  C  407  1  0.48791500  0.25275900  0.04305700  1
  C  408  1  0.46770500  0.24208300  0.05666300  1
  C  409  1  0.47139500  0.22401500  0.07552100  1
  C  410  1  0.49559300  0.21499800  0.08127100  1
  C  411  1  0.51571300  0.22447400  0.06694300  1
  C  412  1  0.51187000  0.24245800  0.04810900  1
  C  413  1  0.49976800  0.24207900  0.98627700  1
  C  414  1  0.49608000  0.22401300  0.96741700  1
  C  415  1  0.47188400  0.21499300  0.96166600  1
  C  416  1  0.45176200  0.22447200  0.97599000  1
  C  417  1  0.45560100  0.24245800  0.99482400  1
  C  434  1  0.50026300  0.19745600  0.10010300  1
  C  435  1  0.56200000  0.34531600  0.00489100  1
  C  438  1  0.40546600  0.34530700  0.03803800  1
  C  440  1  0.46721600  0.19744700  0.94283700  1
  C  442  1  0.54329300  0.71529800  0.03334900  1
  C  443  1  0.52897500  0.72483200  0.05345100  1
  C  444  1  0.51026200  0.74293800  0.04959700  1
  C  445  1  0.50531400  0.75331900  0.02565400  1
  C  446  1  0.51892100  0.74260400  0.00546100  1
  C  447  1  0.53766700  0.72441800  0.00915900  1
  C  448  1  0.48373100  0.77174600  0.02145200  1
  C  449  1  0.46214900  0.75331600  0.01725000  1
  C  450  1  0.45720000  0.74293400  0.99330600  1
  C  451  1  0.43849200  0.72482500  0.98945300  1
  C  452  1  0.42416700  0.71529900  0.00955600  1
  C  453  1  0.42979500  0.72441900  0.03374400  1
  C  454  1  0.44854300  0.74260100  0.03744200  1
  C  455  1  0.47954400  0.79016200  0.04304500  1
  C  456  1  0.48790700  0.79016100  0.99985500  1
  C  457  1  0.46770200  0.80085100  0.98625100  1
  C  458  1  0.47138900  0.81893000  0.96740200  1
  C  459  1  0.49558300  0.82796300  0.96167000  1
  C  460  1  0.51570000  0.81849700  0.97601200  1
  C  461  1  0.51185400  0.80049900  0.99483200  1
  C  462  1  0.49975000  0.80085200  0.05664700  1
  C  463  1  0.49606400  0.81892700  0.07549900  1
  C  464  1  0.47187000  0.82795900  0.08123700  1
  C  465  1  0.45175300  0.81849100  0.06689900  1
  C  466  1  0.45559600  0.80049500  0.04807500  1
  C  483  1  0.50025600  0.84550700  0.94284100  1
  C  484  1  0.56194600  0.69756000  0.03803200  1
  C  487  1  0.40551200  0.69756400  0.00487100  1
  C  489  1  0.46719800  0.84550600  0.10006400  1
  C  491  1  0.97184500  0.46189800  0.71529400  1
  C  492  1  0.95174300  0.47620900  0.72484000  1
  C  493  1  0.95559800  0.49492000  0.74294500  1
  C  494  1  0.97954400  0.49987700  0.75331300  1
  C  495  1  0.99973600  0.48627900  0.74258600  1
  C  496  1  0.99603600  0.46753300  0.72440200  1
  C  497  1  0.98374900  0.52146300  0.77173800  1
  C  498  1  0.98795300  0.54304300  0.75331000  1
  C  499  1  0.01189800  0.54800000  0.74293800  1
  C  500  1  0.01575100  0.56670600  0.72482500  1
  C  501  1  0.99564900  0.58102000  0.71528700  1
  C  502  1  0.97145900  0.57538600  0.72439700  1
  C  503  1  0.96776000  0.55663900  0.74258100  1
  C  504  1  0.96215700  0.52565000  0.79015600  1
  C  505  1  0.00534400  0.51728200  0.79015400  1
  C  506  1  0.01893700  0.53749100  0.80085700  1
  C  507  1  0.03778700  0.53380200  0.81893400  1
  C  508  1  0.04353100  0.50960600  0.82795600  1
  C  509  1  0.02920400  0.48948700  0.81847600  1
  C  510  1  0.01038100  0.49333300  0.80047900  1
  C  511  1  0.94856800  0.50544000  0.80085900  1
  C  512  1  0.92971600  0.50912500  0.81893300  1
  C  513  1  0.92396500  0.53332100  0.82795300  1
  C  514  1  0.93828900  0.55344200  0.81847100  1
  C  515  1  0.95711300  0.54959800  0.80047700  1
  C  532  1  0.06235800  0.50493400  0.84550300  1
  C  533  1  0.96716100  0.44325000  0.69755200  1
  C  536  1  0.00033200  0.59967200  0.69754600  1
  C  538  1  0.90513600  0.53799000  0.84549900  1
  C  540  1  0.99561500  0.46188900  0.32761900  1
  C  541  1  0.01569900  0.47628300  0.31816200  1
  C  542  1  0.01183800  0.49499800  0.30006000  1
  C  543  1  0.98790800  0.49987200  0.28961400  1
  C  544  1  0.96773000  0.48618400  0.30024300  1
  C  545  1  0.97143600  0.46743900  0.31842700  1
  C  546  1  0.98372500  0.52145800  0.27118100  1
  C  547  1  0.97954400  0.54304200  0.28961600  1
  C  548  1  0.95561500  0.54791800  0.30006400  1
  C  549  1  0.95175800  0.56663000  0.31817100  1
  C  550  1  0.97184200  0.58102800  0.32762100  1
  C  551  1  0.99601900  0.57547600  0.31842700  1
  C  552  1  0.99972400  0.55672900  0.30024500  1
  C  553  1  0.00531700  0.52562300  0.25275800  1
  C  554  1  0.96212700  0.51728900  0.25276700  1
  C  555  1  0.94845300  0.53748700  0.24215200  1
  C  556  1  0.92960800  0.53380000  0.22406900  1
  C  557  1  0.92394600  0.50961700  0.21496100  1
  C  558  1  0.93835100  0.48951500  0.22435700  1
  C  559  1  0.95717400  0.49336000  0.24235200  1
  C  560  1  0.01900000  0.50542700  0.24215400  1
  C  561  1  0.03784700  0.50912100  0.22407500  1
  C  562  1  0.04350600  0.53330500  0.21496700  1
  C  563  1  0.02909600  0.55340600  0.22436300  1
  C  564  1  0.01027300  0.54955500  0.24235600  1
  C  581  1  0.90512400  0.50494200  0.19741100  1
  C  582  1  0.00030400  0.44323800  0.34535500  1
  C  585  1  0.96715300  0.59968700  0.34534900  1
  C  587  1  0.06232900  0.53798200  0.19741800  1
  C  589  1  0.98294600  0.37593500  0.41370100  1
  C  590  1  0.00424500  0.39101900  0.40990800  1
  C  591  1  0.00469400  0.40968900  0.39164800  1
  C  592  1  0.98411300  0.41438400  0.37571400  1
  C  593  1  0.96266300  0.39939800  0.37944800  1
  C  594  1  0.96209900  0.38046600  0.39790300  1
  C  599  1  0.03903500  0.40910200  0.41186900  1
  C  603  1  0.98450800  0.66697100  0.41371600  1
  C  604  1  0.96321000  0.65188600  0.40992100  1
  C  605  1  0.96276700  0.63321000  0.39166300  1
  C  606  1  0.98333600  0.62854400  0.37570700  1
  C  607  1  0.00479300  0.64351800  0.37945700  1
  C  608  1  0.00535500  0.66244300  0.39792000  1
  C  613  1  0.92842600  0.63379200  0.41188300  1
  C  617  1  0.98297000  0.66696100  0.62918800  1
  C  618  1  0.00427100  0.65188100  0.63298500  1
  C  619  1  0.00471400  0.63319900  0.65123600  1
  C  620  1  0.98413900  0.62851500  0.66717900  1
  C  621  1  0.96268300  0.64349500  0.66343600  1
  C  622  1  0.96212000  0.66242600  0.64498100  1
  C  627  1  0.03906400  0.63380400  0.63103100  1
  C  631  1  0.98453300  0.37595900  0.62919400  1
  C  632  1  0.96323800  0.39105100  0.63297600  1
  C  633  1  0.96278500  0.40972100  0.65123800  1
  C  634  1  0.98335800  0.41440400  0.66718600  1
  C  635  1  0.00481300  0.39942500  0.66344700  1
  C  636  1  0.00537900  0.38049400  0.64499000  1
  C  641  1  0.92843100  0.40910500  0.63104100  1
  C  645  1  0.62924700  0.41370900  0.02222900  1
  C  646  1  0.61417100  0.40989900  0.00092600  1
  C  647  1  0.59550200  0.39163700  0.00048500  1
  C  648  1  0.59080400  0.37571900  0.02107800  1
  C  649  1  0.60578400  0.37946900  0.04253100  1
  C  650  1  0.62471400  0.39792600  0.04308500  1
  C  655  1  0.59609400  0.41183200  0.96613000  1
  C  659  1  0.33822700  0.41371100  0.02069600  1
  C  660  1  0.35330500  0.40990100  0.04199600  1
  C  661  1  0.37197900  0.39164300  0.04243400  1
  C  662  1  0.37665200  0.37570100  0.02185600  1
  C  663  1  0.36168500  0.37946500  0.00039500  1
  C  664  1  0.34276100  0.39792800  0.99983800  1
  C  669  1  0.37138800  0.41184100  0.07678800  1
  C  673  1  0.33823200  0.62920100  0.02223100  1
  C  674  1  0.35331000  0.63300000  0.00092800  1
  C  675  1  0.37199200  0.65125100  0.00048700  1
  C  676  1  0.37667700  0.66719100  0.02106500  1
  C  677  1  0.36170100  0.66344500  0.04252200  1
  C  678  1  0.34276900  0.64499000  0.04308300  1
  C  683  1  0.37138400  0.63105100  0.96613200  1
  C  687  1  0.62922300  0.62918800  0.02066700  1
  C  688  1  0.61413300  0.63297600  0.04196300  1
  C  689  1  0.59546300  0.65124100  0.04241300  1
  C  690  1  0.59077800  0.66718100  0.02183700  1
  C  691  1  0.60575700  0.66343800  0.00038000  1
  C  692  1  0.62468500  0.64498000  0.99981600  1
  C  697  1  0.59608600  0.63105100  0.07677300  1
  C  701  1  0.59148300  0.02223300  0.37594800  1
  C  702  1  0.59529300  0.00092700  0.39102100  1
  C  703  1  0.61355500  0.00048400  0.40969200  1
  C  704  1  0.62947300  0.02107500  0.41439300  1
  C  705  1  0.62572300  0.04252900  0.39941500  1
  C  706  1  0.60726600  0.04308800  0.38048500  1
  C  711  1  0.59335800  0.96613000  0.40909100  1
  C  715  1  0.59148400  0.02068900  0.66697300  1
  C  716  1  0.59527700  0.04198400  0.65188300  1
  C  717  1  0.61353800  0.04242600  0.63320900  1
  C  718  1  0.62949500  0.02185700  0.62854900  1
  C  719  1  0.62574500  0.00040000  0.64352500  1
  C  720  1  0.60728100  0.99984000  0.66244700  1
  C  725  1  0.59331400  0.07676500  0.63378100  1
  C  729  1  0.37598500  0.02225000  0.66696800  1
  C  730  1  0.37218000  0.00094500  0.65189200  1
  C  731  1  0.35392700  0.00050200  0.63321500  1
  C  732  1  0.33799000  0.02108400  0.62852600  1
  C  733  1  0.34174400  0.04254400  0.64349700  1
  C  734  1  0.36019900  0.04310500  0.66242700  1
  C  739  1  0.37411900  0.96614500  0.63382600  1
  C  743  1  0.37599100  0.02068200  0.37595600  1
  C  744  1  0.37219000  0.04198100  0.39103800  1
  C  745  1  0.35392600  0.04242600  0.40970600  1
  C  746  1  0.33799700  0.02184100  0.41439700  1
  C  747  1  0.34175600  0.00038000  0.39942600  1
  C  748  1  0.36021100  0.99982300  0.38049600  1
  C  753  1  0.37409500  0.07679600  0.40907800  1
  C  757  1  0.48413800  0.87615800  0.91430000  1
  C  758  1  0.50489600  0.89190600  0.90964900  1
  C  759  1  0.50409900  0.91006900  0.89089700  1
  C  760  1  0.48293200  0.91397900  0.87568700  1
  C  761  1  0.46206900  0.89825500  0.88035900  1
  C  762  1  0.46263000  0.87989600  0.89938000  1
  C  767  1  0.53923900  0.91109300  0.90951800  1
  C  771  1  0.48334100  0.16677700  0.91431900  1
  C  772  1  0.46258000  0.15104000  0.90965500  1
  C  773  1  0.46338100  0.13287200  0.89090600  1
  C  774  1  0.48454700  0.12897400  0.87568900  1
  C  775  1  0.50541000  0.14469300  0.88037000  1
  C  776  1  0.50485100  0.16304400  0.89940100  1
  C  781  1  0.42824400  0.13184000  0.90952600  1
  C  785  1  0.48414700  0.16679200  0.12862900  1
  C  786  1  0.50489900  0.15103500  0.13327000  1
  C  787  1  0.50409700  0.13285900  0.15201000  1
  C  788  1  0.48293700  0.12896200  0.16723200  1
  C  789  1  0.46207600  0.14469000  0.16256600  1
  C  790  1  0.46263700  0.16305200  0.14354600  1
  C  795  1  0.53922700  0.13182000  0.13337400  1
  C  799  1  0.48331900  0.87615700  0.12860300  1
  C  800  1  0.46257500  0.89192800  0.13323600  1
  C  801  1  0.46337200  0.91009000  0.15199100  1
  C  802  1  0.48453400  0.91398200  0.16721300  1
  C  803  1  0.50539300  0.89825200  0.16254600  1
  C  804  1  0.50482800  0.87989200  0.14352300  1
  C  809  1  0.42823200  0.91111700  0.13337400  1
  C  813  1  0.12906300  0.91430500  0.52106300  1
  C  814  1  0.11332100  0.90965000  0.50030300  1
  C  815  1  0.09515600  0.89090000  0.50109600  1
  C  816  1  0.09123900  0.87569600  0.52226500  1
  C  817  1  0.10695700  0.88036800  0.54313200  1
  C  818  1  0.12532100  0.89938900  0.54257300  1
  C  823  1  0.09414000  0.90951800  0.46595400  1
  C  827  1  0.83843600  0.91433400  0.52186000  1
  C  828  1  0.85417900  0.90967500  0.54261800  1
  C  829  1  0.87234900  0.89092800  0.54181800  1
  C  830  1  0.87624500  0.87570900  0.52065400  1
  C  831  1  0.86052100  0.88038100  0.49979300  1
  C  832  1  0.84216700  0.89941200  0.50035200  1
  C  837  1  0.87338600  0.90955500  0.57695200  1
  C  841  1  0.83841100  0.12862700  0.52107100  1
  C  842  1  0.85417400  0.13326800  0.50032200  1
  C  843  1  0.87234800  0.15200900  0.50112800  1
  C  844  1  0.87623700  0.16723300  0.52228800  1
  C  845  1  0.86050600  0.16256700  0.54314500  1
  C  846  1  0.84214500  0.14354500  0.54258100  1
  C  851  1  0.87339800  0.13337100  0.46599900  1
  C  855  1  0.12905400  0.12861600  0.52185000  1
  C  856  1  0.11328200  0.13324600  0.54259200  1
  C  857  1  0.09511800  0.15199800  0.54179400  1
  C  858  1  0.09122600  0.16722000  0.52063200  1
  C  859  1  0.10695700  0.16255300  0.49977400  1
  C  860  1  0.12532100  0.14353300  0.50034100  1
  C  865  1  0.09409000  0.13338000  0.57693300  1
  C  869  1  0.09090100  0.52105000  0.87615200  1
  C  870  1  0.09555200  0.50029200  0.89190000  1
  C  871  1  0.11430400  0.50108700  0.91006400  1
  C  872  1  0.12951200  0.52225400  0.91397500  1
  C  873  1  0.12484400  0.54311700  0.89825100  1
  C  874  1  0.10582300  0.54255600  0.87988900  1
  C  879  1  0.09568100  0.46594900  0.91109000  1
  C  883  1  0.09086900  0.52186100  0.16676300  1
  C  884  1  0.09552600  0.54262100  0.15102100  1
  C  885  1  0.11427600  0.54182200  0.13285500  1
  C  886  1  0.12950000  0.52066200  0.12896200  1
  C  887  1  0.12483100  0.49980100  0.14468600  1
  C  888  1  0.10579800  0.50035700  0.16303600  1
  C  893  1  0.09564500  0.57695500  0.13181500  1
  C  897  1  0.87657700  0.52106000  0.16676500  1
  C  898  1  0.87193600  0.50031200  0.15100500  1
  C  899  1  0.85319500  0.50111400  0.13283000  1
  C  900  1  0.83797300  0.52227400  0.12893600  1
  C  901  1  0.84263700  0.54313300  0.14466600  1
  C  902  1  0.86165800  0.54257000  0.16302900  1
  C  907  1  0.87183100  0.46598500  0.13178600  1
  C  911  1  0.87660400  0.52186900  0.87615400  1
  C  912  1  0.87196500  0.54261400  0.89191900  1
  C  913  1  0.85321000  0.54181800  0.91008100  1
  C  914  1  0.83799400  0.52065300  0.91397700  1
  C  915  1  0.84266900  0.49979100  0.89825500  1
  C  916  1  0.86169100  0.50035500  0.87989300  1
  C  921  1  0.87181500  0.57696300  0.91109800  1
  C  925  1  0.78481900  0.51425400  0.64793100  1
  C  926  1  0.76447800  0.50248100  0.66010100  1
  C  927  1  0.76823700  0.48476200  0.67919700  1
  C  928  1  0.79249300  0.47706900  0.68678200  1
  C  929  1  0.81273100  0.49004300  0.67536000  1
  C  930  1  0.80911300  0.50781200  0.65619000  1
  C  931  1  0.79679400  0.45866200  0.70840200  1
  C  932  1  0.80109600  0.47707200  0.73002200  1
  C  933  1  0.82535200  0.48476400  0.73760400  1
  C  934  1  0.82911100  0.50249200  0.75669300  1
  C  935  1  0.80877200  0.51426300  0.76886700  1
  C  936  1  0.78447700  0.50781900  0.76061200  1
  C  937  1  0.78085900  0.49005000  0.74144200  1
  C  938  1  0.77517500  0.44025100  0.71269400  1
  C  939  1  0.81841000  0.44024700  0.70411700  1
  C  940  1  0.82981800  0.42726800  0.72436100  1
  C  941  1  0.84897700  0.40948700  0.72075300  1
  C  942  1  0.85724800  0.40304900  0.69646400  1
  C  943  1  0.84509800  0.41483000  0.67611500  1
  C  944  1  0.82600900  0.43255800  0.67986300  1
  C  945  1  0.76377300  0.42726800  0.69245000  1
  C  946  1  0.74460700  0.40949400  0.69605600  1
  C  947  1  0.73633500  0.40305800  0.72034600  1
  C  948  1  0.74848400  0.41483700  0.74069500  1
  C  949  1  0.76757400  0.43256500  0.73694800  1
  C  966  1  0.87638700  0.38579500  0.69182900  1
  C  967  1  0.78017300  0.53151600  0.62879900  1
  C  970  1  0.81341900  0.53152700  0.78799700  1
  C  972  1  0.71718600  0.38581400  0.72497800  1
  C  974  1  0.80876000  0.90251400  0.64796800  1
  C  975  1  0.82910100  0.91423300  0.66018700  1
  C  976  1  0.82534000  0.93197400  0.67926300  1
  C  977  1  0.80108800  0.93975200  0.68677400  1
  C  978  1  0.78084800  0.92681100  0.67531700  1
  C  979  1  0.78446400  0.90902700  0.65616200  1
  C  980  1  0.79679400  0.95815100  0.70840200  1
  C  981  1  0.79250300  0.93975000  0.73002600  1
  C  982  1  0.76825000  0.93196800  0.73753300  1
  C  983  1  0.76448900  0.91422100  0.75660500  1
  C  984  1  0.78483000  0.90250500  0.76882800  1
  C  985  1  0.80912700  0.90902000  0.76063800  1
  C  986  1  0.81274200  0.92681000  0.74148500  1
  C  987  1  0.81842000  0.97655300  0.71268700  1
  C  988  1  0.77517200  0.97655700  0.70412500  1
  C  989  1  0.76372500  0.98950000  0.72437100  1
  C  990  1  0.74457900  0.00729549  0.72076600  1
  C  991  1  0.73637200  0.01380250  0.69647300  1
  C  992  1  0.74857700  0.00208149  0.67612400  1
  C  993  1  0.76765000  0.98433400  0.67987400  1
  C  994  1  0.82985900  0.98950200  0.69243900  1
  C  995  1  0.84900700  0.00729549  0.69604300  1
  C  996  1  0.85721600  0.01380350  0.72033600  1
  C  997  1  0.84501600  0.00207649  0.74068500  1
  C  998  1  0.82594200  0.98433200  0.73693700  1
  C  1015  1  0.71724500  0.03107150  0.69183700  1
  C  1016  1  0.81340700  0.88522900  0.62885700  1
  C  1019  1  0.78018200  0.88522100  0.78793900  1
  C  1021  1  0.87634600  0.03106750  0.72497300  1
  C  1023  1  0.49089500  0.64797100  0.22036100  1
  C  1024  1  0.50260900  0.66019700  0.24070200  1
  C  1025  1  0.52035000  0.67927200  0.23693900  1
  C  1026  1  0.52813200  0.68677600  0.21268500  1
  C  1027  1  0.51519900  0.67531000  0.19244500  1
  C  1028  1  0.49741100  0.65615800  0.19606200  1
  C  1029  1  0.54653100  0.70840300  0.20839100  1
  C  1030  1  0.52812800  0.73002700  0.20409700  1
  C  1031  1  0.52034300  0.73752800  0.17984100  1
  C  1032  1  0.50259900  0.75660200  0.17607800  1
  C  1033  1  0.49088900  0.76883300  0.19641900  1
  C  1034  1  0.49740400  0.76064500  0.22071800  1
  C  1035  1  0.51519000  0.74149100  0.22433600  1
  C  1036  1  0.56493200  0.71268900  0.23001600  1
  C  1037  1  0.56493700  0.70412600  0.18676700  1
  C  1038  1  0.57787500  0.72437200  0.17531900  1
  C  1039  1  0.59567500  0.72076500  0.15617600  1
  C  1040  1  0.60219000  0.69647200  0.14797800  1
  C  1041  1  0.59046900  0.67612300  0.16018200  1
  C  1042  1  0.57272100  0.67987400  0.17925200  1
  C  1043  1  0.57787600  0.69244300  0.24146200  1
  C  1044  1  0.59567300  0.69604900  0.26060700  1
  C  1045  1  0.60218200  0.72034300  0.26881000  1
  C  1046  1  0.59045900  0.74069100  0.25660600  1
  C  1047  1  0.57271200  0.73694000  0.23753300  1
  C  1064  1  0.61946600  0.69183300  0.12885800  1
  C  1065  1  0.47360900  0.62886200  0.22501200  1
  C  1068  1  0.47360800  0.78794800  0.19177000  1
  C  1070  1  0.61945200  0.72498000  0.28793500  1
  C  1072  1  0.10269600  0.64797300  0.19645500  1
  C  1073  1  0.09102900  0.66024600  0.17611700  1
  C  1074  1  0.07328800  0.67932200  0.17988200  1
  C  1075  1  0.06546900  0.68678200  0.20414000  1
  C  1076  1  0.07834500  0.67526000  0.22438300  1
  C  1077  1  0.09613300  0.65611000  0.22075900  1
  C  1078  1  0.04705900  0.70840200  0.20842100  1
  C  1079  1  0.06546900  0.73002400  0.21269500  1
  C  1080  1  0.07329200  0.73748700  0.23695000  1
  C  1081  1  0.09103700  0.75655800  0.24071100  1
  C  1082  1  0.10269500  0.76883700  0.22036900  1
  C  1083  1  0.09612700  0.76069600  0.19606800  1
  C  1084  1  0.07834300  0.74154200  0.19244800  1
  C  1085  1  0.02864200  0.71267000  0.18680300  1
  C  1086  1  0.02865600  0.70413100  0.23004600  1
  C  1087  1  0.01576500  0.72438100  0.24154000  1
  C  1088  1  0.99796191  0.72077400  0.26068000  1
  C  1089  1  0.99139691  0.69647700  0.26883000  1
  C  1090  1  0.00307100  0.67612800  0.25657900  1
  C  1091  1  0.02082100  0.67988100  0.23751200  1
  C  1092  1  0.01576000  0.69241800  0.17530400  1
  C  1093  1  0.99796491  0.69602600  0.15615700  1
  C  1094  1  0.99140291  0.72032200  0.14800400  1
  C  1095  1  0.00307400  0.74067200  0.16025700  1
  C  1096  1  0.02081900  0.73692000  0.17933100  1
  C  1113  1  0.97412190  0.69183900  0.28794900  1
  C  1114  1  0.11997900  0.62886100  0.19180200  1
  C  1117  1  0.11997400  0.78795100  0.22501800  1
  C  1119  1  0.97414290  0.72496000  0.12887300  1
  C  1121  1  0.35722000  0.22036700  0.51430500  1
  C  1122  1  0.34497100  0.24070700  0.50261200  1
  C  1123  1  0.32589600  0.23694300  0.48487300  1
  C  1124  1  0.31841000  0.21268600  0.47707700  1
  C  1125  1  0.32990700  0.19244400  0.48997800  1
  C  1126  1  0.34905800  0.19606600  0.50776800  1
  C  1127  1  0.29679000  0.20840400  0.45866500  1
  C  1128  1  0.27516700  0.20412300  0.47707200  1
  C  1129  1  0.26768000  0.17986500  0.48486400  1
  C  1130  1  0.24860300  0.17610100  0.50260300  1
  C  1131  1  0.23635200  0.19644000  0.51429400  1
  C  1132  1  0.24451600  0.22074300  0.50775700  1
  C  1133  1  0.26366800  0.22436400  0.48997100  1
  C  1134  1  0.29252400  0.23002400  0.44025300  1
  C  1135  1  0.30107500  0.18678100  0.44025900  1
  C  1136  1  0.28082200  0.17531600  0.42734700  1
  C  1137  1  0.28442400  0.15616700  0.40955100  1
  C  1138  1  0.30871700  0.14797900  0.40301900  1
  C  1139  1  0.32907000  0.16020300  0.41471700  1
  C  1140  1  0.32532300  0.17927300  0.43246500  1
  C  1141  1  0.31277400  0.24149900  0.42734700  1
  C  1142  1  0.30916900  0.26065400  0.40956100  1
  C  1143  1  0.28487600  0.26883900  0.40302900  1
  C  1144  1  0.26452400  0.25660900  0.41472000  1
  C  1145  1  0.26827200  0.23752800  0.43245800  1
  C  1162  1  0.31334900  0.12884900  0.38575500  1
  C  1163  1  0.37633100  0.22501900  0.53159000  1
  C  1166  1  0.21724100  0.19178800  0.53157700  1
  C  1168  1  0.28024000  0.28797700  0.38577400  1
  C  1170  1  0.35725000  0.19645300  0.90253600  1
  C  1171  1  0.34503100  0.17611200  0.91425500  1
  C  1172  1  0.32594500  0.17987200  0.93198500  1
  C  1173  1  0.31840900  0.20412800  0.93972800  1
  C  1174  1  0.32987200  0.22437000  0.92679700  1
  C  1175  1  0.34903900  0.22075200  0.90902600  1
  C  1176  1  0.29679100  0.20842300  0.95814000  1
  C  1177  1  0.27516700  0.21270600  0.93973400  1
  C  1178  1  0.26764100  0.23696300  0.93197900  1
  C  1179  1  0.24856200  0.24072400  0.91424000  1
  C  1180  1  0.23634300  0.22038400  0.90251900  1
  C  1181  1  0.24454200  0.19608500  0.90902100  1
  C  1182  1  0.26369900  0.19246500  0.92680500  1
  C  1183  1  0.29251800  0.18680500  0.97655400  1
  C  1184  1  0.30108000  0.23004700  0.97654300  1
  C  1185  1  0.28083200  0.24148500  0.98948900  1
  C  1186  1  0.28443500  0.26064200  0.00727484  1
  C  1187  1  0.30872800  0.26885900  0.01377280  1
  C  1188  1  0.32907800  0.25666200  0.00204384  1
  C  1189  1  0.32533000  0.23758400  0.98430300  1
  C  1190  1  0.31276600  0.17535800  0.98949500  1
  C  1191  1  0.30916000  0.15620800  0.00728384  1
  C  1192  1  0.28486600  0.14799400  0.01378180  1
  C  1193  1  0.26451800  0.16019000  0.00205384  1
  C  1194  1  0.26826600  0.17927000  0.98431400  1
  C  1211  1  0.31336000  0.28799500  0.03102980  1
  C  1212  1  0.37638100  0.19180500  0.88527300  1
  C  1215  1  0.21723200  0.22503400  0.88523400  1
  C  1217  1  0.28023200  0.12885700  0.03103880  1
  C  1219  1  0.49065100  0.22030200  0.76799400  1
  C  1220  1  0.50014600  0.24040000  0.75364600  1
  C  1221  1  0.51824200  0.23655000  0.73492200  1
  C  1222  1  0.52862600  0.21260800  0.72998300  1
  C  1223  1  0.51796500  0.19241500  0.74363000  1
  C  1224  1  0.49979400  0.19611600  0.76238800  1
  C  1225  1  0.54706800  0.20841300  0.70840700  1
  C  1226  1  0.52863900  0.20422600  0.68681900  1
  C  1227  1  0.51824300  0.18028300  0.68189700  1
  C  1228  1  0.50014400  0.17642500  0.66318000  1
  C  1229  1  0.49064100  0.19651900  0.64882800  1
  C  1230  1  0.49978300  0.22070700  0.65442700  1
  C  1231  1  0.51796300  0.22441100  0.67317800  1
  C  1232  1  0.56548900  0.23000800  0.70424000  1
  C  1233  1  0.56549100  0.18682400  0.71259300  1
  C  1234  1  0.57614100  0.17319000  0.69238500  1
  C  1235  1  0.59421700  0.15433800  0.69607100  1
  C  1236  1  0.60327800  0.14862500  0.72026200  1
  C  1237  1  0.59383900  0.16298600  0.74037500  1
  C  1238  1  0.57584200  0.18181000  0.73653300  1
  C  1239  1  0.57614000  0.24364200  0.72444500  1
  C  1240  1  0.59421500  0.26249400  0.72075700  1
  C  1241  1  0.60327400  0.26820200  0.69656500  1
  C  1242  1  0.59383700  0.25383800  0.67645300  1
  C  1243  1  0.57584400  0.23501200  0.68029900  1
  C  1260  1  0.62082600  0.12980000  0.72493000  1
  C  1261  1  0.47292900  0.22498500  0.78666200  1
  C  1264  1  0.47291500  0.19183100  0.63016600  1
  C  1266  1  0.62082000  0.28702900  0.69189300  1
  C  1268  1  0.10292900  0.19651000  0.76799400  1
  C  1269  1  0.09336300  0.17639700  0.75371100  1
  C  1270  1  0.07526700  0.18024500  0.73498900  1
  C  1271  1  0.06495700  0.20420500  0.72997900  1
  C  1272  1  0.07569200  0.22440600  0.74355300  1
  C  1273  1  0.09386100  0.22070700  0.76231500  1
  C  1274  1  0.04651700  0.20840600  0.70840200  1
  C  1275  1  0.06495500  0.21260600  0.68682500  1
  C  1276  1  0.07526300  0.23656500  0.68181300  1
  C  1277  1  0.09335900  0.24041100  0.66308900  1
  C  1278  1  0.10292700  0.22029800  0.64880800  1
  C  1279  1  0.09386000  0.19610000  0.65448900  1
  C  1280  1  0.07568900  0.19240300  0.67325100  1
  C  1281  1  0.02808800  0.18682000  0.70422000  1
  C  1282  1  0.02809600  0.22999700  0.71259300  1
  C  1283  1  0.01737300  0.24355600  0.69237300  1
  C  1284  1  0.99930491  0.26241600  0.69605600  1
  C  1285  1  0.99032091  0.26820600  0.72025600  1
  C  1286  1  0.99983391  0.25391700  0.74038800  1
  C  1287  1  0.01782200  0.23508400  0.73655000  1
  C  1288  1  0.01737700  0.17325200  0.72443800  1
  C  1289  1  0.99931291  0.15439000  0.72075500  1
  C  1290  1  0.99032791  0.14860200  0.69655300  1
  C  1291  1  0.99983190  0.16289700  0.67642300  1
  C  1292  1  0.01782100  0.18172800  0.68025900  1
  C  1309  1  0.97277590  0.28703800  0.72492000  1
  C  1310  1  0.12065300  0.19183100  0.78666000  1
  C  1313  1  0.12064700  0.22497600  0.63013800  1
  C  1315  1  0.97278890  0.12976600  0.69188900  1
  C  1317  1  0.35638800  0.51453900  0.19651600  1
  C  1318  1  0.34208100  0.50500000  0.17640900  1
  C  1319  1  0.32335100  0.48690900  0.18026000  1
  C  1320  1  0.31837300  0.47656700  0.20421200  1
  C  1321  1  0.33198100  0.48726900  0.22440900  1
  C  1322  1  0.35074100  0.50544000  0.22070900  1
  C  1323  1  0.29679700  0.45812900  0.20841100  1
  C  1324  1  0.27522000  0.47656900  0.21260900  1
  C  1325  1  0.27024200  0.48691300  0.23656000  1
  C  1326  1  0.25151600  0.50500800  0.24040800  1
  C  1327  1  0.23719900  0.51453700  0.22030100  1
  C  1328  1  0.24284800  0.50543500  0.19610900  1
  C  1329  1  0.26161200  0.48727000  0.19240900  1
  C  1330  1  0.29261200  0.43970100  0.18682300  1
  C  1331  1  0.30097300  0.43970200  0.23000100  1
  C  1332  1  0.28076300  0.42902600  0.24360700  1
  C  1333  1  0.28445300  0.41095800  0.26246500  1
  C  1334  1  0.30865100  0.40194100  0.26821500  1
  C  1335  1  0.32877100  0.41141700  0.25388700  1
  C  1336  1  0.32492800  0.42940100  0.23505300  1
  C  1337  1  0.31282600  0.42902200  0.17322100  1
  C  1338  1  0.30913800  0.41095600  0.15436100  1
  C  1339  1  0.28494200  0.40193600  0.14861000  1
  C  1340  1  0.26482000  0.41141500  0.16293400  1
  C  1341  1  0.26865900  0.42940100  0.18176800  1
  C  1358  1  0.31332100  0.38439900  0.28704700  1
  C  1359  1  0.37505800  0.53225900  0.19183500  1
  C  1362  1  0.21852400  0.53225000  0.22498200  1
  C  1364  1  0.28027400  0.38439000  0.12978100  1
  C  1366  1  0.35635100  0.90224100  0.22029300  1
  C  1367  1  0.34203300  0.91177500  0.24039500  1
  C  1368  1  0.32332000  0.92988100  0.23654100  1
  C  1369  1  0.31837200  0.94026200  0.21259800  1
  C  1370  1  0.33197900  0.92954700  0.19240500  1
  C  1371  1  0.35072500  0.91136100  0.19610300  1
  C  1372  1  0.29678900  0.95868900  0.20839600  1
  C  1373  1  0.27520700  0.94025900  0.20419400  1
  C  1374  1  0.27025800  0.92987700  0.18025000  1
  C  1375  1  0.25155000  0.91176800  0.17639700  1
  C  1376  1  0.23722500  0.90224200  0.19650000  1
  C  1377  1  0.24285300  0.91136200  0.22068800  1
  C  1378  1  0.26160100  0.92954400  0.22438600  1
  C  1379  1  0.29260200  0.97710500  0.22998900  1
  C  1380  1  0.30096500  0.97710400  0.18679900  1
  C  1381  1  0.28076000  0.98779400  0.17319500  1
  C  1382  1  0.28444700  0.00587349  0.15434600  1
  C  1383  1  0.30864100  0.01490650  0.14861400  1
  C  1384  1  0.32875800  0.00544049  0.16295600  1
  C  1385  1  0.32491200  0.98744200  0.18177600  1
  C  1386  1  0.31280800  0.98779500  0.24359100  1
  C  1387  1  0.30912200  0.00587049  0.26244300  1
  C  1388  1  0.28492800  0.01490250  0.26818100  1
  C  1389  1  0.26481100  0.00543449  0.25384300  1
  C  1390  1  0.26865400  0.98743800  0.23501900  1
  C  1407  1  0.31331400  0.03245050  0.12978500  1
  C  1408  1  0.37500400  0.88450300  0.22497600  1
  C  1411  1  0.21857000  0.88450700  0.19181500  1
  C  1413  1  0.28025600  0.03244950  0.28700800  1
  C  1415  1  0.78490300  0.64884100  0.90223800  1
  C  1416  1  0.76480100  0.66315200  0.91178400  1
  C  1417  1  0.76865600  0.68186300  0.92988900  1
  C  1418  1  0.79260200  0.68682000  0.94025700  1
  C  1419  1  0.81279400  0.67322200  0.92953000  1
  C  1420  1  0.80909400  0.65447600  0.91134600  1
  C  1421  1  0.79680700  0.70840600  0.95868200  1
  C  1422  1  0.80101100  0.72998600  0.94025400  1
  C  1423  1  0.82495600  0.73494300  0.92988200  1
  C  1424  1  0.82880900  0.75364900  0.91176900  1
  C  1425  1  0.80870700  0.76796300  0.90223100  1
  C  1426  1  0.78451700  0.76232900  0.91134100  1
  C  1427  1  0.78081800  0.74358200  0.92952500  1
  C  1428  1  0.77521500  0.71259300  0.97710000  1
  C  1429  1  0.81840200  0.70422500  0.97709800  1
  C  1430  1  0.83199500  0.72443400  0.98780100  1
  C  1431  1  0.85084500  0.72074500  0.00587784  1
  C  1432  1  0.85658900  0.69654900  0.01489980  1
  C  1433  1  0.84226200  0.67643000  0.00541984  1
  C  1434  1  0.82343900  0.68027600  0.98742300  1
  C  1435  1  0.76162600  0.69238300  0.98780300  1
  C  1436  1  0.74277400  0.69606800  0.00587684  1
  C  1437  1  0.73702300  0.72026400  0.01489680  1
  C  1438  1  0.75134700  0.74038500  0.00541484  1
  C  1439  1  0.77017100  0.73654100  0.98742100  1
  C  1456  1  0.87541600  0.69187700  0.03244680  1
  C  1457  1  0.78021900  0.63019300  0.88449600  1
  C  1460  1  0.81339000  0.78661500  0.88449000  1
  C  1462  1  0.71819400  0.72493300  0.03244280  1
  C  1464  1  0.80867300  0.64883200  0.51456300  1
  C  1465  1  0.82875700  0.66322600  0.50510600  1
  C  1466  1  0.82489600  0.68194100  0.48700400  1
  C  1467  1  0.80096600  0.68681500  0.47655800  1
  C  1468  1  0.78078800  0.67312700  0.48718700  1
  C  1469  1  0.78449400  0.65438200  0.50537100  1
  C  1470  1  0.79678300  0.70840100  0.45812500  1
  C  1471  1  0.79260200  0.72998500  0.47656000  1
  C  1472  1  0.76867300  0.73486100  0.48700800  1
  C  1473  1  0.76481600  0.75357300  0.50511500  1
  C  1474  1  0.78490000  0.76797100  0.51456500  1
  C  1475  1  0.80907700  0.76241900  0.50537100  1
  C  1476  1  0.81278200  0.74367200  0.48718900  1
  C  1477  1  0.81837500  0.71256600  0.43970200  1
  C  1478  1  0.77518500  0.70423200  0.43971100  1
  C  1479  1  0.76151100  0.72443000  0.42909600  1
  C  1480  1  0.74266600  0.72074300  0.41101300  1
  C  1481  1  0.73700400  0.69656000  0.40190500  1
  C  1482  1  0.75140900  0.67645800  0.41130100  1
  C  1483  1  0.77023200  0.68030300  0.42929600  1
  C  1484  1  0.83205800  0.69237000  0.42909800  1
  C  1485  1  0.85090500  0.69606400  0.41101900  1
  C  1486  1  0.85656400  0.72024800  0.40191100  1
  C  1487  1  0.84215400  0.74034900  0.41130700  1
  C  1488  1  0.82333100  0.73649800  0.42930000  1
  C  1505  1  0.71818200  0.69188500  0.38435500  1
  C  1506  1  0.81336200  0.63018100  0.53229900  1
  C  1509  1  0.78021100  0.78663000  0.53229300  1
  C  1511  1  0.87538700  0.72492500  0.38436200  1
  C  1513  1  0.79600400  0.56287800  0.60064500  1
  C  1514  1  0.81730300  0.57796200  0.59685200  1
  C  1515  1  0.81775200  0.59663200  0.57859200  1
  C  1516  1  0.79717100  0.60132700  0.56265800  1
  C  1517  1  0.77572100  0.58634100  0.56639200  1
  C  1518  1  0.77515700  0.56740900  0.58484700  1
  C  1523  1  0.85209300  0.59604500  0.59881300  1
  C  1527  1  0.79756600  0.85391400  0.60066000  1
  C  1528  1  0.77626800  0.83882900  0.59686500  1
  C  1529  1  0.77582500  0.82015300  0.57860700  1
  C  1530  1  0.79639400  0.81548700  0.56265100  1
  C  1531  1  0.81785100  0.83046100  0.56640100  1
  C  1532  1  0.81841300  0.84938600  0.58486400  1
  C  1537  1  0.74148400  0.82073500  0.59882700  1
  C  1541  1  0.79602800  0.85390400  0.81613200  1
  C  1542  1  0.81732900  0.83882400  0.81992900  1
  C  1543  1  0.81777200  0.82014200  0.83818000  1
  C  1544  1  0.79719700  0.81545800  0.85412300  1
  C  1545  1  0.77574100  0.83043800  0.85038000  1
  C  1546  1  0.77517800  0.84936900  0.83192500  1
  C  1551  1  0.85212200  0.82074700  0.81797500  1
  C  1555  1  0.79759100  0.56290200  0.81613800  1
  C  1556  1  0.77629600  0.57799400  0.81992000  1
  C  1557  1  0.77584300  0.59666400  0.83818200  1
  C  1558  1  0.79641600  0.60134700  0.85413000  1
  C  1559  1  0.81787100  0.58636800  0.85039100  1
  C  1560  1  0.81843700  0.56743700  0.83193400  1
  C  1565  1  0.74148900  0.59604800  0.81798500  1
  C  1569  1  0.44230500  0.60065200  0.20917300  1
  C  1570  1  0.42722900  0.59684200  0.18787000  1
  C  1571  1  0.40856000  0.57858000  0.18742900  1
  C  1572  1  0.40386200  0.56266200  0.20802200  1
  C  1573  1  0.41884200  0.56641200  0.22947500  1
  C  1574  1  0.43777200  0.58486900  0.23002900  1
  C  1579  1  0.40915200  0.59877500  0.15307400  1
  C  1583  1  0.15128500  0.60065400  0.20764000  1
  C  1584  1  0.16636300  0.59684400  0.22894000  1
  C  1585  1  0.18503700  0.57858600  0.22937800  1
  C  1586  1  0.18971000  0.56264400  0.20880000  1
  C  1587  1  0.17474300  0.56640800  0.18733900  1
  C  1588  1  0.15581900  0.58487100  0.18678200  1
  C  1593  1  0.18444600  0.59878400  0.26373200  1
  C  1597  1  0.15129000  0.81614400  0.20917500  1
  C  1598  1  0.16636800  0.81994300  0.18787200  1
  C  1599  1  0.18505000  0.83819400  0.18743100  1
  C  1600  1  0.18973500  0.85413400  0.20800900  1
  C  1601  1  0.17475900  0.85038800  0.22946600  1
  C  1602  1  0.15582700  0.83193300  0.23002700  1
  C  1607  1  0.18444200  0.81799400  0.15307600  1
  C  1611  1  0.44228100  0.81613100  0.20761100  1
  C  1612  1  0.42719100  0.81991900  0.22890700  1
  C  1613  1  0.40852100  0.83818400  0.22935700  1
  C  1614  1  0.40383600  0.85412400  0.20878100  1
  C  1615  1  0.41881500  0.85038100  0.18732400  1
  C  1616  1  0.43774300  0.83192300  0.18676000  1
  C  1621  1  0.40914400  0.81799400  0.26371700  1
  C  1625  1  0.40454100  0.20917600  0.56289200  1
  C  1626  1  0.40835100  0.18787000  0.57796500  1
  C  1627  1  0.42661300  0.18742700  0.59663600  1
  C  1628  1  0.44253100  0.20801800  0.60133700  1
  C  1629  1  0.43878100  0.22947200  0.58635900  1
  C  1630  1  0.42032400  0.23003100  0.56742900  1
  C  1635  1  0.40641600  0.15307300  0.59603500  1
  C  1639  1  0.40454200  0.20763200  0.85391700  1
  C  1640  1  0.40833500  0.22892700  0.83882700  1
  C  1641  1  0.42659600  0.22936900  0.82015300  1
  C  1642  1  0.44255300  0.20880000  0.81549300  1
  C  1643  1  0.43880300  0.18734300  0.83046900  1
  C  1644  1  0.42033900  0.18678300  0.84939100  1
  C  1649  1  0.40637200  0.26370800  0.82072500  1
  C  1653  1  0.18904300  0.20919300  0.85391200  1
  C  1654  1  0.18523800  0.18788800  0.83883600  1
  C  1655  1  0.16698500  0.18744500  0.82015900  1
  C  1656  1  0.15104800  0.20802700  0.81547000  1
  C  1657  1  0.15480200  0.22948700  0.83044100  1
  C  1658  1  0.17325700  0.23004800  0.84937100  1
  C  1663  1  0.18717700  0.15308800  0.82077000  1
  C  1667  1  0.18904900  0.20762500  0.56290000  1
  C  1668  1  0.18524800  0.22892400  0.57798200  1
  C  1669  1  0.16698400  0.22936900  0.59665000  1
  C  1670  1  0.15105500  0.20878400  0.60134100  1
  C  1671  1  0.15481400  0.18732300  0.58637000  1
  C  1672  1  0.17326900  0.18676600  0.56744000  1
  C  1677  1  0.18715300  0.26373900  0.59602200  1
  C  1681  1  0.29719600  0.06310150  0.10124400  1
  C  1682  1  0.31795400  0.07884950  0.09659280  1
  C  1683  1  0.31715700  0.09701250  0.07784080  1
  C  1684  1  0.29599000  0.10092200  0.06263080  1
  C  1685  1  0.27512700  0.08519850  0.06730280  1
  C  1686  1  0.27568800  0.06683950  0.08632380  1
  C  1691  1  0.35229700  0.09803650  0.09646180  1
  C  1695  1  0.29639900  0.35372000  0.10126300  1
  C  1696  1  0.27563800  0.33798300  0.09659880  1
  C  1697  1  0.27643900  0.31981500  0.07784980  1
  C  1698  1  0.29760500  0.31591700  0.06263280  1
  C  1699  1  0.31846800  0.33163600  0.06731380  1
  C  1700  1  0.31790900  0.34998700  0.08634480  1
  C  1705  1  0.24130200  0.31878300  0.09646980  1
  C  1709  1  0.29720500  0.35373500  0.31557300  1
  C  1710  1  0.31795700  0.33797800  0.32021400  1
  C  1711  1  0.31715500  0.31980200  0.33895400  1
  C  1712  1  0.29599500  0.31590500  0.35417600  1
  C  1713  1  0.27513400  0.33163300  0.34951000  1
  C  1714  1  0.27569500  0.34999500  0.33049000  1
  C  1719  1  0.35228500  0.31876300  0.32031800  1
  C  1723  1  0.29637700  0.06310050  0.31554700  1
  C  1724  1  0.27563300  0.07887150  0.32018000  1
  C  1725  1  0.27643000  0.09703350  0.33893500  1
  C  1726  1  0.29759200  0.10092500  0.35415700  1
  C  1727  1  0.31845100  0.08519550  0.34949000  1
  C  1728  1  0.31788600  0.06683550  0.33046700  1
  C  1733  1  0.24129000  0.09806050  0.32031800  1
  C  1737  1  0.94212090  0.10124800  0.70800700  1
  C  1738  1  0.92637890  0.09659350  0.68724700  1
  C  1739  1  0.90821390  0.07784350  0.68804000  1
  C  1740  1  0.90429690  0.06263950  0.70920900  1
  C  1741  1  0.92001490  0.06731150  0.73007600  1
  C  1742  1  0.93837890  0.08633250  0.72951700  1
  C  1747  1  0.90719790  0.09646150  0.65289800  1
  C  1751  1  0.65149400  0.10127700  0.70880400  1
  C  1752  1  0.66723700  0.09661850  0.72956200  1
  C  1753  1  0.68540700  0.07787150  0.72876200  1
  C  1754  1  0.68930300  0.06265250  0.70759800  1
  C  1755  1  0.67357900  0.06732450  0.68673700  1
  C  1756  1  0.65522500  0.08635550  0.68729600  1
  C  1761  1  0.68644400  0.09649850  0.76389600  1
  C  1765  1  0.65146900  0.31557000  0.70801500  1
  C  1766  1  0.66723200  0.32021100  0.68726600  1
  C  1767  1  0.68540600  0.33895200  0.68807200  1
  C  1768  1  0.68929500  0.35417600  0.70923200  1
  C  1769  1  0.67356400  0.34951000  0.73008900  1
  C  1770  1  0.65520300  0.33048800  0.72952500  1
  C  1775  1  0.68645600  0.32031400  0.65294300  1
  C  1779  1  0.94211190  0.31555900  0.70879400  1
  C  1780  1  0.92633990  0.32018900  0.72953600  1
  C  1781  1  0.90817590  0.33894100  0.72873800  1
  C  1782  1  0.90428390  0.35416300  0.70757600  1
  C  1783  1  0.92001490  0.34949600  0.68671800  1
  C  1784  1  0.93837890  0.33047600  0.68728500  1
  C  1789  1  0.90714790  0.32032300  0.76387700  1
  C  1793  1  0.90395890  0.70799300  0.06309580  1
  C  1794  1  0.90860990  0.68723500  0.07884380  1
  C  1795  1  0.92736190  0.68803000  0.09700780  1
  C  1796  1  0.94256990  0.70919700  0.10091900  1
  C  1797  1  0.93790190  0.73006000  0.08519480  1
  C  1798  1  0.91888090  0.72949900  0.06683280  1
  C  1803  1  0.90873890  0.65289200  0.09803380  1
  C  1807  1  0.90392690  0.70880400  0.35370700  1
  C  1808  1  0.90858390  0.72956400  0.33796500  1
  C  1809  1  0.92733390  0.72876500  0.31979900  1
  C  1810  1  0.94255790  0.70760500  0.31590600  1
  C  1811  1  0.93788890  0.68674400  0.33163000  1
  C  1812  1  0.91885590  0.68730000  0.34998000  1
  C  1817  1  0.90870290  0.76389800  0.31875900  1
  C  1821  1  0.68963500  0.70800300  0.35370900  1
  C  1822  1  0.68499400  0.68725500  0.33794900  1
  C  1823  1  0.66625300  0.68805700  0.31977400  1
  C  1824  1  0.65103100  0.70921700  0.31588000  1
  C  1825  1  0.65569500  0.73007600  0.33161000  1
  C  1826  1  0.67471600  0.72951300  0.34997300  1
  C  1831  1  0.68488900  0.65292800  0.31873000  1
  C  1835  1  0.68966200  0.70881200  0.06309780  1
  C  1836  1  0.68502300  0.72955700  0.07886280  1
  C  1837  1  0.66626800  0.72876100  0.09702480  1
  C  1838  1  0.65105200  0.70759600  0.10092100  1
  C  1839  1  0.65572700  0.68673400  0.08519880  1
  C  1840  1  0.67474900  0.68729800  0.06683680  1
  C  1845  1  0.68487300  0.76390600  0.09804180  1
  N  597  1  0.02683300  0.42092000  0.39341800  1
  N  601  1  0.98393600  0.35859800  0.43177300  1
  N  602  1  0.98314400  0.43223800  0.35820200  1
  N  611  1  0.94061700  0.62199800  0.39341100  1
  N  615  1  0.98351400  0.68431500  0.43178100  1
  N  616  1  0.98431100  0.61068400  0.35820200  1
  N  625  1  0.02687000  0.62199700  0.64949400  1
  N  629  1  0.98396300  0.68431000  0.61112900  1
  N  630  1  0.98317000  0.61066300  0.68469400  1
  N  639  1  0.94062500  0.42091600  0.64950100  1
  N  643  1  0.98354200  0.35861600  0.61112900  1
  N  644  1  0.98432200  0.43225200  0.68470300  1
  N  653  1  0.58427600  0.39338800  0.97834200  1
  N  657  1  0.64659000  0.43177500  0.02123000  1
  N  658  1  0.57295100  0.35820700  0.02205200  1
  N  667  1  0.38318600  0.39337600  0.06458800  1
  N  671  1  0.32088400  0.43177500  0.02169500  1
  N  672  1  0.39451500  0.35819900  0.02087800  1
  N  681  1  0.38319300  0.64951200  0.97832800  1
  N  685  1  0.32088400  0.61114000  0.02123600  1
  N  686  1  0.39452800  0.68470500  0.02203400  1
  N  695  1  0.58427300  0.64950800  0.06457500  1
  N  699  1  0.64657100  0.61112900  0.02166200  1
  N  700  1  0.57293200  0.68470200  0.02087000  1
  N  709  1  0.61180200  0.97833900  0.42091400  1
  N  713  1  0.57341700  0.02123800  0.35860700  1
  N  714  1  0.64698600  0.02204700  0.43224400  1
  N  723  1  0.61179000  0.06457300  0.62199100  1
  N  727  1  0.57341500  0.02168500  0.68431200  1
  N  728  1  0.64699800  0.02088000  0.61068800  1
  N  737  1  0.35566000  0.97834300  0.62201700  1
  N  741  1  0.39404700  0.02125600  0.68431400  1
  N  742  1  0.32047900  0.02205100  0.61067300  1
  N  751  1  0.35564400  0.06459100  0.42089300  1
  N  755  1  0.39404900  0.02168100  0.35860500  1
  N  756  1  0.32048200  0.02087200  0.43224600  1
  N  765  1  0.52597200  0.92194200  0.89120300  1
  N  769  1  0.48314000  0.85873400  0.93222600  1
  N  770  1  0.48395000  0.93201500  0.85830300  1
  N  779  1  0.44149200  0.12103000  0.89117500  1
  N  783  1  0.48433200  0.18421200  0.93223600  1
  N  784  1  0.48352600  0.11094400  0.85829900  1
  N  793  1  0.52598300  0.12100700  0.15172500  1
  N  797  1  0.48314800  0.18422000  0.11070700  1
  N  798  1  0.48395800  0.11092800  0.18461800  1
  N  807  1  0.44148700  0.92193700  0.15171400  1
  N  811  1  0.48431700  0.85872800  0.11068200  1
  N  812  1  0.48351100  0.93200700  0.18460700  1
  N  821  1  0.08328800  0.89120700  0.47922200  1
  N  825  1  0.14648400  0.93223300  0.52206200  1
  N  826  1  0.07320100  0.85831500  0.52124700  1
  N  835  1  0.88419500  0.89120500  0.56370500  1
  N  839  1  0.82099800  0.93224700  0.52086900  1
  N  840  1  0.89427500  0.85831900  0.52167500  1
  N  849  1  0.88420500  0.15172300  0.47924600  1
  N  853  1  0.82098400  0.11070400  0.52206700  1
  N  854  1  0.89427200  0.18461800  0.52127100  1
  N  863  1  0.08326800  0.15171800  0.56367700  1
  N  867  1  0.14648400  0.11069500  0.52085600  1
  N  868  1  0.07319400  0.18460800  0.52165000  1
  N  877  1  0.11399600  0.47921400  0.92193700  1
  N  881  1  0.07297700  0.52205100  0.85872700  1
  N  882  1  0.14689400  0.52123500  0.93201300  1
  N  891  1  0.11400100  0.56371000  0.12100900  1
  N  895  1  0.07295400  0.52086700  0.18420100  1
  N  896  1  0.14689500  0.52168600  0.11093900  1
  N  905  1  0.85347900  0.47923000  0.12097600  1
  N  909  1  0.89449800  0.52205900  0.18419500  1
  N  910  1  0.82058500  0.52125500  0.11090400  1
  N  919  1  0.85347900  0.56370700  0.92192200  1
  N  923  1  0.89452500  0.52087400  0.85872500  1
  N  924  1  0.82059900  0.52167400  0.93200200  1
  N  1521  1  0.83989100  0.60786300  0.58036200  1
  N  1525  1  0.79699400  0.54554100  0.61871700  1
  N  1526  1  0.79620200  0.61918100  0.54514600  1
  N  1535  1  0.75367500  0.80894100  0.58035500  1
  N  1539  1  0.79657200  0.87125800  0.61872500  1
  N  1540  1  0.79736900  0.79762700  0.54514600  1
  N  1549  1  0.83992800  0.80894000  0.83643800  1
  N  1553  1  0.79702100  0.87125300  0.79807300  1
  N  1554  1  0.79622800  0.79760600  0.87163800  1
  N  1563  1  0.75368300  0.60785900  0.83644500  1
  N  1567  1  0.79660000  0.54555900  0.79807300  1
  N  1568  1  0.79738000  0.61919500  0.87164700  1
  N  1577  1  0.39733400  0.58033100  0.16528600  1
  N  1581  1  0.45964800  0.61871800  0.20817400  1
  N  1582  1  0.38600900  0.54515000  0.20899600  1
  N  1591  1  0.19624400  0.58031900  0.25153200  1
  N  1595  1  0.13394200  0.61871800  0.20863900  1
  N  1596  1  0.20757300  0.54514200  0.20782200  1
  N  1605  1  0.19625100  0.83645500  0.16527200  1
  N  1609  1  0.13394200  0.79808300  0.20818000  1
  N  1610  1  0.20758600  0.87164800  0.20897800  1
  N  1619  1  0.39733100  0.83645100  0.25151900  1
  N  1623  1  0.45962900  0.79807200  0.20860600  1
  N  1624  1  0.38599000  0.87164500  0.20781400  1
  N  1633  1  0.42486000  0.16528200  0.60785800  1
  N  1637  1  0.38647500  0.20818100  0.54555100  1
  N  1638  1  0.46004400  0.20899000  0.61918800  1
  N  1647  1  0.42484800  0.25151600  0.80893500  1
  N  1651  1  0.38647300  0.20862800  0.87125600  1
  N  1652  1  0.46005600  0.20782300  0.79763200  1
  N  1661  1  0.16871800  0.16528600  0.80896100  1
  N  1665  1  0.20710500  0.20819900  0.87125800  1
  N  1666  1  0.13353700  0.20899400  0.79761700  1
  N  1675  1  0.16870200  0.25153400  0.60783700  1
  N  1679  1  0.20710700  0.20862400  0.54554900  1
  N  1680  1  0.13354000  0.20781500  0.61919000  1
  N  1689  1  0.33903000  0.10888500  0.07814680  1
  N  1693  1  0.29619800  0.04567750  0.11917000  1
  N  1694  1  0.29700800  0.11895800  0.04524680  1
  N  1703  1  0.25455000  0.30797300  0.07811880  1
  N  1707  1  0.29739000  0.37115500  0.11918000  1
  N  1708  1  0.29658400  0.29788700  0.04524280  1
  N  1717  1  0.33904100  0.30795000  0.33866900  1
  N  1721  1  0.29620600  0.37116300  0.29765100  1
  N  1722  1  0.29701600  0.29787100  0.37156200  1
  N  1731  1  0.25454500  0.10888000  0.33865800  1
  N  1735  1  0.29737500  0.04567150  0.29762600  1
  N  1736  1  0.29656900  0.11895000  0.37155100  1
  N  1745  1  0.89634600  0.07815050  0.66616600  1
  N  1749  1  0.95954190  0.11917600  0.70900600  1
  N  1750  1  0.88625900  0.04525850  0.70819100  1
  N  1759  1  0.69725300  0.07814850  0.75064900  1
  N  1763  1  0.63405600  0.11919000  0.70781300  1
  N  1764  1  0.70733300  0.04526250  0.70861900  1
  N  1773  1  0.69726300  0.33866600  0.66619000  1
  N  1777  1  0.63404200  0.29764700  0.70901100  1
  N  1778  1  0.70733000  0.37156100  0.70821500  1
  N  1787  1  0.89632600  0.33866100  0.75062100  1
  N  1791  1  0.95954190  0.29763800  0.70780000  1
  N  1792  1  0.88625200  0.37155100  0.70859400  1
  N  1801  1  0.92705390  0.66615700  0.10888100  1
  N  1805  1  0.88603500  0.70899400  0.04567080  1
  N  1806  1  0.95995190  0.70817800  0.11895700  1
  N  1815  1  0.92705890  0.75065300  0.30795300  1
  N  1819  1  0.88601200  0.70781000  0.37114500  1
  N  1820  1  0.95995290  0.70862900  0.29788300  1
  N  1829  1  0.66653700  0.66617300  0.30792000  1
  N  1833  1  0.70755600  0.70900200  0.37113900  1
  N  1834  1  0.63364300  0.70819800  0.29784800  1
  N  1843  1  0.66653700  0.75065000  0.10886600  1
  N  1847  1  0.70758300  0.70781700  0.04566880  1
  N  1848  1  0.63365700  0.70861700  0.11894600  1
  O  598  1  0.02601100  0.39018000  0.42310100  1
  O  612  1  0.94143700  0.65273300  0.42309900  1
  O  626  1  0.02604700  0.65274200  0.61981500  1
  O  640  1  0.94145400  0.39017700  0.61981700  1
  O  654  1  0.61501300  0.42307400  0.97915100  1
  O  668  1  0.35245300  0.42306700  0.06377800  1
  O  682  1  0.35244800  0.61983300  0.97914900  1
  O  696  1  0.61501200  0.61982300  0.06375100  1
  O  710  1  0.58211700  0.97915400  0.39017500  1
  O  724  1  0.58209600  0.06375600  0.65272200  1
  O  738  1  0.38534300  0.97916200  0.65275800  1
  O  752  1  0.38533000  0.06377500  0.39015400  1
  O  766  1  0.52709100  0.89245000  0.92211400  1
  O  780  1  0.44036200  0.15053000  0.92208100  1
  O  794  1  0.52711200  0.15052200  0.12083400  1
  O  808  1  0.44035700  0.89243500  0.12081100  1
  O  822  1  0.11278200  0.92211400  0.47810600  1
  O  836  1  0.85469100  0.92210500  0.56483400  1
  O  850  1  0.85469400  0.12083000  0.47811100  1
  O  864  1  0.11277500  0.12082000  0.56481000  1
  O  878  1  0.08308500  0.47809900  0.89244400  1
  O  892  1  0.08309200  0.56483600  0.15050600  1
  O  906  1  0.88437200  0.47809700  0.15048800  1
  O  920  1  0.88438200  0.56483800  0.89242000  1
  O  1522  1  0.83906900  0.57712300  0.61004500  1
  O  1536  1  0.75449500  0.83967600  0.61004300  1
  O  1550  1  0.83910500  0.83968500  0.80675900  1
  O  1564  1  0.75451200  0.57712000  0.80676100  1
  O  1578  1  0.42807100  0.61001700  0.16609500  1
  O  1592  1  0.16551100  0.61001000  0.25072200  1
  O  1606  1  0.16550600  0.80677600  0.16609300  1
  O  1620  1  0.42807000  0.80676600  0.25069500  1
  O  1634  1  0.39517500  0.16609700  0.57711900  1
  O  1648  1  0.39515400  0.25069900  0.83966600  1
  O  1662  1  0.19840100  0.16610500  0.83970200  1
  O  1676  1  0.19838800  0.25071800  0.57709800  1
  O  1690  1  0.34014900  0.07939350  0.10905800  1
  O  1704  1  0.25342000  0.33747300  0.10902500  1
  O  1718  1  0.34017000  0.33746500  0.30777800  1
  O  1732  1  0.25341500  0.07937850  0.30775500  1
  O  1746  1  0.92583990  0.10905700  0.66505000  1
  O  1760  1  0.66774900  0.10904800  0.75177800  1
  O  1774  1  0.66775200  0.30777300  0.66505500  1
  O  1788  1  0.92583290  0.30776300  0.75175400  1
  O  1802  1  0.89614300  0.66504200  0.07938780  1
  O  1816  1  0.89615000  0.75177900  0.33745000  1
  O  1830  1  0.69743000  0.66504000  0.33743200  1
  O  1844  1  0.69744000  0.75178100  0.07936380  1
