# generated using pymatgen
data_H9C18N2O5
_symmetry_space_group_name_H-M   'P 1'
_cell_length_a   39.55340000
_cell_length_b   39.55340000
_cell_length_c   55.62270000
_cell_angle_alpha   90.00000000
_cell_angle_beta   90.00000000
_cell_angle_gamma   90.00000000
_symmetry_Int_Tables_number   1
_chemical_formula_structural   H9C18N2O5
_chemical_formula_sum   'H288 C576 N64 O160'
_cell_volume   87020.12620869
_cell_formula_units_Z   32
loop_
 _symmetry_equiv_pos_site_id
 _symmetry_equiv_pos_as_xyz
  1  'x, y, z'
loop_
 _atom_site_type_symbol
 _atom_site_label
 _atom_site_symmetry_multiplicity
 _atom_site_fract_x
 _atom_site_fract_y
 _atom_site_fract_z
 _atom_site_occupancy
  H  7  1  0.11353800  0.42391600  0.87529100  1
  H  16  1  0.18286700  0.35545900  0.87043700  1
  H  17  1  0.12350300  0.43708300  0.78705200  1
  H  18  1  0.18684000  0.35959500  0.95971900  1
  H  19  1  0.21020800  0.41738000  0.84462000  1
  H  20  1  0.17249700  0.44982500  0.90411000  1
  H  27  1  0.38128500  0.53922300  0.37525500  1
  H  36  1  0.31200600  0.60770800  0.37035700  1
  H  37  1  0.37127800  0.52601300  0.28703700  1
  H  38  1  0.30804900  0.60373100  0.45965200  1
  H  39  1  0.28460800  0.54578600  0.34460200  1
  H  40  1  0.32229800  0.51339000  0.40411500  1
  H  47  1  0.80413300  0.86123100  0.13255500  1
  H  56  1  0.87559600  0.92920500  0.12248700  1
  H  57  1  0.80214600  0.85026100  0.04647100  1
  H  58  1  0.87180900  0.94050600  0.21085400  1
  H  59  1  0.81772500  0.95104900  0.09358800  1
  H  60  1  0.78100500  0.92239400  0.15615700  1
  H  67  1  0.69069700  0.10195600  0.63257000  1
  H  76  1  0.61924400  0.03403500  0.62245600  1
  H  77  1  0.69269400  0.11298600  0.54648900  1
  H  78  1  0.62299300  0.02264800  0.71081900  1
  H  79  1  0.67713500  0.01216700  0.59356100  1
  H  80  1  0.71383500  0.04072400  0.65614300  1
  H  87  1  0.37612700  0.42005200  0.62111300  1
  H  96  1  0.30626200  0.35145400  0.62786000  1
  H  97  1  0.37359600  0.42595300  0.71030100  1
  H  98  1  0.29405800  0.35759500  0.53935800  1
  H  99  1  0.28231700  0.41104700  0.65563800  1
  H  100  1  0.31551500  0.44645000  0.59484800  1
  H  107  1  0.11859700  0.54312100  0.12113100  1
  H  116  1  0.18843600  0.61174500  0.12792900  1
  H  117  1  0.12117100  0.53716000  0.21030600  1
  H  118  1  0.20063700  0.60578900  0.03941000  1
  H  119  1  0.21241500  0.55215700  0.15563900  1
  H  120  1  0.17921100  0.51681300  0.09481900  1
  H  127  1  0.68566300  0.86300000  0.36679200  1
  H  136  1  0.61198000  0.93032200  0.37505700  1
  H  137  1  0.68444200  0.85109800  0.45317800  1
  H  138  1  0.62210600  0.94951100  0.28783000  1
  H  139  1  0.66699500  0.95187800  0.40578000  1
  H  140  1  0.70894000  0.92585200  0.34467900  1
  H  147  1  0.80902500  0.10015700  0.86676100  1
  H  156  1  0.88273300  0.03286800  0.87506800  1
  H  157  1  0.81034800  0.11222300  0.95313300  1
  H  158  1  0.87259000  0.01357300  0.78785400  1
  H  159  1  0.82777000  0.01136100  0.90582500  1
  H  160  1  0.78575500  0.03726600  0.84470700  1
  H  167  1  0.86621400  0.53842700  0.11213700  1
  H  176  1  0.80002200  0.60911300  0.12273300  1
  H  177  1  0.87679200  0.53569600  0.19815800  1
  H  178  1  0.78704000  0.60703800  0.03450700  1
  H  179  1  0.77598600  0.54974000  0.15094000  1
  H  180  1  0.80314200  0.51484800  0.08833800  1
  H  187  1  0.62853000  0.42487400  0.61215600  1
  H  196  1  0.69465600  0.35416400  0.62279200  1
  H  197  1  0.61795200  0.42764500  0.69817800  1
  H  198  1  0.70766900  0.35614600  0.53456500  1
  H  199  1  0.71874500  0.41353700  0.65096900  1
  H  200  1  0.69164200  0.44840400  0.58835800  1
  H  207  1  0.19670000  0.10607400  0.86498100  1
  H  216  1  0.13240900  0.03299800  0.87810700  1
  H  217  1  0.20830800  0.10951200  0.95067400  1
  H  218  1  0.11580100  0.02879500  0.79244200  1
  H  219  1  0.19652000  0.01209300  0.89970600  1
  H  220  1  0.21931300  0.04808300  0.83628200  1
  H  227  1  0.29795400  0.85718600  0.36494600  1
  H  236  1  0.36226700  0.93023100  0.37812600  1
  H  237  1  0.28636200  0.85368100  0.45064300  1
  H  238  1  0.37894600  0.93443600  0.29247000  1
  H  239  1  0.29818200  0.95112900  0.39972500  1
  H  240  1  0.27538500  0.91518600  0.33626900  1
  H  247  1  0.63120500  0.54371800  0.37942000  1
  H  256  1  0.69645800  0.61697400  0.37124400  1
  H  257  1  0.61593900  0.54605200  0.29334000  1
  H  258  1  0.71854000  0.60372300  0.45771400  1
  H  259  1  0.71880500  0.56152200  0.33881300  1
  H  260  1  0.69661300  0.51856000  0.39926700  1
  H  267  1  0.86356900  0.41958200  0.87942300  1
  H  276  1  0.79836100  0.34629600  0.87119200  1
  H  277  1  0.87889300  0.41727100  0.79334800  1
  H  278  1  0.77618600  0.35945100  0.95766000  1
  H  279  1  0.77600700  0.40174300  0.83878300  1
  H  280  1  0.79812400  0.44469000  0.89925800  1
  H  287  1  0.29891000  0.09856900  0.62750200  1
  H  296  1  0.36942200  0.03094900  0.61283200  1
  H  297  1  0.29314800  0.11575600  0.54198900  1
  H  298  1  0.37631900  0.02028400  0.69843000  1
  H  299  1  0.31025100  0.01149300  0.58534300  1
  H  300  1  0.27721300  0.03634600  0.64978300  1
  H  307  1  0.19595400  0.86478500  0.12756800  1
  H  316  1  0.12538900  0.93232200  0.11282000  1
  H  317  1  0.20165900  0.84737100  0.04207200  1
  H  318  1  0.11849500  0.94309500  0.19840100  1
  H  319  1  0.18451200  0.95173400  0.08528800  1
  H  320  1  0.21761800  0.92705100  0.14975800  1
  H  327  1  0.18383600  0.48876500  0.79075200  1
  H  334  1  0.28100500  0.37997200  0.69496600  1
  H  335  1  0.31281500  0.47948100  0.70986100  1
  H  336  1  0.21289700  0.38788100  0.80388300  1
  H  341  1  0.19502600  0.39533100  0.71761800  1
  H  344  1  0.20740300  0.50984500  0.71932400  1
  H  351  1  0.31093200  0.47434600  0.29073900  1
  H  358  1  0.21375100  0.58317600  0.19496900  1
  H  359  1  0.18197400  0.48365500  0.20984600  1
  H  360  1  0.28191800  0.57524500  0.30386500  1
  H  365  1  0.29974700  0.56782500  0.21759600  1
  H  368  1  0.28737100  0.45327300  0.21931000  1
  H  375  1  0.74991800  0.91678300  0.03980900  1
  H  382  1  0.86005000  0.01545200  0.94484000  1
  H  383  1  0.75867100  0.04205900  0.95859500  1
  H  384  1  0.85013700  0.94672500  0.05452900  1
  H  389  1  0.84949500  0.92951600  0.96601700  1
  H  392  1  0.73288500  0.93686000  0.96662100  1
  H  399  1  0.74493500  0.04648500  0.53978800  1
  H  406  1  0.63474700  0.94785300  0.44482000  1
  H  407  1  0.73613900  0.92124100  0.45855000  1
  H  408  1  0.64472100  0.01653700  0.55451400  1
  H  413  1  0.64531500  0.03380400  0.46599600  1
  H  416  1  0.76194000  0.02646200  0.46658400  1
  H  423  1  0.81064300  0.48279300  0.20508000  1
  H  430  1  0.71334700  0.59428000  0.29981800  1
  H  431  1  0.68572100  0.49300700  0.28670300  1
  H  432  1  0.78063600  0.58279400  0.18969400  1
  H  437  1  0.79854300  0.58327500  0.27830200  1
  H  440  1  0.79063800  0.46683200  0.27841100  1
  H  447  1  0.68411100  0.48051500  0.70510900  1
  H  454  1  0.78149000  0.36900000  0.79979500  1
  H  455  1  0.80906600  0.47028600  0.78669400  1
  H  456  1  0.71407800  0.38050600  0.68971800  1
  H  461  1  0.69627900  0.37998500  0.77834700  1
  H  464  1  0.70416200  0.49646600  0.77844100  1
  H  471  1  0.26374000  0.04578400  0.95441200  1
  H  478  1  0.15288000  0.94247000  0.04604600  1
  H  479  1  0.25571500  0.91854600  0.03576800  1
  H  480  1  0.16478600  0.01297700  0.93835500  1
  H  485  1  0.16168600  0.02756000  0.02617100  1
  H  488  1  0.28027400  0.02326900  0.02706600  1
  H  495  1  0.23094000  0.91742100  0.45441500  1
  H  502  1  0.34187200  0.02063500  0.54607900  1
  H  503  1  0.23905100  0.04463800  0.53578300  1
  H  504  1  0.32992100  0.95016900  0.43837600  1
  H  509  1  0.33301600  0.93553500  0.52621100  1
  H  512  1  0.21442300  0.93989100  0.52708700  1
  H  519  1  0.68262700  0.00030400  0.29224700  1
  H  526  1  0.77987700  0.89288700  0.19558500  1
  H  527  1  0.81012500  0.99310800  0.20978600  1
  H  528  1  0.71229800  0.89917200  0.30380400  1
  H  533  1  0.69380600  0.90702400  0.21787000  1
  H  536  1  0.70490800  0.02317500  0.22095600  1
  H  543  1  0.81206200  0.96279500  0.79228700  1
  H  550  1  0.71493700  0.07022700  0.69557500  1
  H  551  1  0.68465700  0.97001000  0.70976200  1
  H  552  1  0.78240800  0.06393400  0.80383300  1
  H  557  1  0.80096500  0.05610700  0.71789900  1
  H  560  1  0.78984900  0.93993700  0.72098700  1
  H  567  1  0.24350600  0.41886900  0.54176200  1
  H  574  1  0.35339100  0.51106400  0.44367100  1
  H  575  1  0.25407900  0.54357200  0.45856800  1
  H  576  1  0.34510100  0.44633800  0.55384900  1
  H  581  1  0.33795800  0.42544800  0.46710600  1
  H  584  1  0.22283400  0.43863000  0.46953500  1
  H  591  1  0.25120400  0.54451500  0.04176800  1
  H  598  1  0.14141900  0.45219900  0.94366100  1
  H  599  1  0.24075400  0.41979200  0.95859000  1
  H  600  1  0.14961600  0.51699000  0.05381900  1
  H  605  1  0.15678500  0.53786800  0.96706100  1
  H  608  1  0.27192900  0.52477900  0.96953900  1
  H  615  1  0.31090900  0.96740900  0.70348900  1
  H  622  1  0.21136800  0.07914000  0.79704800  1
  H  623  1  0.18672100  0.97657300  0.78611400  1
  H  624  1  0.28044100  0.06747100  0.68858700  1
  H  629  1  0.29642500  0.07006700  0.77652900  1
  H  632  1  0.29072800  0.95083100  0.77659600  1
  H  639  1  0.18393100  0.99597000  0.20346900  1
  H  646  1  0.28334600  0.88413600  0.29703100  1
  H  647  1  0.30805700  0.98669400  0.28611700  1
  H  648  1  0.21434400  0.89589800  0.18854000  1
  H  653  1  0.19832300  0.89323600  0.27648900  1
  H  656  1  0.20407000  0.01246500  0.27659200  1
  H  663  1  0.77061400  0.54458300  0.45232000  1
  H  670  1  0.66232700  0.44902800  0.54872300  1
  H  671  1  0.76210400  0.41664200  0.53536900  1
  H  672  1  0.67010900  0.51345800  0.43991900  1
  H  677  1  0.67821500  0.53426800  0.52513200  1
  H  680  1  0.79276100  0.52236200  0.52356600  1
  H  687  1  0.72412200  0.41862400  0.95228500  1
  H  694  1  0.83242900  0.51417600  0.04869400  1
  H  695  1  0.73264500  0.54654500  0.03534500  1
  H  696  1  0.82463700  0.44972400  0.93990300  1
  H  701  1  0.81653400  0.42891400  0.02512500  1
  H  704  1  0.70197300  0.44081400  0.02353900  1
  H  711  1  0.26807800  0.14756900  0.91194200  1
  H  718  1  0.16210100  0.31012300  0.93334800  1
  H  719  1  0.24177300  0.31801800  0.88338100  1
  H  720  1  0.16509000  0.15129400  0.89258300  1
  H  725  1  0.19737000  0.22639800  0.96019000  1
  H  728  1  0.29142100  0.23999600  0.94373100  1
  H  735  1  0.22662000  0.81557800  0.41187100  1
  H  742  1  0.33281300  0.65316000  0.43323500  1
  H  743  1  0.25311600  0.64518400  0.38329500  1
  H  744  1  0.32962300  0.81203400  0.39253000  1
  H  749  1  0.29749400  0.73683900  0.46007800  1
  H  752  1  0.20341600  0.72308100  0.44360800  1
  H  759  1  0.08679800  0.00592700  0.15956800  1
  H  766  1  0.91944100  0.91089500  0.18427700  1
  H  767  1  0.91388400  0.99013700  0.13380200  1
  H  768  1  0.07640100  0.90370200  0.13943000  1
  H  773  1  0.00697800  0.94031100  0.20837500  1
  H  776  1  0.99740500  0.03425300  0.19289100  1
  H  783  1  0.40799800  0.95740400  0.65961700  1
  H  790  1  0.57540400  0.05235800  0.68422700  1
  H  791  1  0.58091100  0.97309200  0.63377100  1
  H  792  1  0.41842700  0.05959700  0.63939800  1
  H  797  1  0.48786700  0.02301800  0.70834300  1
  H  800  1  0.49741100  0.92907300  0.69290700  1
  H  807  1  0.22850000  0.14160700  0.58018200  1
  H  814  1  0.32232400  0.30904600  0.56412700  1
  H  815  1  0.24610900  0.31364700  0.61696500  1
  H  816  1  0.32853100  0.15103200  0.60552200  1
  H  821  1  0.28881000  0.22494900  0.53758000  1
  H  824  1  0.20106100  0.23124300  0.54995100  1
  H  831  1  0.26632600  0.82160800  0.08028700  1
  H  838  1  0.17237100  0.65430300  0.06423100  1
  H  839  1  0.24856900  0.64956700  0.11707300  1
  H  840  1  0.16629700  0.81230900  0.10565900  1
  H  845  1  0.20594100  0.73838400  0.03774100  1
  H  848  1  0.29366400  0.73195000  0.05009000  1
  H  855  1  0.40116900  0.00198400  0.33083400  1
  H  862  1  0.57305600  0.91753700  0.31120500  1
  H  863  1  0.57453500  0.99212500  0.36529700  1
  H  864  1  0.41657100  0.90211200  0.35497000  1
  H  869  1  0.48616800  0.94697000  0.28599300  1
  H  872  1  0.48864600  0.03455800  0.29945700  1
  H  879  1  0.09354700  0.96124500  0.83079500  1
  H  886  1  0.92162200  0.04562800  0.81122400  1
  H  887  1  0.92019400  0.97104700  0.86531700  1
  H  888  1  0.07812400  0.06110100  0.85496300  1
  H  893  1  0.00850800  0.01624400  0.78599100  1
  H  896  1  0.00605300  0.92865300  0.79944300  1
  H  903  1  0.73373700  0.82418500  0.08386200  1
  H  910  1  0.81920600  0.65278100  0.06117300  1
  H  911  1  0.74048800  0.65012900  0.11217800  1
  H  912  1  0.83370800  0.80870900  0.10770600  1
  H  917  1  0.79365900  0.74138500  0.03761500  1
  H  920  1  0.70231100  0.73653300  0.05071200  1
  H  927  1  0.76107200  0.13910700  0.58391000  1
  H  934  1  0.67544900  0.31043600  0.56126500  1
  H  935  1  0.75419800  0.31312400  0.61224100  1
  H  936  1  0.66107300  0.15443700  0.60774400  1
  H  941  1  0.70099700  0.22185500  0.53770600  1
  H  944  1  0.79240000  0.22684000  0.55081200  1
  H  951  1  0.75614500  0.82992600  0.41559800  1
  H  958  1  0.68348600  0.65192100  0.43584700  1
  H  959  1  0.75693600  0.65683600  0.38108900  1
  H  960  1  0.65726300  0.80778400  0.39211500  1
  H  965  1  0.70758300  0.74000200  0.46202500  1
  H  968  1  0.79459400  0.74447000  0.44755600  1
  H  975  1  0.73859400  0.13333100  0.91555900  1
  H  982  1  0.81130300  0.31128600  0.93576600  1
  H  983  1  0.73786600  0.30641900  0.88100300  1
  H  984  1  0.83747300  0.15539700  0.89202500  1
  H  989  1  0.78720900  0.22321400  0.96191900  1
  H  992  1  0.70021000  0.21882400  0.94748300  1
  H  999  1  0.58877600  0.49431900  0.66086800  1
  H  1006  1  0.42195900  0.39977100  0.68366500  1
  H  1007  1  0.41491000  0.47802200  0.63251800  1
  H  1008  1  0.57787200  0.39367300  0.63719400  1
  H  1013  1  0.50858100  0.43135100  0.70759400  1
  H  1016  1  0.50035700  0.52165900  0.69446400  1
  H  1023  1  0.90592200  0.46899600  0.16088200  1
  H  1030  1  0.07284300  0.56338800  0.18366000  1
  H  1031  1  0.07980100  0.48509400  0.13253900  1
  H  1032  1  0.91693000  0.56961700  0.13717800  1
  H  1037  1  0.98619100  0.53191600  0.20760600  1
  H  1040  1  0.99431400  0.44159300  0.19450000  1
  H  1047  1  0.90066100  0.48832200  0.83021800  1
  H  1054  1  0.07423100  0.40768400  0.81053000  1
  H  1055  1  0.07479500  0.48216100  0.86468900  1
  H  1056  1  0.91869700  0.38967800  0.85587500  1
  H  1061  1  0.98745800  0.43626100  0.78513000  1
  H  1064  1  0.98622600  0.52236000  0.79768600  1
  H  1071  1  0.59416900  0.47498600  0.33019800  1
  H  1078  1  0.42049700  0.55547900  0.31053700  1
  H  1079  1  0.42005700  0.48091900  0.36463900  1
  H  1080  1  0.57605400  0.57361900  0.35584500  1
  H  1085  1  0.50730900  0.52706200  0.28511200  1
  H  1088  1  0.50857600  0.44088800  0.29767300  1
  C  1  1  0.16369000  0.41907700  0.86290400  1
  C  2  1  0.12936600  0.42827400  0.86101300  1
  C  3  1  0.11607500  0.44101600  0.83925000  1
  C  4  1  0.13786300  0.44495300  0.81918100  1
  C  5  1  0.17279300  0.43691600  0.82110800  1
  C  6  1  0.18516800  0.42373900  0.84303500  1
  C  9  1  0.17627600  0.40466300  0.88434100  1
  C  10  1  0.17849600  0.42463900  0.90518400  1
  C  11  1  0.18922600  0.41071800  0.92728400  1
  C  12  1  0.19729200  0.37577000  0.92841500  1
  C  13  1  0.19567000  0.35543300  0.90743300  1
  C  14  1  0.18541600  0.37023400  0.88547600  1
  C  21  1  0.33113000  0.54405900  0.36288000  1
  C  22  1  0.36543500  0.53478600  0.36100200  1
  C  23  1  0.37871300  0.52203600  0.33923400  1
  C  24  1  0.35692300  0.51813000  0.31916400  1
  C  25  1  0.32199800  0.52619000  0.32109500  1
  C  26  1  0.30964000  0.53939500  0.34301800  1
  C  29  1  0.31856700  0.55852300  0.38430700  1
  C  30  1  0.31634500  0.53859100  0.40517100  1
  C  31  1  0.30561700  0.55255200  0.42725900  1
  C  32  1  0.29758800  0.58751200  0.42836100  1
  C  33  1  0.29923600  0.60781100  0.40736200  1
  C  34  1  0.30948300  0.59297100  0.38541800  1
  C  41  1  0.81245100  0.90846600  0.11588400  1
  C  42  1  0.80203700  0.87438300  0.11673600  1
  C  43  1  0.79023600  0.85772200  0.09589800  1
  C  44  1  0.78912100  0.87569700  0.07382800  1
  C  45  1  0.79890500  0.91020200  0.07284000  1
  C  46  1  0.81045100  0.92616600  0.09402700  1
  C  49  1  0.82623200  0.92432000  0.13641700  1
  C  50  1  0.80612300  0.92875500  0.15699200  1
  C  51  1  0.81997800  0.94117600  0.17867500  1
  C  52  1  0.85491500  0.94936000  0.17951700  1
  C  53  1  0.87524500  0.94603000  0.15864000  1
  C  54  1  0.86062100  0.93360900  0.13721300  1
  C  61  1  0.68240900  0.05472900  0.61587800  1
  C  62  1  0.69284100  0.08880600  0.61675300  1
  C  63  1  0.70461200  0.10549100  0.59591400  1
  C  64  1  0.70573700  0.08753800  0.57383700  1
  C  65  1  0.69596500  0.05303300  0.57283400  1
  C  66  1  0.68441700  0.03704900  0.59401400  1
  C  69  1  0.66860800  0.03886100  0.63639800  1
  C  70  1  0.68871500  0.03437300  0.65697000  1
  C  71  1  0.67484500  0.02193800  0.67864500  1
  C  72  1  0.63989700  0.01380100  0.67948500  1
  C  73  1  0.61958000  0.01717900  0.65860800  1
  C  74  1  0.63420300  0.02963100  0.63719300  1
  C  81  1  0.32712200  0.41418900  0.63545800  1
  C  82  1  0.36161500  0.42312200  0.63623400  1
  C  83  1  0.37685000  0.43385900  0.65792500  1
  C  84  1  0.35688000  0.43599300  0.67907800  1
  C  85  1  0.32187400  0.42800900  0.67835400  1
  C  86  1  0.30753600  0.41700300  0.65644400  1
  C  89  1  0.31241300  0.40092400  0.61431700  1
  C  90  1  0.30852200  0.42151900  0.59388700  1
  C  91  1  0.29516600  0.40840500  0.57224400  1
  C  92  1  0.28631200  0.37362900  0.57111900  1
  C  93  1  0.28959300  0.35273800  0.59170400  1
  C  94  1  0.30235800  0.36674200  0.61322800  1
  C  101  1  0.16760600  0.54898400  0.13546700  1
  C  102  1  0.13313400  0.53997100  0.13623400  1
  C  103  1  0.11791000  0.52923400  0.15793100  1
  C  104  1  0.13788500  0.52712300  0.17908200  1
  C  105  1  0.17288300  0.53513500  0.17835300  1
  C  106  1  0.18720600  0.54616500  0.15644600  1
  C  109  1  0.18228900  0.56230300  0.11433100  1
  C  110  1  0.18618100  0.54175400  0.09387800  1
  C  111  1  0.19953400  0.55491800  0.07224900  1
  C  112  1  0.20837500  0.58969600  0.07115400  1
  C  113  1  0.20507700  0.61053900  0.09176100  1
  C  114  1  0.19230600  0.59649700  0.11326900  1
  C  121  1  0.67453600  0.90964900  0.38349100  1
  C  122  1  0.68611600  0.87593000  0.38276400  1
  C  123  1  0.69740900  0.85953200  0.40387100  1
  C  124  1  0.69674400  0.87728200  0.42604000  1
  C  125  1  0.68550100  0.91131500  0.42690400  1
  C  126  1  0.67461700  0.92708300  0.40549200  1
  C  129  1  0.66222400  0.92604700  0.36270400  1
  C  130  1  0.68394400  0.93243600  0.34322300  1
  C  131  1  0.67184400  0.94730700  0.32177100  1
  C  132  1  0.63697900  0.95565000  0.32000900  1
  C  133  1  0.61510500  0.95046400  0.33986100  1
  C  134  1  0.62802900  0.93580800  0.36110200  1
  C  141  1  0.82017700  0.05354300  0.88349800  1
  C  142  1  0.80856800  0.08725000  0.88274300  1
  C  143  1  0.79731700  0.10368900  0.90384400  1
  C  144  1  0.79801500  0.08598400  0.92603100  1
  C  145  1  0.80926800  0.05195800  0.92692100  1
  C  146  1  0.82012700  0.03614800  0.90551800  1
  C  149  1  0.83248200  0.03711200  0.86272100  1
  C  150  1  0.81075200  0.03068100  0.84325200  1
  C  151  1  0.82285500  0.01579100  0.82180400  1
  C  152  1  0.85771900  0.00746200  0.82003700  1
  C  153  1  0.87959300  0.01268600  0.83987900  1
  C  154  1  0.86668700  0.02738300  0.86111200  1
  C  161  1  0.81870800  0.54531300  0.12870500  1
  C  162  1  0.85299900  0.53564000  0.12787600  1
  C  163  1  0.86983700  0.52398500  0.14869900  1
  C  164  1  0.85175000  0.52223800  0.17071600  1
  C  165  1  0.81705500  0.53135500  0.17166800  1
  C  166  1  0.80094300  0.54270400  0.15048800  1
  C  169  1  0.80289700  0.55980800  0.10842300  1
  C  170  1  0.79747100  0.54014600  0.08775900  1
  C  171  1  0.78512300  0.55473400  0.06629400  1
  C  172  1  0.77808500  0.58993700  0.06577400  1
  C  173  1  0.78249200  0.60985900  0.08675200  1
  C  174  1  0.79479900  0.59450800  0.10795300  1
  C  181  1  0.67603000  0.41798700  0.62873200  1
  C  182  1  0.64175500  0.42771800  0.62788500  1
  C  183  1  0.62491500  0.43935000  0.64871700  1
  C  184  1  0.64299400  0.44109700  0.67073500  1
  C  185  1  0.67768600  0.43196500  0.67169100  1
  C  186  1  0.69379400  0.42059300  0.65051600  1
  C  189  1  0.69182900  0.40345500  0.60845800  1
  C  190  1  0.69730000  0.42310400  0.58779200  1
  C  191  1  0.70964300  0.40848800  0.56633300  1
  C  192  1  0.71663100  0.37327500  0.56582100  1
  C  193  1  0.71218900  0.35338100  0.58680700  1
  C  194  1  0.69986700  0.36874200  0.60799600  1
  C  201  1  0.19519600  0.05691000  0.87954700  1
  C  202  1  0.20249900  0.09175600  0.87979100  1
  C  203  1  0.21535300  0.10757700  0.90066400  1
  C  204  1  0.22084300  0.08780300  0.92162100  1
  C  205  1  0.21428500  0.05249500  0.92136400  1
  C  206  1  0.20203900  0.03743800  0.90004900  1
  C  209  1  0.17830000  0.04214800  0.85985700  1
  C  210  1  0.19461200  0.04033800  0.83751300  1
  C  211  1  0.17751900  0.02831200  0.81695000  1
  C  212  1  0.14348900  0.01744500  0.81904300  1
  C  213  1  0.12692200  0.01840000  0.84167400  1
  C  214  1  0.14458600  0.03090900  0.86189700  1
  C  221  1  0.29946900  0.90633400  0.37954100  1
  C  222  1  0.29209600  0.87150000  0.37974800  1
  C  223  1  0.27928600  0.85566400  0.40062900  1
  C  224  1  0.27381500  0.87540900  0.42160100  1
  C  225  1  0.28038000  0.91071300  0.42136000  1
  C  226  1  0.29265200  0.92578900  0.40005800  1
  C  229  1  0.31638500  0.92109700  0.35985800  1
  C  230  1  0.30008800  0.92291900  0.33751100  1
  C  231  1  0.31720200  0.93494400  0.31695300  1
  C  232  1  0.35123400  0.94579500  0.31905700  1
  C  233  1  0.36778100  0.94482400  0.34169300  1
  C  234  1  0.35010900  0.93230700  0.36190900  1
  C  241  1  0.67735300  0.55424800  0.36185900  1
  C  242  1  0.64349200  0.54320700  0.36319300  1
  C  243  1  0.62607500  0.53242500  0.34236200  1
  C  244  1  0.64301200  0.53303100  0.31986200  1
  C  245  1  0.67716600  0.54377400  0.31840000  1
  C  246  1  0.69393500  0.55421300  0.33953900  1
  C  249  1  0.69467600  0.56605500  0.38239000  1
  C  250  1  0.70256900  0.54365500  0.40117800  1
  C  251  1  0.71753400  0.55528700  0.42272600  1
  C  252  1  0.72464300  0.59035400  0.42520200  1
  C  253  1  0.71807200  0.61295900  0.40596900  1
  C  254  1  0.70319100  0.60049200  0.38465900  1
  C  261  1  0.81743900  0.40904200  0.86184300  1
  C  262  1  0.85128500  0.42012100  0.86319500  1
  C  263  1  0.86871400  0.43089300  0.84236600  1
  C  264  1  0.85179500  0.43027900  0.81986100  1
  C  265  1  0.81764900  0.41952400  0.81838600  1
  C  266  1  0.80086900  0.40907700  0.83951800  1
  C  269  1  0.80010800  0.39720500  0.88236400  1
  C  270  1  0.79216000  0.41959200  0.90114900  1
  C  271  1  0.77719500  0.40792700  0.92269100  1
  C  272  1  0.77010600  0.37285500  0.92515400  1
  C  273  1  0.77671500  0.35028100  0.90591400  1
  C  274  1  0.79163600  0.36275500  0.88462200  1
  C  281  1  0.30611000  0.05251900  0.60908700  1
  C  282  1  0.29597500  0.08654900  0.61130000  1
  C  283  1  0.28362900  0.10478400  0.59126900  1
  C  284  1  0.28146500  0.08829400  0.56863200  1
  C  285  1  0.29119400  0.05393500  0.56636400  1
  C  286  1  0.30316500  0.03637600  0.58674900  1
  C  289  1  0.32107000  0.03522700  0.62854700  1
  C  290  1  0.30227700  0.02966900  0.64956900  1
  C  291  1  0.31769000  0.01684600  0.67056900  1
  C  292  1  0.35258200  0.00847600  0.67002400  1
  C  293  1  0.37157400  0.01254800  0.64855500  1
  C  294  1  0.35550400  0.02608000  0.62799700  1
  C  301  1  0.18871500  0.91078100  0.10908900  1
  C  302  1  0.19891800  0.87677700  0.11135700  1
  C  303  1  0.21122400  0.85849000  0.09133600  1
  C  304  1  0.21334600  0.87491100  0.06867400  1
  C  305  1  0.20359200  0.90925400  0.06636100  1
  C  306  1  0.19162400  0.92686300  0.08672700  1
  C  309  1  0.17374900  0.92811200  0.12852900  1
  C  310  1  0.19256000  0.93375300  0.14953300  1
  C  311  1  0.17713200  0.94656600  0.17053300  1
  C  312  1  0.14223300  0.95489900  0.16999700  1
  C  313  1  0.12324100  0.95078300  0.14853200  1
  C  314  1  0.13930200  0.93721200  0.12798500  1
  C  321  1  0.19480000  0.43851100  0.80092600  1
  C  322  1  0.21398900  0.40993400  0.79432600  1
  C  324  1  0.23568600  0.43767700  0.75930400  1
  C  325  1  0.21766600  0.46770200  0.76528400  1
  C  326  1  0.19735800  0.46756800  0.78623100  1
  C  328  1  0.25649600  0.43323700  0.73872800  1
  C  329  1  0.25765900  0.40292600  0.72494600  1
  C  330  1  0.28012500  0.40148300  0.70525100  1
  C  331  1  0.30101100  0.42917400  0.69914700  1
  C  332  1  0.29889200  0.45836300  0.71361600  1
  C  337  1  0.23567900  0.37596800  0.72884400  1
  C  338  1  0.21703400  0.49630900  0.75102500  1
  C  345  1  0.29998400  0.52460200  0.30091600  1
  C  346  1  0.28081500  0.55318900  0.29430900  1
  C  348  1  0.25911000  0.52545700  0.25928800  1
  C  349  1  0.27711700  0.49542100  0.26526900  1
  C  350  1  0.29741800  0.49554800  0.28621700  1
  C  352  1  0.23829300  0.52989900  0.23871300  1
  C  353  1  0.23711700  0.56021500  0.22493900  1
  C  354  1  0.21464000  0.56166100  0.20524900  1
  C  355  1  0.19374800  0.53397200  0.19914700  1
  C  356  1  0.19589300  0.50477600  0.21360500  1
  C  361  1  0.25909500  0.58717800  0.22883400  1
  C  362  1  0.27774100  0.46681500  0.25101100  1
  C  369  1  0.79963000  0.92852200  0.05088500  1
  C  370  1  0.82878600  0.94674000  0.04416600  1
  C  372  1  0.80258600  0.96662200  0.00806900  1
  C  373  1  0.77249500  0.94841200  0.01361400  1
  C  374  1  0.77150600  0.92964200  0.03523800  1
  C  376  1  0.80703600  0.98805200  0.98785800  1
  C  377  1  0.83774600  0.99112100  0.97470400  1
  C  378  1  0.83851000  0.01368300  0.95503700  1
  C  379  1  0.80982400  0.03294000  0.94854200  1
  C  380  1  0.78051400  0.02952700  0.96272800  1
  C  385  1  0.86566300  0.97054600  0.97896500  1
  C  386  1  0.74461900  0.94673500  0.99865100  1
  C  393  1  0.69522700  0.03473900  0.55086800  1
  C  394  1  0.66606700  0.01653000  0.54414600  1
  C  396  1  0.69224900  0.99668300  0.50803300  1
  C  397  1  0.72234500  0.01488600  0.51358300  1
  C  398  1  0.72334400  0.03363400  0.53521400  1
  C  400  1  0.68779200  0.97526600  0.48781700  1
  C  401  1  0.65707600  0.97219500  0.47467100  1
  C  402  1  0.65629500  0.94963000  0.45500800  1
  C  403  1  0.68498500  0.93038500  0.44850400  1
  C  404  1  0.71430000  0.93378300  0.46268300  1
  C  409  1  0.62916000  0.99276700  0.47894300  1
  C  410  1  0.75021600  0.01657000  0.49861400  1
  C  417  1  0.79879900  0.53230800  0.19364600  1
  C  418  1  0.78062300  0.56157800  0.20019500  1
  C  420  1  0.76080900  0.53590300  0.23648800  1
  C  421  1  0.77900300  0.50572600  0.23113400  1
  C  422  1  0.79774900  0.50442200  0.20950200  1
  C  424  1  0.73956000  0.54073500  0.25674900  1
  C  425  1  0.73688500  0.57159900  0.26976900  1
  C  426  1  0.71472000  0.57268200  0.28965100  1
  C  427  1  0.69544700  0.54415800  0.29646300  1
  C  428  1  0.69830200  0.51473500  0.28233600  1
  C  433  1  0.75756600  0.59934200  0.26521000  1
  C  434  1  0.78068600  0.47807500  0.24630200  1
  C  441  1  0.69593500  0.43099700  0.69367100  1
  C  442  1  0.71410000  0.40172300  0.70021900  1
  C  444  1  0.73394500  0.42738900  0.73650400  1
  C  445  1  0.71575600  0.45757100  0.73115800  1
  C  446  1  0.69699700  0.45888300  0.70953000  1
  C  448  1  0.75521700  0.42255500  0.75675500  1
  C  449  1  0.75792000  0.39168600  0.76976200  1
  C  450  1  0.78010700  0.39060400  0.78963400  1
  C  451  1  0.79939300  0.41912200  0.79644000  1
  C  452  1  0.79649500  0.44855300  0.78232700  1
  C  457  1  0.73723900  0.36394100  0.76521400  1
  C  458  1  0.71408800  0.48522300  0.74632600  1
  C  465  1  0.21472100  0.03265500  0.94264000  1
  C  466  1  0.18617300  0.01303600  0.94868400  1
  C  468  1  0.21252600  0.99229700  0.98441600  1
  C  469  1  0.24207500  0.01175000  0.97953600  1
  C  470  1  0.24268900  0.03173300  0.95843000  1
  C  472  1  0.20766500  0.97062200  0.00443900  1
  C  473  1  0.17624100  0.96680700  0.01664000  1
  C  474  1  0.17490600  0.94453300  0.03640200  1
  C  475  1  0.20380200  0.92653700  0.04407200  1
  C  476  1  0.23381400  0.93029400  0.03072000  1
  C  481  1  0.14800600  0.98664800  0.01169100  1
  C  482  1  0.26956500  0.01367300  0.99481200  1
  C  489  1  0.27996600  0.93052900  0.44264800  1
  C  490  1  0.30853200  0.95011300  0.44870500  1
  C  492  1  0.28219600  0.97083400  0.48444700  1
  C  493  1  0.25263200  0.95141000  0.47955700  1
  C  494  1  0.25200100  0.93145000  0.45844000  1
  C  496  1  0.28706500  0.99249900  0.50447500  1
  C  497  1  0.31849100  0.99629400  0.51668100  1
  C  498  1  0.31984100  0.01857400  0.53643700  1
  C  499  1  0.29095100  0.03658300  0.54409900  1
  C  500  1  0.26094100  0.03286000  0.53074500  1
  C  505  1  0.34671600  0.97643700  0.51173000  1
  C  506  1  0.22514000  0.94949400  0.49483200  1
  C  513  1  0.69390500  0.94982000  0.30167500  1
  C  514  1  0.71323300  0.92155200  0.29462900  1
  C  516  1  0.73433400  0.95028800  0.25986100  1
  C  517  1  0.71627200  0.98008300  0.26632600  1
  C  518  1  0.69622300  0.97930700  0.28739000  1
  C  520  1  0.75476700  0.94623200  0.23908000  1
  C  521  1  0.75622800  0.91584300  0.22539300  1
  C  522  1  0.77862600  0.91455100  0.20568700  1
  C  523  1  0.79898100  0.94253300  0.19936600  1
  C  524  1  0.79649300  0.97184600  0.21367000  1
  C  529  1  0.73469800  0.88854600  0.22939400  1
  C  530  1  0.71526300  0.00899200  0.25239900  1
  C  537  1  0.80078600  0.01328000  0.80171300  1
  C  538  1  0.78146800  0.04155200  0.79466100  1
  C  540  1  0.76039000  0.01282300  0.75988300  1
  C  541  1  0.77843600  0.98302300  0.76635600  1
  C  542  1  0.79847000  0.98379400  0.78742800  1
  C  544  1  0.73998200  0.01688500  0.73909000  1
  C  545  1  0.73854300  0.04727200  0.72540100  1
  C  546  1  0.71617600  0.04856200  0.70567700  1
  C  547  1  0.69583100  0.02058000  0.69934200  1
  C  548  1  0.69829100  0.99127000  0.71365200  1
  C  553  1  0.76006600  0.07457100  0.72941700  1
  C  554  1  0.77945800  0.95411500  0.75242600  1
  C  561  1  0.29403300  0.42934600  0.55151400  1
  C  562  1  0.32305700  0.44735500  0.54427400  1
  C  564  1  0.29565300  0.46746400  0.50865500  1
  C  565  1  0.26525400  0.45049000  0.51520300  1
  C  566  1  0.26498900  0.43161100  0.53679100  1
  C  568  1  0.30015400  0.48746800  0.48771200  1
  C  569  1  0.33040700  0.48820300  0.47385300  1
  C  570  1  0.33189100  0.51035100  0.45396900  1
  C  571  1  0.30431800  0.53138300  0.44786000  1
  C  572  1  0.27511700  0.52952200  0.46232500  1
  C  577  1  0.35731400  0.46627100  0.47801700  1
  C  578  1  0.23660200  0.44949400  0.50098600  1
  C  585  1  0.20067600  0.53400700  0.05150100  1
  C  586  1  0.17166200  0.51599400  0.04424700  1
  C  588  1  0.19909800  0.49591200  0.00863100  1
  C  589  1  0.22948400  0.51289900  0.01519100  1
  C  590  1  0.22972900  0.53176700  0.03678700  1
  C  592  1  0.19462600  0.47589600  0.98769300  1
  C  593  1  0.16437900  0.47512000  0.97383000  1
  C  594  1  0.16291800  0.45294200  0.95396000  1
  C  595  1  0.19050700  0.43192000  0.94786900  1
  C  596  1  0.21970500  0.43382900  0.96233500  1
  C  601  1  0.13745200  0.49703400  0.97797600  1
  C  602  1  0.25814500  0.51391300  0.00098400  1
  C  609  1  0.29878300  0.01694300  0.69225300  1
  C  610  1  0.28032000  0.04601100  0.69883600  1
  C  612  1  0.26019000  0.01981200  0.73479700  1
  C  613  1  0.27866600  0.98980900  0.72943000  1
  C  614  1  0.29770400  0.98884300  0.70791200  1
  C  616  1  0.23892100  0.02469500  0.75501700  1
  C  617  1  0.23543200  0.05598100  0.76743600  1
  C  618  1  0.21330200  0.05720300  0.78729100  1
  C  619  1  0.19510400  0.02833700  0.79478600  1
  C  620  1  0.19860300  0.99847700  0.78122900  1
  C  625  1  0.25534800  0.08416100  0.76249600  1
  C  626  1  0.28051400  0.96211200  0.74453500  1
  C  633  1  0.19604000  0.94644000  0.19221500  1
  C  634  1  0.21447700  0.91735000  0.19879600  1
  C  636  1  0.23460300  0.94351200  0.23477100  1
  C  637  1  0.21614700  0.97353000  0.22941200  1
  C  638  1  0.19712500  0.97452600  0.20788800  1
  C  640  1  0.25585700  0.93860500  0.25499500  1
  C  641  1  0.25932000  0.90731300  0.26741000  1
  C  642  1  0.28143200  0.90607600  0.28727800  1
  C  643  1  0.29962800  0.93493600  0.29478400  1
  C  644  1  0.29616700  0.96480000  0.28122500  1
  C  649  1  0.23940100  0.87914300  0.26245400  1
  C  650  1  0.21429700  0.00121100  0.24452900  1
  C  657  1  0.72046700  0.53259400  0.44245000  1
  C  658  1  0.69244100  0.51266600  0.44916000  1
  C  660  1  0.72089100  0.49188200  0.48411800  1
  C  661  1  0.75057300  0.51027200  0.47788900  1
  C  662  1  0.74980700  0.53051800  0.45691000  1
  C  664  1  0.71643900  0.47199000  0.50511400  1
  C  665  1  0.68592800  0.47145100  0.51870000  1
  C  666  1  0.68409800  0.44963800  0.53870400  1
  C  667  1  0.71167300  0.42899500  0.54542400  1
  C  668  1  0.74114500  0.43057700  0.53121100  1
  C  673  1  0.65902800  0.49333300  0.51429500  1
  C  674  1  0.77923000  0.51153900  0.49205600  1
  C  681  1  0.77427200  0.43060800  0.94242200  1
  C  682  1  0.80230500  0.45051800  0.94914400  1
  C  684  1  0.77385500  0.47128900  0.98410600  1
  C  685  1  0.74416900  0.45291200  0.97786800  1
  C  686  1  0.74493000  0.43267800  0.95688200  1
  C  688  1  0.77830700  0.49117900  0.00510100  1
  C  689  1  0.80881800  0.49172800  0.01868300  1
  C  690  1  0.81065600  0.51355600  0.03867900  1
  C  691  1  0.78308300  0.53420900  0.04539300  1
  C  692  1  0.75360700  0.53260900  0.03118700  1
  C  697  1  0.83571800  0.46984600  0.01428300  1
  C  698  1  0.71550900  0.45164300  0.99203300  1
  C  705  1  0.21689800  0.14344200  0.90153000  1
  C  706  1  0.18748800  0.16259700  0.89702500  1
  C  708  1  0.21575900  0.21427400  0.90654800  1
  C  709  1  0.24652400  0.19666700  0.91079600  1
  C  710  1  0.24648100  0.16103000  0.90840200  1
  C  712  1  0.21113700  0.24952000  0.90924000  1
  C  713  1  0.18540300  0.26387600  0.92390600  1
  C  714  1  0.18088400  0.29926600  0.92323700  1
  C  715  1  0.20127400  0.32000500  0.90849700  1
  C  716  1  0.22641700  0.30422400  0.89444300  1
  C  721  1  0.16493900  0.24517900  0.93929900  1
  C  722  1  0.27575400  0.21233300  0.91854900  1
  C  729  1  0.27779700  0.81979300  0.40146900  1
  C  730  1  0.30724000  0.80069200  0.39696000  1
  C  732  1  0.27904600  0.74896000  0.40644500  1
  C  733  1  0.24825100  0.76651300  0.41069900  1
  C  734  1  0.24823900  0.80215400  0.40832400  1
  C  736  1  0.28372000  0.71371900  0.40912400  1
  C  737  1  0.30947800  0.69938900  0.42378300  1
  C  738  1  0.31402100  0.66400100  0.42312200  1
  C  739  1  0.29363100  0.64323900  0.40839900  1
  C  740  1  0.26847500  0.65899500  0.39434400  1
  C  745  1  0.32993400  0.71810500  0.43917300  1
  C  746  1  0.21904300  0.75079800  0.41844200  1
  C  753  1  0.08755700  0.95479800  0.14862500  1
  C  754  1  0.06654600  0.92674500  0.14394800  1
  C  756  1  0.01693500  0.95797300  0.15435700  1
  C  757  1  0.03645600  0.98755900  0.15856600  1
  C  758  1  0.07194600  0.98533600  0.15579600  1
  C  760  1  0.98166300  0.95549800  0.15798600  1
  C  761  1  0.96654700  0.93100700  0.17332800  1
  C  762  1  0.93092600  0.92891400  0.17381300  1
  C  763  1  0.91078400  0.95045400  0.15950700  1
  C  764  1  0.92729300  0.97428500  0.14475100  1
  C  769  1  0.98476700  0.90928700  0.18812100  1
  C  770  1  0.02285400  0.01750200  0.16689200  1
  C  777  1  0.40725700  0.00852500  0.64865200  1
  C  778  1  0.42827400  0.03655800  0.64393100  1
  C  780  1  0.47788100  0.00531400  0.65433300  1
  C  781  1  0.45834700  0.97574700  0.65857400  1
  C  782  1  0.42285600  0.97798200  0.65582500  1
  C  784  1  0.51315400  0.00778000  0.65795000  1
  C  785  1  0.52828600  0.03227200  0.67328400  1
  C  786  1  0.56390900  0.03434500  0.67376800  1
  C  787  1  0.58403800  0.01277300  0.65947500  1
  C  788  1  0.56751100  0.98895900  0.64471600  1
  C  793  1  0.51008000  0.05401400  0.68806900  1
  C  794  1  0.47194700  0.94580500  0.66691100  1
  C  801  1  0.27862800  0.14024400  0.59326400  1
  C  802  1  0.30567300  0.16102400  0.60069500  1
  C  804  1  0.27437100  0.21121100  0.59209800  1
  C  805  1  0.24562200  0.19189400  0.58534000  1
  C  806  1  0.24838500  0.15622500  0.58583900  1
  C  808  1  0.27719500  0.24659600  0.58956500  1
  C  809  1  0.30125100  0.26196000  0.57402200  1
  C  810  1  0.30454300  0.29745900  0.57473800  1
  C  811  1  0.28448400  0.31728500  0.59031200  1
  C  812  1  0.26098100  0.30049800  0.60519300  1
  C  817  1  0.32155500  0.24409100  0.55803800  1
  C  818  1  0.21624500  0.20616400  0.57660800  1
  C  825  1  0.21620800  0.82303200  0.09338700  1
  C  826  1  0.18914800  0.80229000  0.10084200  1
  C  828  1  0.22039900  0.75206200  0.09226800  1
  C  829  1  0.24916400  0.77134500  0.08549400  1
  C  830  1  0.24643400  0.80701500  0.08596900  1
  C  832  1  0.21752900  0.71668400  0.08972700  1
  C  833  1  0.19346600  0.70135800  0.07417000  1
  C  834  1  0.19015200  0.66586200  0.07485400  1
  C  835  1  0.21020600  0.64599500  0.09040700  1
  C  836  1  0.23370500  0.66274700  0.10531300  1
  C  841  1  0.17317900  0.71926600  0.05819500  1
  C  842  1  0.27852000  0.75703500  0.07675500  1
  C  849  1  0.40290300  0.95166000  0.34351200  1
  C  850  1  0.42525500  0.92553400  0.35022400  1
  C  852  1  0.47341100  0.95948800  0.34084300  1
  C  853  1  0.45243100  0.98738400  0.33484900  1
  C  854  1  0.41700100  0.98280800  0.33606600  1
  C  856  1  0.50878600  0.95871700  0.33773800  1
  C  857  1  0.52508800  0.93600000  0.32166700  1
  C  858  1  0.56072800  0.93452900  0.32204500  1
  C  859  1  0.57968200  0.95501000  0.33787400  1
  C  860  1  0.56199200  0.97723800  0.35320400  1
  C  865  1  0.50796100  0.91501400  0.30572000  1
  C  866  1  0.46483000  0.01763300  0.32616900  1
  C  873  1  0.09179700  0.01157100  0.84347100  1
  C  874  1  0.06944400  0.03768200  0.85021000  1
  C  876  1  0.02129500  0.00371500  0.84083600  1
  C  877  1  0.04228000  0.97583000  0.83482800  1
  C  878  1  0.07770900  0.98041600  0.83603200  1
  C  880  1  0.98591800  0.00447500  0.83774400  1
  C  881  1  0.96960100  0.02718700  0.82167600  1
  C  882  1  0.93396000  0.02864100  0.82205900  1
  C  883  1  0.91501600  0.00814100  0.83788400  1
  C  884  1  0.93272600  0.98593800  0.85321900  1
  C  889  1  0.98671200  0.04818600  0.80573000  1
  C  890  1  0.02988500  0.94557700  0.82614800  1
  C  897  1  0.78404600  0.82237900  0.09654200  1
  C  898  1  0.81043900  0.79999200  0.10263000  1
  C  900  1  0.77706300  0.75190500  0.09194500  1
  C  901  1  0.74896700  0.77291700  0.08644900  1
  C  902  1  0.75310800  0.80831000  0.08865200  1
  C  904  1  0.77793100  0.71658100  0.08826400  1
  C  905  1  0.80145300  0.70058700  0.07262000  1
  C  906  1  0.80187000  0.66492100  0.07184300  1
  C  907  1  0.77958900  0.64557800  0.08613600  1
  C  908  1  0.75678700  0.66295900  0.10121100  1
  C  913  1  0.82384100  0.71802700  0.05785800  1
  C  914  1  0.71885100  0.76073400  0.07737100  1
  C  921  1  0.71076100  0.14084300  0.59658100  1
  C  922  1  0.68433600  0.16319000  0.60268000  1
  C  924  1  0.71765800  0.21132800  0.59202400  1
  C  925  1  0.74578200  0.19035400  0.58652300  1
  C  926  1  0.74168300  0.15495500  0.58870700  1
  C  928  1  0.71675300  0.24665500  0.58835500  1
  C  929  1  0.69321000  0.26263500  0.57271900  1
  C  930  1  0.69279000  0.29830300  0.57193300  1
  C  931  1  0.71509200  0.31765900  0.58620300  1
  C  932  1  0.73789100  0.30028500  0.60128500  1
  C  937  1  0.67082000  0.24518900  0.55796600  1
  C  938  1  0.77588500  0.20258000  0.57745300  1
  C  945  1  0.70593700  0.82471000  0.40317500  1
  C  946  1  0.68110500  0.80062400  0.39707900  1
  C  948  1  0.71803200  0.75489300  0.40705100  1
  C  949  1  0.74460600  0.77774400  0.41261500  1
  C  950  1  0.73787800  0.81278200  0.41082800  1
  C  952  1  0.71989000  0.71949600  0.40993300  1
  C  953  1  0.69864300  0.70128000  0.42597100  1
  C  954  1  0.69952000  0.66562200  0.42510500  1
  C  955  1  0.72086300  0.64847300  0.40880800  1
  C  956  1  0.74161000  0.66802400  0.39357100  1
  C  961  1  0.67682200  0.71658600  0.44227400  1
  C  962  1  0.77573400  0.76748400  0.42114400  1
  C  969  1  0.78879700  0.13851000  0.90311600  1
  C  970  1  0.81363400  0.16257400  0.89698700  1
  C  972  1  0.77673500  0.20833500  0.90694200  1
  C  973  1  0.75015300  0.18550700  0.91253300  1
  C  974  1  0.75686300  0.15046100  0.91076800  1
  C  976  1  0.77490200  0.24373400  0.90982200  1
  C  977  1  0.79615200  0.26193700  0.92586800  1
  C  978  1  0.79527200  0.29759500  0.92501700  1
  C  979  1  0.77391600  0.31476700  0.90873800  1
  C  980  1  0.75319200  0.29522100  0.89348200  1
  C  985  1  0.81797300  0.24661600  0.94216300  1
  C  986  1  0.71903800  0.19579000  0.92106700  1
  C  993  1  0.58929700  0.44396900  0.64822400  1
  C  994  1  0.56812100  0.41652800  0.64227000  1
  C  996  1  0.51855500  0.44758000  0.65309600  1
  C  997  1  0.53826000  0.47665700  0.65847500  1
  C  998  1  0.57380900  0.47420500  0.65615600  1
  C  1000  1  0.48331600  0.44491200  0.65685200  1
  C  1001  1  0.46864000  0.42053800  0.67248700  1
  C  1002  1  0.43305500  0.41781000  0.67301600  1
  C  1003  1  0.41244000  0.43869100  0.65853500  1
  C  1004  1  0.42859300  0.46253400  0.64355500  1
  C  1009  1  0.48730600  0.39948800  0.68748900  1
  C  1010  1  0.52468600  0.50616900  0.66754700  1
  C  1017  1  0.90544900  0.51933800  0.14822200  1
  C  1018  1  0.92665900  0.54675700  0.14226700  1
  C  1020  1  0.97618900  0.51566500  0.15311300  1
  C  1021  1  0.95645600  0.48661100  0.15849800  1
  C  1022  1  0.92091000  0.48909600  0.15616800  1
  C  1024  1  0.01143200  0.51829700  0.15686600  1
  C  1025  1  0.02613700  0.54266600  0.17249300  1
  C  1026  1  0.06172400  0.54535400  0.17301800  1
  C  1027  1  0.08231400  0.52444500  0.15853800  1
  C  1028  1  0.06613600  0.50060700  0.14357200  1
  C  1033  1  0.00749500  0.56374400  0.18749000  1
  C  1034  1  0.96999800  0.45709100  0.16758000  1
  C  1041  1  0.90374500  0.43847100  0.84368200  1
  C  1042  1  0.92679500  0.41310500  0.85064800  1
  C  1044  1  0.97406300  0.44791100  0.84042600  1
  C  1045  1  0.95231800  0.47508400  0.83413400  1
  C  1046  1  0.91701600  0.46968700  0.83562200  1
  C  1048  1  0.00945100  0.44792900  0.83714700  1
  C  1049  1  0.02607700  0.42556900  0.82099700  1
  C  1050  1  0.06174400  0.42455800  0.82136500  1
  C  1051  1  0.08052500  0.44520100  0.83721700  1
  C  1052  1  0.06247100  0.46713800  0.85256800  1
  C  1057  1  0.00919400  0.40445300  0.80501100  1
  C  1058  1  0.96388900  0.50541300  0.82502800  1
  C  1065  1  0.59104700  0.52483700  0.34366000  1
  C  1066  1  0.56797400  0.55018800  0.35061600  1
  C  1068  1  0.52073400  0.51534900  0.34038600  1
  C  1069  1  0.54250200  0.48819100  0.33409700  1
  C  1070  1  0.57779900  0.49361400  0.33559500  1
  C  1072  1  0.48534400  0.51529600  0.33711700  1
  C  1073  1  0.46868000  0.53765500  0.32098700  1
  C  1074  1  0.43301200  0.53861100  0.32136000  1
  C  1075  1  0.41427000  0.51792300  0.33720200  1
  C  1076  1  0.43235700  0.49597800  0.35252800  1
  C  1081  1  0.48552800  0.55881400  0.30501000  1
  C  1082  1  0.53095600  0.45785200  0.32499300  1
  N  323  1  0.23311200  0.41069300  0.77427900  1
  N  333  1  0.27726800  0.45917400  0.73245600  1
  N  347  1  0.26169400  0.55244100  0.27426000  1
  N  357  1  0.21752700  0.50395900  0.23243900  1
  N  371  1  0.82892200  0.96489300  0.02366500  1
  N  381  1  0.78033200  0.00768200  0.98139700  1
  N  395  1  0.66592300  0.99839700  0.52363600  1
  N  405  1  0.71449000  0.95563000  0.48135200  1
  N  419  1  0.76252900  0.56202300  0.22071500  1
  N  429  1  0.71984500  0.51422600  0.26348900  1
  N  443  1  0.73220800  0.40127300  0.72073200  1
  N  453  1  0.77493000  0.44906600  0.76349200  1
  N  467  1  0.18642700  0.99391200  0.96866100  1
  N  477  1  0.23452700  0.95186000  0.01186000  1
  N  491  1  0.30829500  0.96921400  0.46869300  1
  N  501  1  0.26021800  0.01128800  0.51189000  1
  N  515  1  0.73212200  0.92296200  0.27452600  1
  N  525  1  0.77506100  0.97245500  0.23262400  1
  N  539  1  0.76259400  0.04014900  0.77455000  1
  N  549  1  0.71969300  0.99066100  0.73262100  1
  N  563  1  0.32264700  0.46525000  0.52365300  1
  N  573  1  0.27430300  0.50825500  0.48133200  1
  N  587  1  0.17209400  0.49810600  0.02362200  1
  N  597  1  0.22049500  0.45512400  0.98132900  1
  N  611  1  0.26192700  0.04605400  0.71916600  1
  N  621  1  0.22000000  0.99789200  0.76230300  1
  N  635  1  0.23285700  0.91727900  0.21913200  1
  N  645  1  0.27478800  0.96539600  0.26229000  1
  N  659  1  0.69377400  0.49375500  0.46924700  1
  N  669  1  0.74229800  0.45147800  0.51195800  1
  N  683  1  0.80097500  0.46941600  0.96923700  1
  N  693  1  0.75244900  0.51169600  0.01194200  1
  N  707  1  0.18798200  0.19648900  0.89982100  1
  N  717  1  0.23023700  0.27018900  0.89521500  1
  N  731  1  0.30679800  0.76679600  0.39973600  1
  N  741  1  0.26462700  0.69302800  0.39511000  1
  N  755  1  0.03280300  0.92925300  0.14719800  1
  N  765  1  0.96151000  0.97581800  0.14446200  1
  N  779  1  0.46202100  0.03403400  0.64716300  1
  N  789  1  0.53329400  0.98744500  0.64442900  1
  N  803  1  0.30278300  0.19498400  0.59942400  1
  N  813  1  0.25834900  0.26633600  0.60440700  1
  N  827  1  0.19200400  0.76832600  0.09959100  1
  N  837  1  0.23635800  0.69690900  0.10455500  1
  N  851  1  0.45896900  0.93014800  0.34823900  1
  N  861  1  0.52775000  0.97811300  0.35271900  1
  N  875  1  0.03573000  0.03305600  0.84823600  1
  N  885  1  0.96696900  0.98507300  0.85273000  1
  N  899  1  0.80620400  0.76633100  0.09977400  1
  N  909  1  0.75684300  0.69721700  0.10177400  1
  N  923  1  0.68853200  0.19685800  0.59984100  1
  N  933  1  0.73784600  0.26602800  0.60185500  1
  N  947  1  0.68780200  0.76729700  0.39955200  1
  N  957  1  0.74019400  0.70223000  0.39452000  1
  N  971  1  0.80695500  0.19590900  0.89944300  1
  N  981  1  0.75460300  0.26101200  0.89441500  1
  N  995  1  0.53432300  0.41916000  0.64524700  1
  N  1005  1  0.46280000  0.46463000  0.64316000  1
  N  1019  1  0.96045100  0.54409500  0.14525100  1
  N  1029  1  0.03192600  0.49854600  0.14318000  1
  N  1043  1  0.96038800  0.41846500  0.84835600  1
  N  1053  1  0.02820200  0.46750500  0.85214800  1
  N  1067  1  0.53438600  0.54480500  0.34831800  1
  N  1077  1  0.46662700  0.49566400  0.35210200  1
  O  8  1  0.12465100  0.45654500  0.79803500  1
  O  15  1  0.20717600  0.36137700  0.94961200  1
  O  28  1  0.37013300  0.50654600  0.29801700  1
  O  35  1  0.28771200  0.60194300  0.44954600  1
  O  48  1  0.78083800  0.85901100  0.05315100  1
  O  55  1  0.86944500  0.96039500  0.20036400  1
  O  68  1  0.71400700  0.10425600  0.55317100  1
  O  75  1  0.62535500  0.00276300  0.70032700  1
  O  88  1  0.37170300  0.44613600  0.70005400  1
  O  95  1  0.27456000  0.35969100  0.55024300  1
  O  108  1  0.12306800  0.51697700  0.20005800  1
  O  115  1  0.22013200  0.60367500  0.05029300  1
  O  128  1  0.70540100  0.86106100  0.44681500  1
  O  135  1  0.62383000  0.96847600  0.29921000  1
  O  148  1  0.78938100  0.10224900  0.94679400  1
  O  155  1  0.87086300  0.99461700  0.79924100  1
  O  168  1  0.86849700  0.51424200  0.19142500  1
  O  175  1  0.76723100  0.60512900  0.04511900  1
  O  188  1  0.62623700  0.44909900  0.69143700  1
  O  195  1  0.72748000  0.35806300  0.54517300  1
  O  208  1  0.22959400  0.10333500  0.94264300  1
  O  215  1  0.12610100  0.00806200  0.79891200  1
  O  228  1  0.26507200  0.85984300  0.44261000  1
  O  235  1  0.36863800  0.95517000  0.29893200  1
  O  248  1  0.62592600  0.52488800  0.29933400  1
  O  255  1  0.73737300  0.60303500  0.44617200  1
  O  268  1  0.86889900  0.43843300  0.79934000  1
  O  275  1  0.75735800  0.36015400  0.94611300  1
  O  288  1  0.27225000  0.10599300  0.54860800  1
  O  295  1  0.36863300  0.99923200  0.69075000  1
  O  308  1  0.22255800  0.85715500  0.04867500  1
  O  315  1  0.12619100  0.96414500  0.19072400  1
  O  339  1  0.24760700  0.34769700  0.73149200  1
  O  340  1  0.20610200  0.37670800  0.72168000  1
  O  342  1  0.23685200  0.51904300  0.75605800  1
  O  343  1  0.20640900  0.49352800  0.73021200  1
  O  363  1  0.24716300  0.61544400  0.23149000  1
  O  364  1  0.28866800  0.58644300  0.22166500  1
  O  366  1  0.25792000  0.44408600  0.25604300  1
  O  367  1  0.28836700  0.46959300  0.23019700  1
  O  387  1  0.89300800  0.98406000  0.98252100  1
  O  388  1  0.86718000  0.94151000  0.97081500  1
  O  390  1  0.72063600  0.96520400  0.00334200  1
  O  391  1  0.74875000  0.93645600  0.97786100  1
  O  411  1  0.60181900  0.97925100  0.48250800  1
  O  412  1  0.62763500  0.02180700  0.47080000  1
  O  414  1  0.77420100  0.99810200  0.50329600  1
  O  415  1  0.74607700  0.02686100  0.47782800  1
  O  435  1  0.74412300  0.62666700  0.26144900  1
  O  436  1  0.78659200  0.60091900  0.27337400  1
  O  438  1  0.76207400  0.45411000  0.24186300  1
  O  439  1  0.79105000  0.48251500  0.26704200  1
  O  459  1  0.75068400  0.33662300  0.76143500  1
  O  460  1  0.70823000  0.36234800  0.77340300  1
  O  462  1  0.73269800  0.50918800  0.74187800  1
  O  463  1  0.70374000  0.48078500  0.76706900  1
  O  483  1  0.12147800  0.97235400  0.00680800  1
  O  484  1  0.14481300  0.01517900  0.02047600  1
  O  486  1  0.29374500  0.99532500  0.99041000  1
  O  487  1  0.26472100  0.02361800  0.01560700  1
  O  507  1  0.37325000  0.99071900  0.50684300  1
  O  508  1  0.34989400  0.94790600  0.52051400  1
  O  510  1  0.20096900  0.96785400  0.49043200  1
  O  511  1  0.22997900  0.93954000  0.51562700  1
  O  531  1  0.74711400  0.86054000  0.23232000  1
  O  532  1  0.70518100  0.88865400  0.22209600  1
  O  534  1  0.73515000  0.03165200  0.25745200  1
  O  535  1  0.70419000  0.00662400  0.23167700  1
  O  555  1  0.74764000  0.10257200  0.73234400  1
  O  556  1  0.78958600  0.07447100  0.72212400  1
  O  558  1  0.75955800  0.93146000  0.75746500  1
  O  559  1  0.79055400  0.95648400  0.73171100  1
  O  579  1  0.38558800  0.47822700  0.48056800  1
  O  580  1  0.35657900  0.43659000  0.47107900  1
  O  582  1  0.21391700  0.46951500  0.50570700  1
  O  583  1  0.23920200  0.43797800  0.48039900  1
  O  603  1  0.10918400  0.48505800  0.98052300  1
  O  604  1  0.13817100  0.52671300  0.97103400  1
  O  606  1  0.28084300  0.49391500  0.00571700  1
  O  607  1  0.25555100  0.52542100  0.98039600  1
  O  627  1  0.24112700  0.11083300  0.75790400  1
  O  628  1  0.28404600  0.08707900  0.77104600  1
  O  630  1  0.26186400  0.93816000  0.74015000  1
  O  631  1  0.29102900  0.96653400  0.76523900  1
  O  651  1  0.25361700  0.85247000  0.25785700  1
  O  652  1  0.21070100  0.87622300  0.27100100  1
  O  654  1  0.23295600  0.02516300  0.24016100  1
  O  655  1  0.20377000  0.99677400  0.26522800  1
  O  675  1  0.63082100  0.48134200  0.51146000  1
  O  676  1  0.65966000  0.52310300  0.52103900  1
  O  678  1  0.80185800  0.49139400  0.48746200  1
  O  679  1  0.77643400  0.52291800  0.51266600  1
  O  699  1  0.86392800  0.48183500  0.01144300  1
  O  700  1  0.83508900  0.44007600  0.02102700  1
  O  702  1  0.69288400  0.47178800  0.98744000  1
  O  703  1  0.71830000  0.44025800  0.01264100  1
  O  723  1  0.13662500  0.23820400  0.93204500  1
  O  724  1  0.17669800  0.22507800  0.95412800  1
  O  726  1  0.29544400  0.22207800  0.90302300  1
  O  727  1  0.27487900  0.22710100  0.93813400  1
  O  747  1  0.35823200  0.72511600  0.43190800  1
  O  748  1  0.31816200  0.73818400  0.45400900  1
  O  750  1  0.19936500  0.74104600  0.40291300  1
  O  751  1  0.21994000  0.73600500  0.43801900  1
  O  771  1  0.98940200  0.88061700  0.18062900  1
  O  772  1  0.00653700  0.91962500  0.20227300  1
  O  774  1  0.01329500  0.03784500  0.15173900  1
  O  775  1  0.00910100  0.01713400  0.18685700  1
  O  795  1  0.50545300  0.08267800  0.68056500  1
  O  796  1  0.48831200  0.04369800  0.70223100  1
  O  798  1  0.48149100  0.92544500  0.65176400  1
  O  799  1  0.48571600  0.94618900  0.68687000  1
  O  819  1  0.35022300  0.23752500  0.56475600  1
  O  820  1  0.30966000  0.22388300  0.54334200  1
  O  822  1  0.19643000  0.21764000  0.59144000  1
  O  823  1  0.21757500  0.21912000  0.55640200  1
  O  843  1  0.14452000  0.72585900  0.06491900  1
  O  844  1  0.18509400  0.73947100  0.04350700  1
  O  846  1  0.29831600  0.74551900  0.09158300  1
  O  847  1  0.27717000  0.74409500  0.05654500  1
  O  867  1  0.50335800  0.88585600  0.31219800  1
  O  868  1  0.48656000  0.92597400  0.29152300  1
  O  870  1  0.47527100  0.03795200  0.34104200  1
  O  871  1  0.47759700  0.01728900  0.30588000  1
  O  891  1  0.99130800  0.07734400  0.81221300  1
  O  892  1  0.00810900  0.03723900  0.79152500  1
  O  894  1  0.01946000  0.92525300  0.84102300  1
  O  895  1  0.01710300  0.94592400  0.80586500  1
  O  915  1  0.85260400  0.72170000  0.06543000  1
  O  916  1  0.81428100  0.74023700  0.04377400  1
  O  918  1  0.69770500  0.75132900  0.09200700  1
  O  919  1  0.71957900  0.74744500  0.05725500  1
  O  939  1  0.64206400  0.24149700  0.56555300  1
  O  940  1  0.68037600  0.22298900  0.54387500  1
  O  942  1  0.79702600  0.21197600  0.59209400  1
  O  943  1  0.77514500  0.21590100  0.55734800  1
  O  963  1  0.64731500  0.71937200  0.43607500  1
  O  964  1  0.68656600  0.73833400  0.45665300  1
  O  966  1  0.79677100  0.75904700  0.40613400  1
  O  967  1  0.77648700  0.75428700  0.44128700  1
  O  987  1  0.84747200  0.24381600  0.93595500  1
  O  988  1  0.80822400  0.22487300  0.95654200  1
  O  990  1  0.69800100  0.20424800  0.90606100  1
  O  991  1  0.71830700  0.20899100  0.94121000  1
  O  1011  1  0.49281200  0.37088600  0.68016800  1
  O  1012  1  0.50876800  0.41060900  0.70158200  1
  O  1014  1  0.51368800  0.52656400  0.65293400  1
  O  1015  1  0.51201200  0.50494000  0.68784800  1
  O  1035  1  0.00202000  0.59234600  0.18015800  1
  O  1036  1  0.98602400  0.55265500  0.20158800  1
  O  1038  1  0.98096800  0.43666800  0.15297400  1
  O  1039  1  0.98267900  0.45832000  0.18788000  1
  O  1059  1  0.00462700  0.37531000  0.81153000  1
  O  1060  1  0.98784700  0.41529900  0.79073000  1
  O  1062  1  0.97474300  0.52603100  0.83954100  1
  O  1063  1  0.97573200  0.50500800  0.80446200  1
  O  1083  1  0.49004900  0.58796000  0.31154300  1
  O  1084  1  0.50688700  0.54801600  0.29071900  1
  O  1086  1  0.52018000  0.43720100  0.33951200  1
  O  1087  1  0.51905800  0.45825100  0.30444200  1
