# generated using pymatgen
data_H12C14N
_symmetry_space_group_name_H-M   'P 1'
_cell_length_a   25.64910000
_cell_length_b   25.64910000
_cell_length_c   42.75260000
_cell_angle_alpha   90.00000000
_cell_angle_beta   90.00000000
_cell_angle_gamma   90.00000000
_symmetry_Int_Tables_number   1
_chemical_formula_structural   H12C14N
_chemical_formula_sum   'H384 C448 N32'
_cell_volume   28125.92362059
_cell_formula_units_Z   32
loop_
 _symmetry_equiv_pos_site_id
 _symmetry_equiv_pos_as_xyz
  1  'x, y, z'
loop_
 _atom_site_type_symbol
 _atom_site_label
 _atom_site_symmetry_multiplicity
 _atom_site_fract_x
 _atom_site_fract_y
 _atom_site_fract_z
 _atom_site_occupancy
  H  7  1  0.21254100  0.47969400  0.91883900  1
  H  16  1  0.25907900  0.43849100  0.83404200  1
  H  17  1  0.07556800  0.48879000  0.77991700  1
  H  18  1  0.13078900  0.48717500  0.76046800  1
  H  19  1  0.25932400  0.29280200  0.96990500  1
  H  20  1  0.25573000  0.34666000  0.99061500  1
  H  21  1  0.21945600  0.34180800  0.86631900  1
  H  22  1  0.11804500  0.44227300  0.88356000  1
  H  29  1  0.28528800  0.46994300  0.41884000  1
  H  38  1  0.23875000  0.51112200  0.33404500  1
  H  39  1  0.42229200  0.46080400  0.27995500  1
  H  40  1  0.36708700  0.46244600  0.26049200  1
  H  41  1  0.23866200  0.65690900  0.46986600  1
  H  42  1  0.24221400  0.60306300  0.49058700  1
  H  43  1  0.27844200  0.60779200  0.36627900  1
  H  44  1  0.37975400  0.50735600  0.38360000  1
  H  51  1  0.74389800  0.93847100  0.16876200  1
  H  60  1  0.78527600  0.98487400  0.08386000  1
  H  61  1  0.72941400  0.80218500  0.03064000  1
  H  62  1  0.73219000  0.85713000  0.01096800  1
  H  63  1  0.93079800  0.98544700  0.21974200  1
  H  64  1  0.87696700  0.98180900  0.24047200  1
  H  65  1  0.88174700  0.94523100  0.11618400  1
  H  66  1  0.77994200  0.84416700  0.13364100  1
  H  73  1  0.75396900  0.01138100  0.66875900  1
  H  82  1  0.71256400  0.96495500  0.58383100  1
  H  83  1  0.76807500  0.14777600  0.53063600  1
  H  84  1  0.76533000  0.09284700  0.51094900  1
  H  85  1  0.56710000  0.96439300  0.71977100  1
  H  86  1  0.62093900  0.96803900  0.74049200  1
  H  87  1  0.61610000  0.00453400  0.61620500  1
  H  88  1  0.71781900  0.10561900  0.63366200  1
  H  95  1  0.28515800  0.48480900  0.58401300  1
  H  104  1  0.24392700  0.43828900  0.66879900  1
  H  105  1  0.43089700  0.48463000  0.71990200  1
  H  106  1  0.37701000  0.48121800  0.74058800  1
  H  107  1  0.23448200  0.30139500  0.52989300  1
  H  108  1  0.23626500  0.35660400  0.51042900  1
  H  109  1  0.28122400  0.34376100  0.63350500  1
  H  110  1  0.38183700  0.44499900  0.61628000  1
  H  117  1  0.21275900  0.46483900  0.08401200  1
  H  126  1  0.25400500  0.51133600  0.16879000  1
  H  127  1  0.06701900  0.46494900  0.21987300  1
  H  128  1  0.12089500  0.46838300  0.24057000  1
  H  129  1  0.26330000  0.64832700  0.02992400  1
  H  130  1  0.26152700  0.59313300  0.01044700  1
  H  131  1  0.21665000  0.60585000  0.13354500  1
  H  132  1  0.11611400  0.50463800  0.11625100  1
  H  139  1  0.75901400  0.93862300  0.33397200  1
  H  148  1  0.71229900  0.97976200  0.41888700  1
  H  149  1  0.76499800  0.79378700  0.46916600  1
  H  150  1  0.76034300  0.84735600  0.49005900  1
  H  151  1  0.57557200  0.98975500  0.28004600  1
  H  152  1  0.63072800  0.98788800  0.26053100  1
  H  153  1  0.61806500  0.94250600  0.38358100  1
  H  154  1  0.72064200  0.84217500  0.36615500  1
  H  161  1  0.73891200  0.01121500  0.83398100  1
  H  170  1  0.78562700  0.97007400  0.91892600  1
  H  171  1  0.73321900  0.15615500  0.96916600  1
  H  172  1  0.73782400  0.10259700  0.99007000  1
  H  173  1  0.92235300  0.96010500  0.78004600  1
  H  174  1  0.86719700  0.96197200  0.76053600  1
  H  175  1  0.87986800  0.00727800  0.88358500  1
  H  176  1  0.77735700  0.10761700  0.86614600  1
  H  183  1  0.78548600  0.47002500  0.07913100  1
  H  192  1  0.73900900  0.51153500  0.16402700  1
  H  193  1  0.92182700  0.45653900  0.21739600  1
  H  194  1  0.86683800  0.45915900  0.23702600  1
  H  195  1  0.73853000  0.65684200  0.02803700  1
  H  196  1  0.74225300  0.60299300  0.00732700  1
  H  197  1  0.77852300  0.60793600  0.13163100  1
  H  198  1  0.87972000  0.50621700  0.11425100  1
  H  205  1  0.71249700  0.47987700  0.57912900  1
  H  214  1  0.75895100  0.43844500  0.66401300  1
  H  215  1  0.57607100  0.49332400  0.71736200  1
  H  216  1  0.63106400  0.49077000  0.73699300  1
  H  217  1  0.75930200  0.29297500  0.52807700  1
  H  218  1  0.75563400  0.34681400  0.50735800  1
  H  219  1  0.71936700  0.34200200  0.63167100  1
  H  220  1  0.61825200  0.44361800  0.61421700  1
  H  227  1  0.25381400  0.01135200  0.82903000  1
  H  236  1  0.21242700  0.96480300  0.91409400  1
  H  237  1  0.26787200  0.14765700  0.96723400  1
  H  238  1  0.26509800  0.09274000  0.98693100  1
  H  239  1  0.06770400  0.95915000  0.77877800  1
  H  240  1  0.12126200  0.96377400  0.75787200  1
  H  241  1  0.11628800  0.00313900  0.88182900  1
  H  242  1  0.21794100  0.10534900  0.86415000  1
  H  249  1  0.24411700  0.93834600  0.32903700  1
  H  258  1  0.28554200  0.98488500  0.41412400  1
  H  259  1  0.23045500  0.80190400  0.46723900  1
  H  260  1  0.23320100  0.85680300  0.48695300  1
  H  261  1  0.43019900  0.99051900  0.27873600  1
  H  262  1  0.37662100  0.98591500  0.25784600  1
  H  263  1  0.38167800  0.94658800  0.38180600  1
  H  264  1  0.28009700  0.84438900  0.36412700  1
  H  271  1  0.71256800  0.46497200  0.41388300  1
  H  280  1  0.75375400  0.51178800  0.32896700  1
  H  281  1  0.56753700  0.46017300  0.27862800  1
  H  282  1  0.62114900  0.46458600  0.25775700  1
  H  283  1  0.76382500  0.64826900  0.46794300  1
  H  284  1  0.76183300  0.59309400  0.48743000  1
  H  285  1  0.71675100  0.60599500  0.36436600  1
  H  286  1  0.61620200  0.50363600  0.38174300  1
  H  293  1  0.78528800  0.48489100  0.91388300  1
  H  302  1  0.74404200  0.43815200  0.82897100  1
  H  303  1  0.93031400  0.48966300  0.77865400  1
  H  304  1  0.87670200  0.48532000  0.75778000  1
  H  305  1  0.73409700  0.30155200  0.96791700  1
  H  306  1  0.73612000  0.35671300  0.98742000  1
  H  307  1  0.78105400  0.34391100  0.86432800  1
  H  308  1  0.88158700  0.44615600  0.88176600  1
  H  315  1  0.23907800  0.01115900  0.66412300  1
  H  324  1  0.28572100  0.96986700  0.57907600  1
  H  325  1  0.23378900  0.15602400  0.52879100  1
  H  326  1  0.23837200  0.10245400  0.50789600  1
  H  327  1  0.42188300  0.95549300  0.71725900  1
  H  328  1  0.36696500  0.95829200  0.73696100  1
  H  329  1  0.37968100  0.00581600  0.61423400  1
  H  330  1  0.27739600  0.10737000  0.63189300  1
  H  337  1  0.25878900  0.93854500  0.16411500  1
  H  346  1  0.21216700  0.97984000  0.07903500  1
  H  347  1  0.26374900  0.79355300  0.02879900  1
  H  348  1  0.25923200  0.84711100  0.00789200  1
  H  349  1  0.07598900  0.99418000  0.21726600  1
  H  350  1  0.13090900  0.99138100  0.23696600  1
  H  351  1  0.11818200  0.94393700  0.11422800  1
  H  352  1  0.22036900  0.84238900  0.13190800  1
  H  358  1  0.27999100  0.54258100  0.72569600  1
  H  360  1  0.22608400  0.38251500  0.77658400  1
  H  362  1  0.30608700  0.36029800  0.70606200  1
  H  363  1  0.24545300  0.33888800  0.72066200  1
  H  364  1  0.30155100  0.33868000  0.74494400  1
  H  366  1  0.20774600  0.56409400  0.79955300  1
  H  367  1  0.20528500  0.58657900  0.76061300  1
  H  368  1  0.26527000  0.58574800  0.78128300  1
  H  374  1  0.21793900  0.40701300  0.22567700  1
  H  376  1  0.27175700  0.56707700  0.27660300  1
  H  378  1  0.19179700  0.58929600  0.20606400  1
  H  379  1  0.25241400  0.61072000  0.22068200  1
  H  380  1  0.19629900  0.61089900  0.24494900  1
  H  382  1  0.29012300  0.38549400  0.29955600  1
  H  383  1  0.29263000  0.36302700  0.26061300  1
  H  384  1  0.23262400  0.36383100  0.28126200  1
  H  390  1  0.67938900  0.00573100  0.97554000  1
  H  392  1  0.83934400  0.95224900  0.02667300  1
  H  394  1  0.86173900  0.03255900  0.95635500  1
  H  395  1  0.88315500  0.97178900  0.97077300  1
  H  396  1  0.88316600  0.02765700  0.99524400  1
  H  398  1  0.65772000  0.93428300  0.04965300  1
  H  399  1  0.63532100  0.93127700  0.01070200  1
  H  400  1  0.63611700  0.99154100  0.03108000  1
  H  406  1  0.81856800  0.94440800  0.47552600  1
  H  408  1  0.65842900  0.99740800  0.52663700  1
  H  410  1  0.63630400  0.91701600  0.45632300  1
  H  411  1  0.61469300  0.97772000  0.47073100  1
  H  412  1  0.61485300  0.92186600  0.49520900  1
  H  414  1  0.83998700  0.01589900  0.54965000  1
  H  415  1  0.86240200  0.01898900  0.51070500  1
  H  416  1  0.86176600  0.95871300  0.53107100  1
  H  422  1  0.71813100  0.40585100  0.27232000  1
  H  424  1  0.77157600  0.56588400  0.22125400  1
  H  426  1  0.69118300  0.58816200  0.29156100  1
  H  427  1  0.75193700  0.60963200  0.27715700  1
  H  428  1  0.69608400  0.60963200  0.25267700  1
  H  430  1  0.78984100  0.38428700  0.19828300  1
  H  431  1  0.79273000  0.36188300  0.23723500  1
  H  432  1  0.73254100  0.36261200  0.21678100  1
  H  438  1  0.77970500  0.54408600  0.77234100  1
  H  440  1  0.72633800  0.38406600  0.72122600  1
  H  442  1  0.80665700  0.36176500  0.79155800  1
  H  443  1  0.74592200  0.34029000  0.77712400  1
  H  444  1  0.80180700  0.34031400  0.75267000  1
  H  446  1  0.70806800  0.56567000  0.69828000  1
  H  447  1  0.70512900  0.58805600  0.73723400  1
  H  448  1  0.76534100  0.58735100  0.71680300  1
  H  454  1  0.31810900  0.94395600  0.02237600  1
  H  456  1  0.15818000  0.99767000  0.97130200  1
  H  458  1  0.13574900  0.91749100  0.04167500  1
  H  459  1  0.11442300  0.97827700  0.02723700  1
  H  460  1  0.11426200  0.92237600  0.00279400  1
  H  462  1  0.33980600  0.01545800  0.94828300  1
  H  463  1  0.36223400  0.01837200  0.98723100  1
  H  464  1  0.36134800  0.95814000  0.96682000  1
  H  470  1  0.17973700  0.00542000  0.52239100  1
  H  472  1  0.33985200  0.95220600  0.47133700  1
  H  474  1  0.36200500  0.03248000  0.54170500  1
  H  475  1  0.38353300  0.97175800  0.52727800  1
  H  476  1  0.38351600  0.02764700  0.50282500  1
  H  478  1  0.15829200  0.93387400  0.44828800  1
  H  479  1  0.13585100  0.93087200  0.48722900  1
  H  480  1  0.13657000  0.99111200  0.46683000  1
  H  486  1  0.77999300  0.04288100  0.22566800  1
  H  488  1  0.72596800  0.88283500  0.27652300  1
  H  490  1  0.80601000  0.86059200  0.20602400  1
  H  491  1  0.74533300  0.83922700  0.22058400  1
  H  492  1  0.80139000  0.83895800  0.24489500  1
  H  494  1  0.70782300  0.06441400  0.29954600  1
  H  495  1  0.70535500  0.08692500  0.26061100  1
  H  496  1  0.76535300  0.08601100  0.28126500  1
  H  502  1  0.71790500  0.90696100  0.72568400  1
  H  504  1  0.77195400  0.06702200  0.77651600  1
  H  506  1  0.69188900  0.08924600  0.70602400  1
  H  507  1  0.75257300  0.11061500  0.72057800  1
  H  508  1  0.69652000  0.11088700  0.74489500  1
  H  510  1  0.79011800  0.88545500  0.79955300  1
  H  511  1  0.79256300  0.86292800  0.76062000  1
  H  512  1  0.73257600  0.86384800  0.78128500  1
  H  518  1  0.18093000  0.50598700  0.47575100  1
  H  520  1  0.34104300  0.45193400  0.52652900  1
  H  522  1  0.36318800  0.53221400  0.45611200  1
  H  523  1  0.38461100  0.47150600  0.47060300  1
  H  524  1  0.38485000  0.52749300  0.49497500  1
  H  526  1  0.15948500  0.43352400  0.54953800  1
  H  527  1  0.13695900  0.43119300  0.51060500  1
  H  528  1  0.13782900  0.49111300  0.53134300  1
  H  534  1  0.31690700  0.44373100  0.97573200  1
  H  536  1  0.15682700  0.49775700  0.02655600  1
  H  538  1  0.13463400  0.41745800  0.95615900  1
  H  539  1  0.11321100  0.47816200  0.97064700  1
  H  540  1  0.11301000  0.42218700  0.99502700  1
  H  542  1  0.33840000  0.51623300  0.04950300  1
  H  543  1  0.36089400  0.51854100  0.01056000  1
  H  544  1  0.36005200  0.45863600  0.03131300  1
  H  550  1  0.21820000  0.90530400  0.77235500  1
  H  552  1  0.27173400  0.06534300  0.72134000  1
  H  554  1  0.19130800  0.08760800  0.79162900  1
  H  555  1  0.25210500  0.10905100  0.77726900  1
  H  556  1  0.19628900  0.10911200  0.75275800  1
  H  558  1  0.28983300  0.88375500  0.69829400  1
  H  559  1  0.29272800  0.86130600  0.73723700  1
  H  560  1  0.23252300  0.86212500  0.71679800  1
  H  566  1  0.27969700  0.04439100  0.27234800  1
  H  568  1  0.22614300  0.88435200  0.22134300  1
  H  570  1  0.30657800  0.86208200  0.29162700  1
  H  571  1  0.24578100  0.84064200  0.27726500  1
  H  572  1  0.30159700  0.84058000  0.25275400  1
  H  574  1  0.20802700  0.06593000  0.19829800  1
  H  575  1  0.20515000  0.08838800  0.23723900  1
  H  576  1  0.26534500  0.08756700  0.21679100  1
  H  582  1  0.81683300  0.44376700  0.52218300  1
  H  584  1  0.65678000  0.49792100  0.47138400  1
  H  586  1  0.63454900  0.41780500  0.54185400  1
  H  587  1  0.61320000  0.47850500  0.52732200  1
  H  588  1  0.61289200  0.42247100  0.50298900  1
  H  590  1  0.83835400  0.51603000  0.44833500  1
  H  591  1  0.86088500  0.51844800  0.48726800  1
  H  592  1  0.85994500  0.45847300  0.46658900  1
  H  598  1  0.68111200  0.50606900  0.02221200  1
  H  600  1  0.84110200  0.45189500  0.97134600  1
  H  602  1  0.86342700  0.53201900  0.04180100  1
  H  603  1  0.88475700  0.47131500  0.02726500  1
  H  604  1  0.88503400  0.52734100  0.00292600  1
  H  606  1  0.65949700  0.43378600  0.94838400  1
  H  607  1  0.63701300  0.43138800  0.98732600  1
  H  608  1  0.63793700  0.49135500  0.96663800  1
  H  614  1  0.32088100  0.27270500  0.90726600  1
  H  616  1  0.16153100  0.17174000  0.91412200  1
  H  618  1  0.13916000  0.31370100  0.91809600  1
  H  619  1  0.12109800  0.25679700  0.93831200  1
  H  620  1  0.11467900  0.26005700  0.89703700  1
  H  622  1  0.34211500  0.12982900  0.90389500  1
  H  623  1  0.36656800  0.18350100  0.92507800  1
  H  624  1  0.36219200  0.18616000  0.88368600  1
  H  630  1  0.17705200  0.67706500  0.40730400  1
  H  632  1  0.33657600  0.77778200  0.41400000  1
  H  634  1  0.35874400  0.63578900  0.41792800  1
  H  635  1  0.37695000  0.69265300  0.43813700  1
  H  636  1  0.38324300  0.68940500  0.39685500  1
  H  638  1  0.15602900  0.81997500  0.40396800  1
  H  639  1  0.13155600  0.76634000  0.42517900  1
  H  640  1  0.13580100  0.76367700  0.38378000  1
  H  646  1  0.95083400  0.04669700  0.15648900  1
  H  648  1  0.05188200  0.88761100  0.16494600  1
  H  650  1  0.90991200  0.86523600  0.16876800  1
  H  651  1  0.96658100  0.84785900  0.18944700  1
  H  652  1  0.96385500  0.84019400  0.14823600  1
  H  654  1  0.09373300  0.06795800  0.15332700  1
  H  655  1  0.03984300  0.09288100  0.17410300  1
  H  656  1  0.03758000  0.08749800  0.13274400  1
  H  662  1  0.54709600  0.90307000  0.65656500  1
  H  664  1  0.44595000  0.06211100  0.66489200  1
  H  666  1  0.58790800  0.08457500  0.66871900  1
  H  667  1  0.53122000  0.10196600  0.68937800  1
  H  668  1  0.53395700  0.10954400  0.64816100  1
  H  670  1  0.40421300  0.88171600  0.65335200  1
  H  671  1  0.45808700  0.85686900  0.67418100  1
  H  672  1  0.46041400  0.86217100  0.63281700  1
  H  678  1  0.17701000  0.27698700  0.59195700  1
  H  680  1  0.33662000  0.17701100  0.58245300  1
  H  682  1  0.35839900  0.31915300  0.58049300  1
  H  683  1  0.37646900  0.26298600  0.55958700  1
  H  684  1  0.38333600  0.26495700  0.60086400  1
  H  686  1  0.15631100  0.13392300  0.59241000  1
  H  687  1  0.13147000  0.18872500  0.57247700  1
  H  688  1  0.13622700  0.18894500  0.61388500  1
  H  694  1  0.32082000  0.67276100  0.09192100  1
  H  696  1  0.16108300  0.77257000  0.08256100  1
  H  698  1  0.13944200  0.63040900  0.08063500  1
  H  699  1  0.12126400  0.68655100  0.05973900  1
  H  700  1  0.11450400  0.68458600  0.10102300  1
  H  702  1  0.34137000  0.81585000  0.09234500  1
  H  703  1  0.36621500  0.76107200  0.07238500  1
  H  704  1  0.36157300  0.76085000  0.11379900  1
  H  710  1  0.55123600  0.04679200  0.34276000  1
  H  712  1  0.45127600  0.88747500  0.33156300  1
  H  714  1  0.59342500  0.86572300  0.32973200  1
  H  715  1  0.53750900  0.84837000  0.30835800  1
  H  716  1  0.53895500  0.84017800  0.34955700  1
  H  718  1  0.40816300  0.06751200  0.34304800  1
  H  719  1  0.46314300  0.09286000  0.32353300  1
  H  720  1  0.46299500  0.08701400  0.36489200  1
  H  726  1  0.94661500  0.90299900  0.84272200  1
  H  728  1  0.04672600  0.06224500  0.83165200  1
  H  730  1  0.90459400  0.08412700  0.82980400  1
  H  731  1  0.96053800  0.10147200  0.80845100  1
  H  732  1  0.95907600  0.10958700  0.84965300  1
  H  734  1  0.08967100  0.88215300  0.84306600  1
  H  735  1  0.03470100  0.85689300  0.82349800  1
  H  736  1  0.03478000  0.86265900  0.86486100  1
  H  742  1  0.67711200  0.67685100  0.09117500  1
  H  744  1  0.83613500  0.77809000  0.08309300  1
  H  746  1  0.85868200  0.63615200  0.07919300  1
  H  747  1  0.87613300  0.69290200  0.05862100  1
  H  748  1  0.88354500  0.69005200  0.09984600  1
  H  750  1  0.65567700  0.81971400  0.09444500  1
  H  751  1  0.63091900  0.76586800  0.07355600  1
  H  752  1  0.63610100  0.76346600  0.11492100  1
  H  758  1  0.82074300  0.27291000  0.59114300  1
  H  760  1  0.66155600  0.17190300  0.58319500  1
  H  762  1  0.63920000  0.31387200  0.57933000  1
  H  763  1  0.62162500  0.25715100  0.55876600  1
  H  764  1  0.61431100  0.25999800  0.59999600  1
  H  766  1  0.84198000  0.13001800  0.59438000  1
  H  767  1  0.86676000  0.18382800  0.57346700  1
  H  768  1  0.86169600  0.18623100  0.61483700  1
  H  774  1  0.82101200  0.67263200  0.40539000  1
  H  776  1  0.66171200  0.77275300  0.41616200  1
  H  778  1  0.63981600  0.63063100  0.41803000  1
  H  779  1  0.62234600  0.68662500  0.43929700  1
  H  780  1  0.61447100  0.68506600  0.39807800  1
  H  782  1  0.84186300  0.81568600  0.40504600  1
  H  783  1  0.86703700  0.76073300  0.42467800  1
  H  784  1  0.86146200  0.76077600  0.38330500  1
  H  790  1  0.67684700  0.27712300  0.90544600  1
  H  792  1  0.83633000  0.17723700  0.91604400  1
  H  794  1  0.85802700  0.31939000  0.91786600  1
  H  795  1  0.87564600  0.26343000  0.93912100  1
  H  796  1  0.88338500  0.26498100  0.89789300  1
  H  798  1  0.65620700  0.13403700  0.90514000  1
  H  799  1  0.63101700  0.18895300  0.92479900  1
  H  800  1  0.63645600  0.18891500  0.88341900  1
  H  806  1  0.45092500  0.54641300  0.65745700  1
  H  808  1  0.55194600  0.38705800  0.66400600  1
  H  810  1  0.40999100  0.36459200  0.66780700  1
  H  811  1  0.46686300  0.34641200  0.68801900  1
  H  812  1  0.46369300  0.34028900  0.64672500  1
  H  814  1  0.59379500  0.56773200  0.65424800  1
  H  815  1  0.54006200  0.59204500  0.67543000  1
  H  816  1  0.53750500  0.58789300  0.63402700  1
  H  822  1  0.04691200  0.40325000  0.15743600  1
  H  824  1  0.94610400  0.56273400  0.16404100  1
  H  826  1  0.08809200  0.58501100  0.16778400  1
  H  827  1  0.03127600  0.60325400  0.18803100  1
  H  828  1  0.03439200  0.60939400  0.14673700  1
  H  830  1  0.90400900  0.38211100  0.15428200  1
  H  831  1  0.95773800  0.35772600  0.17544100  1
  H  832  1  0.96024900  0.36188500  0.13403600  1
  H  838  1  0.05124900  0.54646400  0.84178200  1
  H  840  1  0.95124300  0.38682300  0.83257600  1
  H  842  1  0.09337100  0.36496500  0.83083100  1
  H  843  1  0.03725500  0.34677000  0.80991500  1
  H  844  1  0.03910300  0.34020700  0.85121300  1
  H  846  1  0.90819300  0.56722100  0.84202500  1
  H  847  1  0.96307200  0.59192000  0.82210400  1
  H  848  1  0.96315000  0.58741300  0.86352400  1
  H  854  1  0.44665900  0.40318000  0.34181100  1
  H  856  1  0.54648000  0.56293700  0.33255700  1
  H  858  1  0.40432300  0.58463300  0.33087600  1
  H  859  1  0.46038300  0.60287900  0.30992200  1
  H  860  1  0.45859400  0.60945700  0.35122100  1
  H  862  1  0.58974100  0.38258500  0.34199100  1
  H  863  1  0.53486100  0.35782200  0.32209500  1
  H  864  1  0.53483400  0.36233200  0.36351400  1
  C  1  1  0.21637400  0.41511400  0.88857000  1
  C  2  1  0.22133200  0.44072900  0.91747300  1
  C  3  1  0.23512600  0.41292700  0.94476800  1
  C  4  1  0.24363400  0.35798300  0.94358400  1
  C  5  1  0.23920200  0.33245200  0.91404700  1
  C  6  1  0.22600800  0.36111900  0.88697900  1
  C  9  1  0.19265600  0.44042900  0.86289400  1
  C  10  1  0.13863200  0.45014900  0.86351700  1
  C  11  1  0.11165900  0.46501900  0.83613800  1
  C  12  1  0.13908100  0.47163500  0.80736100  1
  C  13  1  0.19413900  0.46352200  0.80725300  1
  C  14  1  0.22006300  0.44727500  0.83473200  1
  C  23  1  0.28144100  0.53452200  0.38856800  1
  C  24  1  0.27643700  0.50889200  0.41746200  1
  C  25  1  0.26268600  0.53674100  0.44474700  1
  C  26  1  0.25424700  0.59169400  0.44355400  1
  C  27  1  0.25865900  0.61719200  0.41400700  1
  C  28  1  0.27171500  0.58849700  0.38692400  1
  C  31  1  0.30517700  0.50917600  0.36289900  1
  C  32  1  0.35918700  0.49938300  0.36356400  1
  C  33  1  0.38615000  0.48455600  0.33617300  1
  C  34  1  0.35876300  0.47795500  0.30738700  1
  C  35  1  0.30370300  0.48606800  0.30727000  1
  C  36  1  0.27776700  0.50234200  0.33473700  1
  C  45  1  0.80848500  0.94214300  0.13846900  1
  C  46  1  0.78285500  0.94728200  0.16736700  1
  C  47  1  0.81067300  0.96110300  0.19465400  1
  C  48  1  0.86561400  0.96959800  0.19345400  1
  C  49  1  0.89110800  0.96513800  0.16390700  1
  C  50  1  0.86246400  0.95182800  0.13684600  1
  C  53  1  0.78290200  0.91860600  0.11280700  1
  C  54  1  0.77211000  0.86479100  0.11360700  1
  C  55  1  0.75542700  0.83808100  0.08651100  1
  C  56  1  0.74887700  0.86547000  0.05771500  1
  C  57  1  0.75835100  0.92032200  0.05737600  1
  C  58  1  0.77587200  0.94601100  0.08466500  1
  C  67  1  0.68938200  0.00761200  0.63847100  1
  C  68  1  0.71502000  0.00252300  0.66736700  1
  C  69  1  0.68721400  0.98874500  0.69466600  1
  C  70  1  0.63227600  0.98021500  0.69346800  1
  C  71  1  0.60676300  0.98469400  0.66392400  1
  C  72  1  0.63542300  0.99782200  0.63683800  1
  C  75  1  0.71491500  0.03119600  0.61280400  1
  C  76  1  0.72562900  0.08502400  0.61361600  1
  C  77  1  0.74217500  0.11180100  0.58651400  1
  C  78  1  0.74875200  0.08444200  0.55770800  1
  C  79  1  0.73929800  0.02958400  0.55735100  1
  C  80  1  0.72193600  0.00382600  0.58464900  1
  C  89  1  0.28313100  0.41838500  0.61285600  1
  C  90  1  0.27637800  0.44579400  0.58468900  1
  C  91  1  0.26007500  0.41991400  0.55720800  1
  C  92  1  0.25182600  0.36487300  0.55732000  1
  C  93  1  0.25839400  0.33742600  0.58609000  1
  C  94  1  0.27336200  0.36436600  0.61346600  1
  C  97  1  0.30852900  0.44200800  0.63853200  1
  C  98  1  0.36253200  0.45156800  0.63694100  1
  C  99  1  0.39121500  0.46466400  0.66401800  1
  C  100  1  0.36569200  0.46914800  0.69355300  1
  C  101  1  0.31072500  0.46079600  0.69472200  1
  C  102  1  0.28289000  0.44708800  0.66742300  1
  C  111  1  0.21479800  0.53126300  0.11285800  1
  C  112  1  0.22157600  0.50384700  0.08469900  1
  C  113  1  0.23780900  0.52977400  0.05722000  1
  C  114  1  0.24602200  0.58482000  0.05734100  1
  C  115  1  0.23948400  0.61224000  0.08612500  1
  C  116  1  0.22460600  0.58527300  0.11350900  1
  C  119  1  0.18939200  0.50760900  0.13853200  1
  C  120  1  0.13540500  0.49797100  0.13690400  1
  C  121  1  0.10673800  0.48491400  0.16399100  1
  C  122  1  0.13223300  0.48044200  0.19353500  1
  C  123  1  0.18720000  0.48879700  0.19470900  1
  C  124  1  0.21503900  0.50254800  0.16741800  1
  C  133  1  0.69261800  0.94053300  0.36286400  1
  C  134  1  0.72000700  0.94744200  0.33469300  1
  C  135  1  0.69409500  0.96384800  0.30724200  1
  C  136  1  0.63906800  0.97214000  0.30739600  1
  C  137  1  0.61168700  0.96554400  0.33618800  1
  C  138  1  0.63862300  0.95040500  0.36353300  1
  C  141  1  0.71653300  0.91532300  0.38853500  1
  C  142  1  0.72720400  0.86153600  0.38679500  1
  C  143  1  0.74215200  0.83314900  0.41364000  1
  C  144  1  0.74668200  0.85865900  0.44318000  1
  C  145  1  0.73679500  0.91337000  0.44455700  1
  C  146  1  0.72176900  0.94097000  0.41741100  1
  C  155  1  0.80529600  0.00924200  0.86287800  1
  C  156  1  0.77791500  0.00237600  0.83470200  1
  C  157  1  0.80383000  0.98603600  0.80723900  1
  C  158  1  0.85885800  0.97770400  0.80740100  1
  C  159  1  0.88624600  0.98432800  0.83619200  1
  C  160  1  0.85928600  0.99933500  0.86355600  1
  C  163  1  0.78140800  0.03448500  0.88854700  1
  C  164  1  0.77080800  0.08828200  0.88679500  1
  C  165  1  0.75598100  0.11672700  0.91363700  1
  C  166  1  0.75140700  0.09124200  0.94318600  1
  C  167  1  0.76127100  0.03652500  0.94458300  1
  C  168  1  0.77617600  0.00887100  0.91743400  1
  C  177  1  0.78168100  0.53462400  0.10939700  1
  C  178  1  0.77672200  0.50899700  0.08049100  1
  C  179  1  0.76293200  0.53676400  0.05318200  1
  C  180  1  0.75437000  0.59169400  0.05435900  1
  C  181  1  0.75877200  0.61724300  0.08389300  1
  C  182  1  0.77200400  0.58861000  0.11097400  1
  C  185  1  0.80529200  0.50921100  0.13508700  1
  C  186  1  0.85913400  0.49859900  0.13433000  1
  C  187  1  0.88589900  0.48209100  0.16144300  1
  C  188  1  0.85850700  0.47558800  0.19024600  1
  C  189  1  0.80363100  0.48493400  0.19056300  1
  C  190  1  0.77789600  0.50222500  0.16323800  1
  C  199  1  0.71629500  0.41527400  0.60939600  1
  C  200  1  0.72131300  0.44091700  0.58050000  1
  C  201  1  0.73505600  0.41309900  0.55320100  1
  C  202  1  0.74355100  0.35815700  0.55438700  1
  C  203  1  0.73915300  0.33263900  0.58393100  1
  C  204  1  0.72599900  0.36129700  0.61101500  1
  C  207  1  0.69265700  0.44071800  0.63507700  1
  C  208  1  0.63881800  0.45133800  0.63428800  1
  C  209  1  0.61204500  0.46777500  0.66141000  1
  C  210  1  0.63941500  0.47432100  0.69021700  1
  C  211  1  0.69430200  0.46502700  0.69054000  1
  C  212  1  0.72005700  0.44772400  0.66322500  1
  C  221  1  0.18938100  0.00727000  0.85941100  1
  C  222  1  0.21499700  0.00198500  0.83052000  1
  C  223  1  0.18734800  0.98711200  0.80336100  1
  C  224  1  0.13262000  0.97732600  0.80475500  1
  C  225  1  0.10714400  0.98182100  0.83431100  1
  C  226  1  0.13557800  0.99672200  0.86114900  1
  C  229  1  0.21483700  0.03099200  0.88507100  1
  C  230  1  0.22566100  0.08479600  0.88422400  1
  C  231  1  0.24221800  0.11160000  0.91132200  1
  C  232  1  0.24864100  0.08429700  0.94016000  1
  C  233  1  0.23919600  0.02944300  0.94054600  1
  C  234  1  0.22179200  0.00367700  0.91325800  1
  C  243  1  0.30855500  0.94249400  0.35941200  1
  C  244  1  0.28292800  0.94773800  0.33052000  1
  C  245  1  0.31056600  0.96256500  0.30334700  1
  C  246  1  0.36529300  0.97237000  0.30473200  1
  C  247  1  0.39078600  0.96782100  0.33428400  1
  C  248  1  0.36234400  0.95311000  0.36115200  1
  C  251  1  0.28314700  0.91873100  0.38507300  1
  C  252  1  0.27240000  0.86491200  0.38421500  1
  C  253  1  0.25598300  0.83804200  0.41131700  1
  C  254  1  0.24953500  0.86531400  0.44016900  1
  C  255  1  0.25896300  0.92017400  0.44057200  1
  C  256  1  0.27620900  0.94600700  0.41327500  1
  C  265  1  0.71466500  0.53138400  0.38502200  1
  C  266  1  0.72139800  0.50397900  0.41319800  1
  C  267  1  0.73778100  0.52981600  0.44067700  1
  C  268  1  0.74618300  0.58483200  0.44054800  1
  C  269  1  0.73966400  0.61227900  0.41177400  1
  C  270  1  0.72458000  0.58537800  0.38440400  1
  C  273  1  0.68932300  0.50767900  0.35933900  1
  C  274  1  0.63549300  0.49726600  0.36105600  1
  C  275  1  0.60701600  0.48252800  0.33421100  1
  C  276  1  0.63249500  0.47800200  0.30465700  1
  C  277  1  0.68724500  0.48767800  0.30328000  1
  C  278  1  0.71492600  0.50245500  0.33044500  1
  C  287  1  0.78311200  0.41848300  0.88501700  1
  C  288  1  0.77638300  0.44590300  0.91318800  1
  C  289  1  0.76006300  0.42003100  0.94066500  1
  C  290  1  0.75167600  0.36501400  0.94052900  1
  C  291  1  0.75813300  0.33759500  0.91173800  1
  C  292  1  0.77307300  0.36451600  0.88434600  1
  C  295  1  0.80848100  0.44219900  0.85933700  1
  C  296  1  0.86230800  0.45262500  0.86108600  1
  C  297  1  0.89079600  0.46729600  0.83423400  1
  C  298  1  0.86533300  0.47187300  0.80467600  1
  C  299  1  0.81057500  0.46224300  0.80329300  1
  C  300  1  0.78287800  0.44744300  0.83044700  1
  C  309  1  0.30531900  0.00888800  0.63513300  1
  C  310  1  0.27795700  0.00182600  0.66329700  1
  C  311  1  0.30370400  0.98439800  0.69058900  1
  C  312  1  0.35856000  0.97494400  0.69021500  1
  C  313  1  0.38589700  0.98145100  0.66139600  1
  C  314  1  0.35913500  0.99814900  0.63431700  1
  C  317  1  0.28153300  0.03426800  0.60946900  1
  C  318  1  0.27092500  0.08806400  0.61122600  1
  C  319  1  0.25616400  0.11652900  0.58436600  1
  C  320  1  0.25173700  0.09107600  0.55479900  1
  C  321  1  0.26150200  0.03634600  0.55340500  1
  C  322  1  0.27634700  0.00868600  0.58056300  1
  C  331  1  0.19256100  0.94089900  0.13511700  1
  C  332  1  0.21991700  0.94790900  0.16328800  1
  C  333  1  0.19416700  0.96527100  0.19059200  1
  C  334  1  0.13931500  0.97475600  0.19021600  1
  C  335  1  0.11197800  0.96820300  0.16139700  1
  C  336  1  0.13876000  0.95170300  0.13428600  1
  C  339  1  0.21631500  0.91547600  0.10945800  1
  C  340  1  0.22683800  0.86166500  0.11123000  1
  C  341  1  0.24146900  0.83312900  0.08437500  1
  C  342  1  0.24594900  0.85855700  0.05479900  1
  C  343  1  0.23622700  0.91329600  0.05338200  1
  C  344  1  0.22151400  0.94102000  0.08054100  1
  C  353  1  0.22417300  0.46478100  0.77938400  1
  C  354  1  0.24013300  0.51192500  0.76478800  1
  C  355  1  0.26868500  0.50880200  0.73659800  1
  C  356  1  0.28243600  0.46034400  0.72321600  1
  C  357  1  0.26729500  0.41316500  0.73811400  1
  C  359  1  0.23772400  0.41635800  0.76586200  1
  C  361  1  0.28100500  0.36005500  0.72662000  1
  C  365  1  0.22878600  0.56480800  0.77741900  1
  C  369  1  0.27368700  0.48481300  0.27939300  1
  C  370  1  0.25775600  0.43766500  0.26478600  1
  C  371  1  0.22922700  0.44079200  0.23658900  1
  C  372  1  0.21547600  0.48925000  0.22320800  1
  C  373  1  0.23058600  0.53642900  0.23811400  1
  C  375  1  0.26013600  0.53323200  0.26587100  1
  C  377  1  0.21686600  0.58953800  0.22662500  1
  C  381  1  0.26910500  0.38478400  0.27741500  1
  C  385  1  0.75708000  0.95025300  0.02943400  1
  C  386  1  0.70997100  0.96617100  0.01476500  1
  C  387  1  0.71314900  0.99453100  0.98650100  1
  C  388  1  0.76161800  0.00836800  0.97315400  1
  C  389  1  0.80875400  0.99336100  0.98815900  1
  C  391  1  0.80550700  0.96380900  0.01591200  1
  C  393  1  0.86190600  0.00725700  0.97681200  1
  C  397  1  0.65706100  0.95500500  0.02741000  1
  C  401  1  0.74068600  0.99966900  0.52940400  1
  C  402  1  0.78784900  0.98388000  0.51474500  1
  C  403  1  0.78476500  0.95551600  0.48647800  1
  C  404  1  0.73634200  0.94153500  0.47312400  1
  C  405  1  0.68915900  0.95638900  0.48812700  1
  C  407  1  0.69230600  0.98595400  0.51587900  1
  C  409  1  0.63605000  0.94232600  0.47677800  1
  C  413  1  0.84072000  0.99519400  0.52740400  1
  C  417  1  0.77366500  0.48362400  0.21848900  1
  C  418  1  0.75776600  0.43649100  0.23313600  1
  C  419  1  0.72932500  0.43963000  0.26137300  1
  C  420  1  0.71542500  0.48808000  0.27472000  1
  C  421  1  0.73042400  0.53523600  0.25973800  1
  C  423  1  0.76002700  0.53203100  0.23200300  1
  C  425  1  0.71649000  0.58836800  0.27110400  1
  C  429  1  0.76903800  0.38359900  0.22049800  1
  C  433  1  0.72424400  0.46632900  0.71847300  1
  C  434  1  0.74011600  0.51345700  0.73313600  1
  C  435  1  0.76852700  0.51031100  0.76138500  1
  C  436  1  0.78241800  0.46185300  0.77472700  1
  C  437  1  0.76744300  0.41470100  0.75973300  1
  C  439  1  0.73787500  0.41791800  0.73198500  1
  C  441  1  0.78137300  0.36156400  0.77109200  1
  C  445  1  0.72884500  0.56635200  0.72050300  1
  C  449  1  0.24043900  0.99955800  0.96851100  1
  C  450  1  0.28753700  0.98357900  0.98317000  1
  C  451  1  0.28434900  0.95520400  0.01143000  1
  C  452  1  0.23587800  0.94143700  0.02480000  1
  C  453  1  0.18875200  0.95653400  0.00981700  1
  C  455  1  0.19201200  0.98606700  0.98205200  1
  C  457  1  0.13559100  0.94275900  0.02120300  1
  C  461  1  0.34045300  0.99469900  0.97051300  1
  C  465  1  0.25760000  0.95004200  0.46854200  1
  C  466  1  0.21044700  0.96588300  0.48318900  1
  C  467  1  0.21353500  0.99427000  0.51145200  1
  C  468  1  0.26195800  0.00818800  0.52482900  1
  C  469  1  0.30913700  0.99324400  0.50984900  1
  C  471  1  0.30598000  0.96369600  0.48208700  1
  C  473  1  0.36225000  0.00720000  0.52123600  1
  C  477  1  0.15757200  0.95461500  0.47052300  1
  C  481  1  0.72410800  0.96509500  0.27934900  1
  C  482  1  0.74012000  0.01223100  0.26475800  1
  C  483  1  0.76866300  0.00910200  0.23656300  1
  C  484  1  0.78239500  0.96064700  0.22316500  1
  C  485  1  0.76720500  0.91347900  0.23805800  1
  C  487  1  0.73762900  0.91667600  0.26580800  1
  C  489  1  0.78089000  0.86036200  0.22656400  1
  C  493  1  0.72884500  0.06511600  0.27740500  1
  C  497  1  0.77382500  0.98476100  0.77934600  1
  C  498  1  0.75780100  0.93762100  0.76476500  1
  C  499  1  0.72923900  0.94074400  0.73657200  1
  C  500  1  0.71550300  0.98919400  0.72317400  1
  C  501  1  0.73070100  0.03636600  0.73806000  1
  C  503  1  0.76029300  0.03317400  0.76580300  1
  C  505  1  0.71701200  0.08948100  0.72656400  1
  C  509  1  0.76908400  0.88474100  0.77741700  1
  C  513  1  0.25878200  0.44998500  0.52934800  1
  C  514  1  0.21162400  0.46600900  0.51478900  1
  C  515  1  0.21472000  0.49465700  0.48663400  1
  C  516  1  0.26316200  0.50846700  0.47325300  1
  C  517  1  0.31035200  0.49327300  0.48811700  1
  C  519  1  0.30718600  0.46360000  0.51582800  1
  C  521  1  0.36345200  0.50703200  0.47662600  1
  C  525  1  0.15875500  0.45463600  0.52743000  1
  C  529  1  0.23909000  0.49973300  0.02934800  1
  C  530  1  0.28623900  0.48371700  0.01477600  1
  C  531  1  0.28312400  0.45505700  0.98662500  1
  C  532  1  0.23467400  0.44123200  0.97326200  1
  C  533  1  0.18749300  0.45642200  0.98813800  1
  C  535  1  0.19067700  0.48610300  0.01584400  1
  C  537  1  0.13438400  0.44264400  0.97666700  1
  C  541  1  0.33911600  0.49510600  0.02739700  1
  C  545  1  0.27378300  0.98308800  0.71854100  1
  C  546  1  0.25784000  0.93595600  0.73317800  1
  C  547  1  0.22941100  0.93908700  0.76142200  1
  C  548  1  0.21552700  0.98752500  0.77479000  1
  C  549  1  0.23056500  0.03468400  0.75981800  1
  C  551  1  0.26017200  0.03148600  0.73207900  1
  C  553  1  0.21665100  0.08781700  0.77119000  1
  C  557  1  0.26904800  0.88306500  0.72051500  1
  C  561  1  0.22408800  0.96660400  0.21854400  1
  C  562  1  0.24003600  0.01373600  0.23317800  1
  C  563  1  0.26847900  0.01060900  0.26141800  1
  C  564  1  0.28237000  0.96216700  0.27478300  1
  C  565  1  0.26732200  0.91501200  0.25981600  1
  C  567  1  0.23770600  0.91820900  0.23208100  1
  C  569  1  0.28123500  0.86187500  0.27118600  1
  C  573  1  0.22882300  0.06662500  0.22051500  1
  C  577  1  0.73904000  0.49976100  0.46854700  1
  C  578  1  0.78617700  0.48370600  0.48311900  1
  C  579  1  0.78305400  0.45512000  0.51129700  1
  C  580  1  0.73460400  0.44139200  0.52469800  1
  C  581  1  0.68742800  0.45661700  0.50982100  1
  C  583  1  0.69062500  0.48623200  0.48208700  1
  C  585  1  0.63431500  0.44294400  0.52132500  1
  C  589  1  0.83906000  0.49498500  0.47046700  1
  C  593  1  0.75883800  0.45006300  0.96854600  1
  C  594  1  0.71171800  0.46611400  0.98314000  1
  C  595  1  0.71488000  0.49470800  0.01131500  1
  C  596  1  0.76334900  0.50843600  0.02469000  1
  C  597  1  0.81050500  0.49319900  0.00979700  1
  C  599  1  0.80726900  0.46358400  0.98206600  1
  C  601  1  0.86363400  0.50687600  0.02127300  1
  C  605  1  0.65881900  0.45483900  0.97051100  1
  C  609  1  0.24344600  0.16692700  0.90961900  1
  C  610  1  0.29034900  0.19619400  0.90747900  1
  C  611  1  0.28721100  0.25121600  0.90830700  1
  C  612  1  0.23894900  0.27729200  0.91135500  1
  C  613  1  0.19195800  0.24804000  0.91318800  1
  C  615  1  0.19517300  0.19315000  0.91216800  1
  C  617  1  0.13904600  0.27129500  0.91685100  1
  C  621  1  0.34302900  0.17227500  0.90490800  1
  C  625  1  0.25465400  0.78272200  0.40958700  1
  C  626  1  0.20770100  0.75352800  0.40749500  1
  C  627  1  0.21075800  0.69850100  0.40830900  1
  C  628  1  0.25898900  0.67235200  0.41130300  1
  C  629  1  0.30603000  0.70153000  0.41308800  1
  C  631  1  0.30289500  0.75642500  0.41208000  1
  C  633  1  0.35891700  0.67819200  0.41669300  1
  C  637  1  0.15505100  0.77752900  0.40498300  1
  C  641  1  0.05665400  0.96941100  0.15973100  1
  C  642  1  0.02737000  0.01623600  0.15713000  1
  C  643  1  0.97233900  0.01307100  0.15785400  1
  C  644  1  0.94628000  0.96486100  0.16124500  1
  C  645  1  0.97556300  0.91795900  0.16360400  1
  C  647  1  0.03045700  0.92118700  0.16266800  1
  C  649  1  0.95233100  0.86513800  0.16772900  1
  C  653  1  0.05127700  0.06886400  0.15418000  1
  C  657  1  0.44122500  0.98030000  0.65971400  1
  C  658  1  0.47053900  0.93348800  0.65716000  1
  C  659  1  0.52556700  0.93668100  0.65790300  1
  C  660  1  0.55159500  0.98491300  0.66127900  1
  C  661  1  0.52228400  0.03180500  0.66359000  1
  C  663  1  0.46739300  0.02854300  0.66263800  1
  C  665  1  0.54548600  0.08464900  0.66767600  1
  C  669  1  0.44667100  0.88083900  0.65423300  1
  C  673  1  0.25479100  0.17169800  0.58722700  1
  C  674  1  0.20780500  0.20064800  0.59008300  1
  C  675  1  0.21074200  0.25569600  0.59032900  1
  C  676  1  0.25886200  0.28211700  0.58752400  1
  C  677  1  0.30592600  0.25313100  0.58489300  1
  C  679  1  0.30293900  0.19820000  0.58496100  1
  C  681  1  0.35869900  0.27672100  0.58128100  1
  C  685  1  0.15523800  0.17639700  0.59231700  1
  C  689  1  0.24291900  0.77797000  0.08725800  1
  C  690  1  0.28994100  0.74906800  0.09006800  1
  C  691  1  0.28706200  0.69401700  0.09032600  1
  C  692  1  0.23896100  0.66754800  0.08757100  1
  C  693  1  0.19186100  0.69648500  0.08498100  1
  C  695  1  0.19479300  0.75141900  0.08504100  1
  C  697  1  0.13910200  0.67283900  0.08141800  1
  C  701  1  0.34248900  0.77337700  0.09224800  1
  C  705  1  0.44595800  0.96916900  0.33710200  1
  C  706  1  0.47489800  0.01607000  0.34045200  1
  C  707  1  0.52994500  0.01311200  0.34079100  1
  C  708  1  0.55637100  0.96505600  0.33760700  1
  C  709  1  0.52738700  0.91809200  0.33442400  1
  C  711  1  0.47245800  0.92108600  0.33441700  1
  C  713  1  0.55098300  0.86542700  0.33031400  1
  C  717  1  0.45063600  0.06857700  0.34310400  1
  C  721  1  0.05197400  0.98053800  0.83715800  1
  C  722  1  0.02298400  0.93365900  0.84046300  1
  C  723  1  0.96793700  0.93666100  0.84077900  1
  C  724  1  0.94155800  0.98474100  0.83760700  1
  C  725  1  0.97058500  0.03169300  0.83447300  1
  C  727  1  0.02551300  0.02865000  0.83448200  1
  C  729  1  0.94703600  0.08438500  0.83039300  1
  C  733  1  0.04719500  0.88112700  0.84309400  1
  C  737  1  0.75430400  0.78275700  0.08815900  1
  C  738  1  0.70749500  0.75341900  0.09065000  1
  C  739  1  0.71072000  0.69839900  0.08988100  1
  C  740  1  0.75897500  0.67240200  0.08655100  1
  C  741  1  0.80586100  0.70173700  0.08431600  1
  C  743  1  0.80257100  0.75662000  0.08529000  1
  C  745  1  0.85873300  0.67857000  0.08028300  1
  C  749  1  0.65482300  0.77725600  0.09353600  1
  C  753  1  0.74339500  0.16711700  0.58818800  1
  C  754  1  0.79025100  0.19638800  0.59063700  1
  C  755  1  0.78710100  0.25141200  0.58988200  1
  C  756  1  0.73887300  0.27747900  0.58660500  1
  C  757  1  0.69193900  0.24821000  0.58440200  1
  C  759  1  0.69515600  0.19332100  0.58536800  1
  C  761  1  0.63909100  0.27145400  0.58041300  1
  C  765  1  0.84289200  0.17247000  0.59347000  1
  C  769  1  0.74345000  0.77798500  0.41081200  1
  C  770  1  0.79034800  0.74900200  0.40758900  1
  C  771  1  0.78734200  0.69395500  0.40727800  1
  C  772  1  0.73924300  0.66758400  0.41037000  1
  C  773  1  0.69227500  0.69661000  0.41341300  1
  C  775  1  0.69531900  0.75153600  0.41339900  1
  C  777  1  0.63955900  0.67306900  0.41740100  1
  C  781  1  0.84289200  0.77320900  0.40503700  1
  C  785  1  0.75458100  0.17188500  0.91079100  1
  C  786  1  0.70763200  0.20079900  0.90761900  1
  C  787  1  0.71055600  0.25584800  0.90729400  1
  C  788  1  0.75862400  0.28228900  0.91033000  1
  C  789  1  0.80564700  0.25333200  0.91332200  1
  C  791  1  0.80268000  0.19840400  0.91331700  1
  C  793  1  0.85833900  0.27694900  0.91724400  1
  C  797  1  0.65511500  0.17651100  0.90513000  1
  C  801  1  0.55672600  0.46901100  0.65974000  1
  C  802  1  0.52744600  0.51591700  0.65767200  1
  C  803  1  0.47242600  0.51274800  0.65843700  1
  C  804  1  0.44637100  0.46445000  0.66133900  1
  C  805  1  0.47563500  0.41745800  0.66308700  1
  C  807  1  0.53052200  0.42070500  0.66213000  1
  C  809  1  0.45239800  0.36450800  0.66659500  1
  C  813  1  0.55134900  0.56862100  0.65522300  1
  C  817  1  0.94121500  0.48078500  0.15976200  1
  C  818  1  0.97042900  0.43384400  0.15768300  1
  C  819  1  0.02545400  0.43694400  0.15842600  1
  C  820  1  0.05157700  0.48520700  0.16132000  1
  C  821  1  0.02237400  0.53223400  0.16308800  1
  C  823  1  0.96748100  0.52905600  0.16215400  1
  C  825  1  0.04568400  0.58515200  0.16659400  1
  C  829  1  0.94645500  0.38116900  0.15524100  1
  C  833  1  0.94595200  0.46869500  0.83709900  1
  C  834  1  0.97490500  0.51568700  0.83989000  1
  C  835  1  0.02995000  0.51273200  0.84021700  1
  C  836  1  0.05635500  0.46457800  0.83756700  1
  C  837  1  0.02736400  0.41750400  0.83502500  1
  C  839  1  0.97243700  0.42051400  0.83501300  1
  C  841  1  0.05093700  0.36469200  0.83157700  1
  C  845  1  0.95066600  0.56827800  0.84197900  1
  C  849  1  0.55186400  0.48107000  0.33708800  1
  C  850  1  0.52296600  0.43404300  0.33988600  1
  C  851  1  0.46791900  0.43694000  0.34023900  1
  C  852  1  0.44145800  0.48506200  0.33760000  1
  C  853  1  0.47039500  0.53216700  0.33503900  1
  C  855  1  0.52532500  0.52922000  0.33500400  1
  C  857  1  0.44675700  0.58495300  0.33159600  1
  C  861  1  0.54726700  0.38148000  0.34196500  1
  N  8  1  0.25370900  0.33022400  0.97020200  1
  N  15  1  0.11303100  0.48353000  0.78039200  1
  N  30  1  0.24423200  0.61948000  0.47017000  1
  N  37  1  0.38483200  0.46607900  0.28042000  1
  N  52  1  0.89338500  0.97975900  0.22005800  1
  N  59  1  0.73566400  0.83949600  0.03094000  1
  N  74  1  0.60451300  0.97008600  0.72008000  1
  N  81  1  0.76189900  0.11045000  0.53093100  1
  N  96  1  0.23987000  0.33884200  0.53035300  1
  N  103  1  0.39345700  0.47915200  0.72018300  1
  N  118  1  0.25793400  0.61087600  0.03037800  1
  N  125  1  0.10445800  0.47043800  0.22016000  1
  N  140  1  0.61300100  0.98423800  0.28046500  1
  N  147  1  0.75829600  0.83102800  0.46962000  1
  N  162  1  0.88492500  0.96562200  0.78046700  1
  N  169  1  0.73985100  0.11890600  0.96962500  1
  N  184  1  0.74424100  0.61943400  0.02773800  1
  N  191  1  0.88448000  0.46256300  0.21705400  1
  N  206  1  0.75363300  0.33039000  0.52777300  1
  N  213  1  0.61342600  0.48732400  0.71702300  1
  N  228  1  0.10495100  0.96580100  0.77831700  1
  N  235  1  0.26170700  0.11033100  0.96694200  1
  N  250  1  0.39295000  0.98387600  0.27828500  1
  N  257  1  0.23653900  0.83924300  0.46694900  1
  N  272  1  0.75825700  0.61084900  0.46750100  1
  N  279  1  0.60482100  0.46660900  0.27819800  1
  N  294  1  0.73965600  0.33897500  0.96748400  1
  N  301  1  0.89302600  0.48325700  0.77822100  1
  N  316  1  0.38456800  0.96175400  0.71698000  1
  N  323  1  0.24033600  0.11876100  0.52834400  1
  N  338  1  0.11330400  0.98793000  0.21698400  1
  N  345  1  0.25728400  0.83082900  0.02834800  1
