# generated using pymatgen
data_H32C43N4
_symmetry_space_group_name_H-M   'P 1'
_cell_length_a   28.79880000
_cell_length_b   58.42895000
_cell_length_c   58.42900000
_cell_angle_alpha   120.00008492
_cell_angle_beta   89.99990000
_cell_angle_gamma   90.00000000
_symmetry_Int_Tables_number   1
_chemical_formula_structural   H32C43N4
_chemical_formula_sum   'H384 C516 N48'
_cell_volume   85145.39944048
_cell_formula_units_Z   12
loop_
 _symmetry_equiv_pos_site_id
 _symmetry_equiv_pos_as_xyz
  1  'x, y, z'
loop_
 _atom_site_type_symbol
 _atom_site_label
 _atom_site_symmetry_multiplicity
 _atom_site_fract_x
 _atom_site_fract_y
 _atom_site_fract_z
 _atom_site_occupancy
  H  1  1  0.79562300  0.65609500  0.45618600  1
  H  27  1  0.62367600  0.91896000  0.48959100  1
  H  28  1  0.68429900  0.88743900  0.47845100  1
  H  29  1  0.63828400  0.91353700  0.41520100  1
  H  30  1  0.69864100  0.88233500  0.40428700  1
  H  31  1  0.78817200  0.88870600  0.41551200  1
  H  32  1  0.85185900  0.91798400  0.43522100  1
  H  33  1  0.84059300  0.90888000  0.50223200  1
  H  34  1  0.77684300  0.87994900  0.48262100  1
  H  35  1  0.80053900  0.83123300  0.44296000  1
  H  36  1  0.79023700  0.79293700  0.44647000  1
  H  37  1  0.64509700  0.79993800  0.44251100  1
  H  38  1  0.65548600  0.83793900  0.43874200  1
  H  39  1  0.67221800  0.83277100  0.39316700  1
  H  40  1  0.81736500  0.83843800  0.40381600  1
  H  41  1  0.82745100  0.80267500  0.36061700  1
  H  42  1  0.68214300  0.79665600  0.34986300  1
  H  45  1  0.90799900  0.93118500  0.49700400  1
  H  46  1  0.58862900  0.94732100  0.44886300  1
  H  48  1  0.68064800  0.75840600  0.43507900  1
  H  50  1  0.79560900  0.76893700  0.31906900  1
  H  54  1  0.05130600  0.97404300  0.51196800  1
  H  55  1  0.98790700  0.94388600  0.49721800  1
  H  60  1  0.41577500  0.97126900  0.51355900  1
  H  62  1  0.44658500  0.93155300  0.50858100  1
  H  63  1  0.50762300  0.93255700  0.51165500  1
  H  64  1  0.48128100  0.91473700  0.47997900  1
  H  71  1  0.75613400  0.75161000  0.49237400  1
  H  73  1  0.71310700  0.67041100  0.41310600  1
  H  74  1  0.71572600  0.71115700  0.41257000  1
  H  76  1  0.76135800  0.73083300  0.51811200  1
  H  77  1  0.78671200  0.69931000  0.49953300  1
  H  78  1  0.72633700  0.70243200  0.50677600  1
  H  86  1  0.75607100  0.70967200  0.22353200  1
  H  88  1  0.71311100  0.71158000  0.30472900  1
  H  89  1  0.71573700  0.67030200  0.26397600  1
  H  91  1  0.76130000  0.75619000  0.24432100  1
  H  92  1  0.78662800  0.76914000  0.27585100  1
  H  93  1  0.72625100  0.77323900  0.27271300  1
  H  117  1  0.63814900  0.55999600  0.50451900  1
  H  118  1  0.69854500  0.57089300  0.48423900  1
  H  119  1  0.78809600  0.55960600  0.47942000  1
  H  120  1  0.85182300  0.53991400  0.48898400  1
  H  121  1  0.80053500  0.53221800  0.39450700  1
  H  122  1  0.79019700  0.52866600  0.35268100  1
  H  123  1  0.64504800  0.53249500  0.36360500  1
  H  124  1  0.65544800  0.53630900  0.40539900  1
  H  125  1  0.67219500  0.58194700  0.44577000  1
  H  126  1  0.81738000  0.57133800  0.44092800  1
  H  127  1  0.82746700  0.61455700  0.44840400  1
  H  128  1  0.68214500  0.62526700  0.45299400  1
  H  131  1  0.58850800  0.52634500  0.50466800  1
  H  133  1  0.68053200  0.53992700  0.32949700  1
  H  155  1  0.62370400  0.53952600  0.05616000  1
  H  156  1  0.68432300  0.55990600  0.08768200  1
  H  157  1  0.84061100  0.56225400  0.06625600  1
  H  158  1  0.77686300  0.57157300  0.09518500  1
  H  159  1  0.80055300  0.58061600  0.14390300  1
  H  160  1  0.79025100  0.62241900  0.18220500  1
  H  161  1  0.64511800  0.61146800  0.17519000  1
  H  162  1  0.65550100  0.56970100  0.13718800  1
  H  163  1  0.67222800  0.52928600  0.14234900  1
  H  164  1  0.81737500  0.53426200  0.13668300  1
  H  165  1  0.82745700  0.52682800  0.17244800  1
  H  166  1  0.68214800  0.52209700  0.17846800  1
  H  168  1  0.90798400  0.53471500  0.04392400  1
  H  170  1  0.68070200  0.64552700  0.21674900  1
  H  172  1  0.79562000  0.51905400  0.20620700  1
  H  173  1  0.05128500  0.50685100  0.00105900  1
  H  174  1  0.98788600  0.52225400  0.03121900  1
  H  176  1  0.41581700  0.51120900  0.00383600  1
  H  178  1  0.44664400  0.54595100  0.04354400  1
  H  179  1  0.50768200  0.54800200  0.04254000  1
  H  180  1  0.48131600  0.53416900  0.06037400  1
  H  185  1  0.71293600  0.56198400  0.26351600  1
  H  186  1  0.71555600  0.56251400  0.30479600  1
  H  193  1  0.62370700  0.48554300  0.43560900  1
  H  194  1  0.68436300  0.49666500  0.41523200  1
  H  195  1  0.84070800  0.47294700  0.41283000  1
  H  196  1  0.77691700  0.49253300  0.40351300  1
  H  197  1  0.90809900  0.47819600  0.44037900  1
  H  203  1  0.63828800  0.47056400  0.06159600  1
  H  204  1  0.69864200  0.49085100  0.09279800  1
  H  205  1  0.78816600  0.49569600  0.08640600  1
  H  206  1  0.85185200  0.48612700  0.05712600  1
  H  208  1  0.58864700  0.47043900  0.02780600  1
  H  234  1  0.12353100  0.47711800  0.55202600  1
  H  235  1  0.18413000  0.46597700  0.57241500  1
  H  236  1  0.13850000  0.40284000  0.48295700  1
  H  237  1  0.19883200  0.39192500  0.50325800  1
  H  238  1  0.28835300  0.40299400  0.50818800  1
  H  239  1  0.35203600  0.42270900  0.49862200  1
  H  240  1  0.34039400  0.48985200  0.57461900  1
  H  241  1  0.27665100  0.47023500  0.58394100  1
  H  242  1  0.30057900  0.43070500  0.59315300  1
  H  243  1  0.29023900  0.43422600  0.63497300  1
  H  244  1  0.14514300  0.42987800  0.62381500  1
  H  245  1  0.15554600  0.42610500  0.58204800  1
  H  246  1  0.17218200  0.38066400  0.54155400  1
  H  247  1  0.31730900  0.39145700  0.54690800  1
  H  248  1  0.32740700  0.34825000  0.53945600  1
  H  249  1  0.18213000  0.33733800  0.53433200  1
  H  252  1  0.40792400  0.48460000  0.54714800  1
  H  253  1  0.08871000  0.43646300  0.48287500  1
  H  255  1  0.18074100  0.42253500  0.65795400  1
  H  257  1  0.29557900  0.30662400  0.53144000  1
  H  283  1  0.12362800  0.42314400  0.93134800  1
  H  284  1  0.18425200  0.40276400  0.89983200  1
  H  285  1  0.13833000  0.49214000  0.92598200  1
  H  286  1  0.19869300  0.47185000  0.89478100  1
  H  287  1  0.28823200  0.46697500  0.90109500  1
  H  288  1  0.35193600  0.47653900  0.93036400  1
  H  289  1  0.34054300  0.40046200  0.92134300  1
  H  290  1  0.27678000  0.39114600  0.89242300  1
  H  291  1  0.30057900  0.38201200  0.84371100  1
  H  292  1  0.29023500  0.34018200  0.80542800  1
  H  293  1  0.14511800  0.35127600  0.81235800  1
  H  294  1  0.15554200  0.39304500  0.85033100  1
  H  295  1  0.17221700  0.43343900  0.84523400  1
  H  296  1  0.31738600  0.42836400  0.85084400  1
  H  297  1  0.32746300  0.43584800  0.81510600  1
  H  298  1  0.18216200  0.44067900  0.80914700  1
  H  301  1  0.40800700  0.42796900  0.94360300  1
  H  302  1  0.08853300  0.49224500  0.95968900  1
  H  304  1  0.18064100  0.31713300  0.77086200  1
  H  306  1  0.29561700  0.44374700  0.78142800  1
  H  312  1  0.91579200  0.50112400  0.52361400  1
  H  314  1  0.05133000  0.46317000  0.46827900  1
  H  315  1  0.98794500  0.47793300  0.45287500  1
  H  317  1  0.94659600  0.49614200  0.55835000  1
  H  318  1  0.00763000  0.49922100  0.56042500  1
  H  319  1  0.98130200  0.46754200  0.54656600  1
  H  327  1  0.91583600  0.45146600  0.98371800  1
  H  330  1  0.94669200  0.41671100  0.94402700  1
  H  331  1  0.00773100  0.41467500  0.94504100  1
  H  332  1  0.98135600  0.42848500  0.92718700  1
  H  340  1  0.41582400  0.46150500  0.46389300  1
  H  342  1  0.55125300  0.49959600  0.51928600  1
  H  343  1  0.48786500  0.48483000  0.53469100  1
  H  345  1  0.44666500  0.46643900  0.42913600  1
  H  346  1  0.50770600  0.46340500  0.42710400  1
  H  347  1  0.48130600  0.49506100  0.44090400  1
  H  355  1  0.55129400  0.45583800  0.98648600  1
  H  356  1  0.48791300  0.44044100  0.95631600  1
  H  361  1  0.75623800  0.48275500  0.26545700  1
  H  363  1  0.76156400  0.45703100  0.21894300  1
  H  364  1  0.78683400  0.47564600  0.20601700  1
  H  365  1  0.72648800  0.46832700  0.20186400  1
  H  371  1  0.25599100  0.47997400  0.72213200  1
  H  373  1  0.21319400  0.40066000  0.72403500  1
  H  374  1  0.21579500  0.40013500  0.68275800  1
  H  376  1  0.26119200  0.50570500  0.76864900  1
  H  377  1  0.28657200  0.48714100  0.78160200  1
  H  378  1  0.22618100  0.49434200  0.78569400  1
  H  383  1  0.21305500  0.29227900  0.57445200  1
  H  384  1  0.28662800  0.26341000  0.48802900  1
  H  385  1  0.22625700  0.26026700  0.48077900  1
  H  389  1  0.21565200  0.29237300  0.72362000  1
  H  416  1  0.12356500  0.04381600  0.49800700  1
  H  417  1  0.18417900  0.07534200  0.50915200  1
  H  418  1  0.13843800  0.04906800  0.57230900  1
  H  419  1  0.19878400  0.08028000  0.58322900  1
  H  420  1  0.28833900  0.07411200  0.57214200  1
  H  421  1  0.35203600  0.04484100  0.55243800  1
  H  422  1  0.34044600  0.05370900  0.48530000  1
  H  423  1  0.27669000  0.08263800  0.50490500  1
  H  424  1  0.30057300  0.13136000  0.54441700  1
  H  425  1  0.29022500  0.16966500  0.54089300  1
  H  426  1  0.14513200  0.16284000  0.54523200  1
  H  427  1  0.15554600  0.12485100  0.54900900  1
  H  428  1  0.17217500  0.12982600  0.59446800  1
  H  429  1  0.31731600  0.12436400  0.58368500  1
  H  430  1  0.32741000  0.16011700  0.62688500  1
  H  431  1  0.18213000  0.16593100  0.63778600  1
  H  434  1  0.40800400  0.03152500  0.49058700  1
  H  435  1  0.08868200  0.01534900  0.53867700  1
  H  437  1  0.18068200  0.20430100  0.55254000  1
  H  439  1  0.29557900  0.19374400  0.66850600  1
  H  443  1  0.91577900  0.99142900  0.47401200  1
  H  445  1  0.94660500  0.03113600  0.47897500  1
  H  446  1  0.00764100  0.03012300  0.47589500  1
  H  447  1  0.98131400  0.04795600  0.50757500  1
  H  452  1  0.55131500  0.98865800  0.47561700  1
  H  453  1  0.48792700  0.01882600  0.49038200  1
  H  458  1  0.25606000  0.21108800  0.49516800  1
  H  460  1  0.21567300  0.25152600  0.57497500  1
  H  462  1  0.26131400  0.23187900  0.46944400  1
  H  468  1  0.25607800  0.25299400  0.76404200  1
  H  469  1  0.21303400  0.25110200  0.68286300  1
  H  471  1  0.26134500  0.20647900  0.74324400  1
  H  472  1  0.28665200  0.19354200  0.71171000  1
  H  473  1  0.22628500  0.18942600  0.71485700  1
  H  475  1  0.79562300  0.50206200  0.76425200  1
  H  501  1  0.62367600  0.76492700  0.79765730  1
  H  502  1  0.68429900  0.73340600  0.78651730  1
  H  503  1  0.63828400  0.75950400  0.72326700  1
  H  504  1  0.69864100  0.72830200  0.71235300  1
  H  505  1  0.78817200  0.73467300  0.72357800  1
  H  506  1  0.85185900  0.76395100  0.74328700  1
  H  507  1  0.84059300  0.75484700  0.81029830  1
  H  508  1  0.77684300  0.72591600  0.79068730  1
  H  509  1  0.80053900  0.67720000  0.75102630  1
  H  510  1  0.79023700  0.63890400  0.75453600  1
  H  511  1  0.64509700  0.64590500  0.75057700  1
  H  512  1  0.65548600  0.68390600  0.74680830  1
  H  513  1  0.67221800  0.67873800  0.70123330  1
  H  514  1  0.81736500  0.68440500  0.71188230  1
  H  515  1  0.82745100  0.64864200  0.66868330  1
  H  516  1  0.68214300  0.64262300  0.65792930  1
  H  519  1  0.90799900  0.77715200  0.80507030  1
  H  520  1  0.58862900  0.79328800  0.75692900  1
  H  522  1  0.68064800  0.60437300  0.74314500  1
  H  524  1  0.79560900  0.61490400  0.62713530  1
  H  528  1  0.05130600  0.82001000  0.82003430  1
  H  529  1  0.98790700  0.78985300  0.80528430  1
  H  534  1  0.41577500  0.81723600  0.82162530  1
  H  536  1  0.44658500  0.77752000  0.81664730  1
  H  537  1  0.50762300  0.77852400  0.81972130  1
  H  538  1  0.48128100  0.76070400  0.78804530  1
  H  545  1  0.75613400  0.59757700  0.80044000  1
  H  547  1  0.71310700  0.51637800  0.72117200  1
  H  548  1  0.71572600  0.55712400  0.72063600  1
  H  550  1  0.76135800  0.57680000  0.82617800  1
  H  551  1  0.78671200  0.54527700  0.80759900  1
  H  552  1  0.72633700  0.54839900  0.81484200  1
  H  560  1  0.75607100  0.55563900  0.53159800  1
  H  562  1  0.71311100  0.55754700  0.61279530  1
  H  563  1  0.71573700  0.51626900  0.57204230  1
  H  565  1  0.76130000  0.60215700  0.55238700  1
  H  566  1  0.78662800  0.61510700  0.58391700  1
  H  567  1  0.72625100  0.61920600  0.58077900  1
  H  591  1  0.63814900  0.40596300  0.81258500  1
  H  592  1  0.69854500  0.41686000  0.79230500  1
  H  593  1  0.78809600  0.40557300  0.78748600  1
  H  594  1  0.85182300  0.38588100  0.79705000  1
  H  595  1  0.80053500  0.37818500  0.70257300  1
  H  596  1  0.79019700  0.37463300  0.66074700  1
  H  597  1  0.64504800  0.37846200  0.67167100  1
  H  598  1  0.65544800  0.38227600  0.71346500  1
  H  599  1  0.67219500  0.42791400  0.75383600  1
  H  600  1  0.81738000  0.41730500  0.74899400  1
  H  601  1  0.82746700  0.46052400  0.75647000  1
  H  602  1  0.68214500  0.47123400  0.76106000  1
  H  605  1  0.58850800  0.37231200  0.81273400  1
  H  607  1  0.68053200  0.38589400  0.63756300  1
  H  629  1  0.62370400  0.38549300  0.36422600  1
  H  630  1  0.68432300  0.40587300  0.39574800  1
  H  631  1  0.84061100  0.40822100  0.37432200  1
  H  632  1  0.77686300  0.41754000  0.40325100  1
  H  633  1  0.80055300  0.42658300  0.45196930  1
  H  634  1  0.79025100  0.46838600  0.49027130  1
  H  635  1  0.64511800  0.45743500  0.48325630  1
  H  636  1  0.65550100  0.41566800  0.44525430  1
  H  637  1  0.67222800  0.37525300  0.45041530  1
  H  638  1  0.81737500  0.38022900  0.44474930  1
  H  639  1  0.82745700  0.37279500  0.48051400  1
  H  640  1  0.68214800  0.36806400  0.48653400  1
  H  642  1  0.90798400  0.38068200  0.35199000  1
  H  644  1  0.68070200  0.49149400  0.52481530  1
  H  646  1  0.79562000  0.36502100  0.51427300  1
  H  647  1  0.05128500  0.35281800  0.30912500  1
  H  648  1  0.98788600  0.36822100  0.33928500  1
  H  650  1  0.41581700  0.35717600  0.31190200  1
  H  652  1  0.44664400  0.39191800  0.35161000  1
  H  653  1  0.50768200  0.39396900  0.35060600  1
  H  654  1  0.48131600  0.38013600  0.36844000  1
  H  659  1  0.71293600  0.40795100  0.57158200  1
  H  660  1  0.71555600  0.40848100  0.61286200  1
  H  667  1  0.62370700  0.33151000  0.74367500  1
  H  668  1  0.68436300  0.34263200  0.72329800  1
  H  669  1  0.84070800  0.31891400  0.72089600  1
  H  670  1  0.77691700  0.33850000  0.71157900  1
  H  671  1  0.90809900  0.32416300  0.74844500  1
  H  677  1  0.63828800  0.31653100  0.36966230  1
  H  678  1  0.69864200  0.33681800  0.40086430  1
  H  679  1  0.78816600  0.34166300  0.39447230  1
  H  680  1  0.85185200  0.33209400  0.36519230  1
  H  682  1  0.58864700  0.31640600  0.33587230  1
  H  708  1  0.12353100  0.32308500  0.86009200  1
  H  709  1  0.18413000  0.31194400  0.88048100  1
  H  710  1  0.13850000  0.24880700  0.79102300  1
  H  711  1  0.19883200  0.23789200  0.81132400  1
  H  712  1  0.28835300  0.24896100  0.81625400  1
  H  713  1  0.35203600  0.26867600  0.80668800  1
  H  714  1  0.34039400  0.33581900  0.88268500  1
  H  715  1  0.27665100  0.31620200  0.89200700  1
  H  716  1  0.30057900  0.27667200  0.90121900  1
  H  717  1  0.29023900  0.28019300  0.94303900  1
  H  718  1  0.14514300  0.27584500  0.93188100  1
  H  719  1  0.15554600  0.27207200  0.89011400  1
  H  720  1  0.17218200  0.22663100  0.84962000  1
  H  721  1  0.31730900  0.23742400  0.85497400  1
  H  722  1  0.32740700  0.19421700  0.84752200  1
  H  723  1  0.18213000  0.18330500  0.84239800  1
  H  726  1  0.40792400  0.33056700  0.85521400  1
  H  727  1  0.08871000  0.28243000  0.79094100  1
  H  729  1  0.18074100  0.26850200  0.96602000  1
  H  731  1  0.29557900  0.15259100  0.83950600  1
  H  757  1  0.12362800  0.26911100  0.23941400  1
  H  758  1  0.18425200  0.24873100  0.20789800  1
  H  759  1  0.13833000  0.33810700  0.23404800  1
  H  760  1  0.19869300  0.31781700  0.20284700  1
  H  761  1  0.28823200  0.31294200  0.20916100  1
  H  762  1  0.35193600  0.32250600  0.23843000  1
  H  763  1  0.34054300  0.24642900  0.22940900  1
  H  764  1  0.27678000  0.23711300  0.20048900  1
  H  765  1  0.30057900  0.22797900  0.15177700  1
  H  766  1  0.29023500  0.18614900  0.11349400  1
  H  767  1  0.14511800  0.19724300  0.12042400  1
  H  768  1  0.15554200  0.23901200  0.15839700  1
  H  769  1  0.17221700  0.27940600  0.15330000  1
  H  770  1  0.31738600  0.27433100  0.15891000  1
  H  771  1  0.32746300  0.28181500  0.12317200  1
  H  772  1  0.18216200  0.28664600  0.11721300  1
  H  775  1  0.40800700  0.27393600  0.25166900  1
  H  776  1  0.08853300  0.33821200  0.26775500  1
  H  778  1  0.18064100  0.16310000  0.07892800  1
  H  780  1  0.29561700  0.28971400  0.08949400  1
  H  786  1  0.91579200  0.34709100  0.83168000  1
  H  788  1  0.05133000  0.30913700  0.77634500  1
  H  789  1  0.98794500  0.32390000  0.76094100  1
  H  791  1  0.94659600  0.34210900  0.86641600  1
  H  792  1  0.00763000  0.34518800  0.86849100  1
  H  793  1  0.98130200  0.31350900  0.85463200  1
  H  801  1  0.91583600  0.29743300  0.29178400  1
  H  804  1  0.94669200  0.26267800  0.25209300  1
  H  805  1  0.00773100  0.26064200  0.25310700  1
  H  806  1  0.98135600  0.27445200  0.23525300  1
  H  814  1  0.41582400  0.30747200  0.77195900  1
  H  816  1  0.55125300  0.34556300  0.82735200  1
  H  817  1  0.48786500  0.33079700  0.84275700  1
  H  819  1  0.44666500  0.31240600  0.73720200  1
  H  820  1  0.50770600  0.30937200  0.73517000  1
  H  821  1  0.48130600  0.34102800  0.74897000  1
  H  829  1  0.55129400  0.30180500  0.29455200  1
  H  830  1  0.48791300  0.28640800  0.26438200  1
  H  835  1  0.75623800  0.32872200  0.57352300  1
  H  837  1  0.76156400  0.30299800  0.52700900  1
  H  838  1  0.78683400  0.32161300  0.51408300  1
  H  839  1  0.72648800  0.31429400  0.50993000  1
  H  845  1  0.25599100  0.32594100  0.03019800  1
  H  847  1  0.21319400  0.24662700  0.03210100  1
  H  848  1  0.21579500  0.24610200  0.99082400  1
  H  850  1  0.26119200  0.35167200  0.07671500  1
  H  851  1  0.28657200  0.33310800  0.08966800  1
  H  852  1  0.22618100  0.34030900  0.09376000  1
  H  857  1  0.21305500  0.13824600  0.88251800  1
  H  858  1  0.28662800  0.10937700  0.79609500  1
  H  859  1  0.22625700  0.10623400  0.78884500  1
  H  863  1  0.21565200  0.13834000  0.03168600  1
  H  890  1  0.12356500  0.88978300  0.80607300  1
  H  891  1  0.18417900  0.92130860  0.81721760  1
  H  892  1  0.13843800  0.89503500  0.88037500  1
  H  893  1  0.19878400  0.92624660  0.89129460  1
  H  894  1  0.28833900  0.92007860  0.88020760  1
  H  895  1  0.35203600  0.89080800  0.86050400  1
  H  896  1  0.34044600  0.89967600  0.79336600  1
  H  897  1  0.27669000  0.92860460  0.81297060  1
  H  898  1  0.30057300  0.97732660  0.85248260  1
  H  899  1  0.29022500  0.01563200  0.84895900  1
  H  900  1  0.14513200  0.00880700  0.85329800  1
  H  901  1  0.15554600  0.97081760  0.85707460  1
  H  902  1  0.17217500  0.97579260  0.90253360  1
  H  903  1  0.31731600  0.97033060  0.89175060  1
  H  904  1  0.32741000  0.00608400  0.93495100  1
  H  905  1  0.18213000  0.01189800  0.94585200  1
  H  908  1  0.40800400  0.87749200  0.79865300  1
  H  909  1  0.08868200  0.86131600  0.84674300  1
  H  911  1  0.18068200  0.05026800  0.86060600  1
  H  913  1  0.29557900  0.03971100  0.97657200  1
  H  917  1  0.91577900  0.83739600  0.78207800  1
  H  919  1  0.94660500  0.87710300  0.78704100  1
  H  920  1  0.00764100  0.87609000  0.78396100  1
  H  921  1  0.98131400  0.89392300  0.81564100  1
  H  926  1  0.55131500  0.83462500  0.78368300  1
  H  927  1  0.48792700  0.86479300  0.79844800  1
  H  932  1  0.25606000  0.05705500  0.80323400  1
  H  934  1  0.21567300  0.09749300  0.88304100  1
  H  936  1  0.26131400  0.07784600  0.77751000  1
  H  942  1  0.25607800  0.09896100  0.07210800  1
  H  943  1  0.21303400  0.09706900  0.99092900  1
  H  945  1  0.26134500  0.05244600  0.05131000  1
  H  946  1  0.28665200  0.03950900  0.01977600  1
  H  947  1  0.22628500  0.03539300  0.02292300  1
  C  2  1  0.75591400  0.79599500  0.35047600  1
  C  3  1  0.79437300  0.80938200  0.36676800  1
  C  4  1  0.78830200  0.83102400  0.39241600  1
  C  5  1  0.74366300  0.84106500  0.40315500  1
  C  6  1  0.70540000  0.82759800  0.38632000  1
  C  7  1  0.71119100  0.80584400  0.36065300  1
  C  8  1  0.73655300  0.86037200  0.43281500  1
  C  9  1  0.72919100  0.84024500  0.44211700  1
  C  10  1  0.68443900  0.82992200  0.44206800  1
  C  11  1  0.67816600  0.80696900  0.44384600  1
  C  12  1  0.71652700  0.79278000  0.44550800  1
  C  13  1  0.76132800  0.80304400  0.44631200  1
  C  14  1  0.76730500  0.82598000  0.44441100  1
  C  15  1  0.77726800  0.87945600  0.44597100  1
  C  16  1  0.69619900  0.87978700  0.43934300  1
  C  17  1  0.67425500  0.89215200  0.46453400  1
  C  18  1  0.63829400  0.91086700  0.47120400  1
  C  19  1  0.62348800  0.91895700  0.45324500  1
  C  20  1  0.64677400  0.90784400  0.42865000  1
  C  21  1  0.68239100  0.88904800  0.42206100  1
  C  22  1  0.79893600  0.89250500  0.43374900  1
  C  23  1  0.83656800  0.91003800  0.44548000  1
  C  24  1  0.85359500  0.91618100  0.47063500  1
  C  25  1  0.83031200  0.90466300  0.48374300  1
  C  26  1  0.79269400  0.88721300  0.47193100  1
  C  43  1  0.58922300  0.93813100  0.45931700  1
  C  44  1  0.76319300  0.77346300  0.32585900  1
  C  47  1  0.70949700  0.76837100  0.44382000  1
  C  49  1  0.89238800  0.93228900  0.48239300  1
  C  51  1  0.94508100  0.96527300  0.48487300  1
  C  52  1  0.02271400  0.97846400  0.50454500  1
  C  53  1  0.98525200  0.96060300  0.49583200  1
  C  57  1  0.44439100  0.97466100  0.50528700  1
  C  58  1  0.48181600  0.95637500  0.49651500  1
  C  59  1  0.52153600  0.96095300  0.48484600  1
  C  61  1  0.47893000  0.93251900  0.49940300  1
  C  66  1  0.73581400  0.73513100  0.45264500  1
  C  67  1  0.74732900  0.73433200  0.47570100  1
  C  68  1  0.74578100  0.71045700  0.47646200  1
  C  69  1  0.73375500  0.68656500  0.45308400  1
  C  70  1  0.72224500  0.68736300  0.43000700  1
  C  72  1  0.72357200  0.71127700  0.42970200  1
  C  75  1  0.75562100  0.71087300  0.50164400  1
  C  81  1  0.73579600  0.68641300  0.24000700  1
  C  82  1  0.74729900  0.71027100  0.24081000  1
  C  83  1  0.74573400  0.73490500  0.26468700  1
  C  84  1  0.73372300  0.73541200  0.28857700  1
  C  85  1  0.72223800  0.71153200  0.28777800  1
  C  87  1  0.72357000  0.68731600  0.26386000  1
  C  90  1  0.75555100  0.75967800  0.26427900  1
  C  96  1  0.75592100  0.62466600  0.45177600  1
  C  97  1  0.79438100  0.60838500  0.44890400  1
  C  98  1  0.78830600  0.58271600  0.44484500  1
  C  99  1  0.74365300  0.57198000  0.44410300  1
  C  100  1  0.70537700  0.58879700  0.44745400  1
  C  101  1  0.71118500  0.61446800  0.45138400  1
  C  102  1  0.73654100  0.54231800  0.43376700  1
  C  103  1  0.72917400  0.53302000  0.40433300  1
  C  104  1  0.68439900  0.53299800  0.39405600  1
  C  105  1  0.67812400  0.53119800  0.36931600  1
  C  106  1  0.71648300  0.52956600  0.35347300  1
  C  107  1  0.76129900  0.52880900  0.36294500  1
  C  108  1  0.76730300  0.53073000  0.38779000  1
  C  109  1  0.77724800  0.52915800  0.43969900  1
  C  110  1  0.69620200  0.53579200  0.44666700  1
  C  111  1  0.67428400  0.51059400  0.43384900  1
  C  112  1  0.62344300  0.52191800  0.47192500  1
  C  113  1  0.64667700  0.54653000  0.48538700  1
  C  114  1  0.68232100  0.55310900  0.47318800  1
  C  115  1  0.79889400  0.54137700  0.46497500  1
  C  116  1  0.83654300  0.52965600  0.47077600  1
  C  129  1  0.58915000  0.51586200  0.48502700  1
  C  130  1  0.76321100  0.64929200  0.45388500  1
  C  132  1  0.70942700  0.53123100  0.33073900  1
  C  134  1  0.75591900  0.52337100  0.17913100  1
  C  135  1  0.79437900  0.52627500  0.16574300  1
  C  136  1  0.78831000  0.53028100  0.14409900  1
  C  137  1  0.74367100  0.53098500  0.13406200  1
  C  138  1  0.70540800  0.52763600  0.14754300  1
  C  139  1  0.71119600  0.52370200  0.16928200  1
  C  140  1  0.73656500  0.54134000  0.11475600  1
  C  141  1  0.72920600  0.57076900  0.13488300  1
  C  142  1  0.68445500  0.58104600  0.14520500  1
  C  143  1  0.67818400  0.60577500  0.16815900  1
  C  144  1  0.71654100  0.62163200  0.18234400  1
  C  145  1  0.76134300  0.61216000  0.17209200  1
  C  146  1  0.76732000  0.58732400  0.14915300  1
  C  147  1  0.77728000  0.53541200  0.09567200  1
  C  148  1  0.69621000  0.52845200  0.09534000  1
  C  149  1  0.67427000  0.54128000  0.08297500  1
  C  150  1  0.63829800  0.52923700  0.06426600  1
  C  151  1  0.79895400  0.51014300  0.08262400  1
  C  152  1  0.85360100  0.52334800  0.05894000  1
  C  153  1  0.83032600  0.54797900  0.07046700  1
  C  154  1  0.79271200  0.55361800  0.08792000  1
  C  167  1  0.76319900  0.52128700  0.20166300  1
  C  169  1  0.70952000  0.64433200  0.20677200  1
  C  171  1  0.89238900  0.51900000  0.04283000  1
  C  175  1  0.48184400  0.50904900  0.01874100  1
  C  177  1  0.47897600  0.53580100  0.04258600  1
  C  181  1  0.73578100  0.52246200  0.28870000  1
  C  182  1  0.73371500  0.52202700  0.23969900  1
  C  183  1  0.72211800  0.54508900  0.26356900  1
  C  184  1  0.72345900  0.54539300  0.28778800  1
  C  189  1  0.85362800  0.50452300  0.45175100  1
  C  190  1  0.63831200  0.50393400  0.44589600  1
  C  191  1  0.83037900  0.49141900  0.42711200  1
  C  192  1  0.79274100  0.50322000  0.42147700  1
  C  198  1  0.89245200  0.49278200  0.45609700  1
  C  199  1  0.62349500  0.50318700  0.05617200  1
  C  200  1  0.64677400  0.48970800  0.06729200  1
  C  201  1  0.68239400  0.50191100  0.08608300  1
  C  202  1  0.83656300  0.50433300  0.06507500  1
  C  207  1  0.58923300  0.49008300  0.03699700  1
  C  209  1  0.25588700  0.33803900  0.53581200  1
  C  210  1  0.29434000  0.35437700  0.53883400  1
  C  211  1  0.28826300  0.38003000  0.54285200  1
  C  212  1  0.24361500  0.39072000  0.54345300  1
  C  213  1  0.20536400  0.37385200  0.53998300  1
  C  214  1  0.21117000  0.34817600  0.53604300  1
  C  215  1  0.23654900  0.42038200  0.55379100  1
  C  216  1  0.22923600  0.42968000  0.58322500  1
  C  217  1  0.18446400  0.42956700  0.59345000  1
  C  218  1  0.17820000  0.43130100  0.61816200  1
  C  219  1  0.21654100  0.43307900  0.63407400  1
  C  220  1  0.26133800  0.43395000  0.62464400  1
  C  221  1  0.26733900  0.43208700  0.59982600  1
  C  222  1  0.27725900  0.43352500  0.54784300  1
  C  223  1  0.19620000  0.42691500  0.54090600  1
  C  224  1  0.17416500  0.45207900  0.55376100  1
  C  225  1  0.13822600  0.45875200  0.54170700  1
  C  226  1  0.12352000  0.44082600  0.51562900  1
  C  227  1  0.14689600  0.41626100  0.50212600  1
  C  228  1  0.18250200  0.40966800  0.51433500  1
  C  229  1  0.29904800  0.42125700  0.52260600  1
  C  230  1  0.33667500  0.43299100  0.51680500  1
  C  231  1  0.35358200  0.45819100  0.53578200  1
  C  232  1  0.33019500  0.47133600  0.56037500  1
  C  233  1  0.29258300  0.45952000  0.56601300  1
  C  250  1  0.08927600  0.44690300  0.50251900  1
  C  251  1  0.26316100  0.31340800  0.53369500  1
  C  254  1  0.20952700  0.43134800  0.65677300  1
  C  256  1  0.39236100  0.46995900  0.53143500  1
  C  258  1  0.25592800  0.43934700  0.80845500  1
  C  259  1  0.29438500  0.43637300  0.82180100  1
  C  260  1  0.28832200  0.43236600  0.84344300  1
  C  261  1  0.24367400  0.43167600  0.85347000  1
  C  262  1  0.20539900  0.43509500  0.84005000  1
  C  263  1  0.21120100  0.43902600  0.81830900  1
  C  264  1  0.23655600  0.42134200  0.87279600  1
  C  265  1  0.22924700  0.39190600  0.85266400  1
  C  266  1  0.18446400  0.38165600  0.84237300  1
  C  267  1  0.17818200  0.35692500  0.81941800  1
  C  268  1  0.21652700  0.34103900  0.80524800  1
  C  269  1  0.26133500  0.35048600  0.81550300  1
  C  270  1  0.26734600  0.37533000  0.83842400  1
  C  271  1  0.27726300  0.42728600  0.89189200  1
  C  272  1  0.19620700  0.43424200  0.89221600  1
  C  273  1  0.17423400  0.42140200  0.90455700  1
  C  274  1  0.13825400  0.43344200  0.92326100  1
  C  275  1  0.12349900  0.45950900  0.93138400  1
  C  276  1  0.14679900  0.47299200  0.92027600  1
  C  277  1  0.18241800  0.46078700  0.90148200  1
  C  278  1  0.29898600  0.45254200  0.90490500  1
  C  279  1  0.33660900  0.45834500  0.92244300  1
  C  280  1  0.35360200  0.43934200  0.92860500  1
  C  281  1  0.33028200  0.41472700  0.91711500  1
  C  282  1  0.29266300  0.40909100  0.89966700  1
  C  299  1  0.08921000  0.47260300  0.95054300  1
  C  300  1  0.26320600  0.44145900  0.78593900  1
  C  303  1  0.20947200  0.31833000  0.78082900  1
  C  305  1  0.39241000  0.44368600  0.94470400  1
  C  307  1  0.94512000  0.49028600  0.48660600  1
  C  308  1  0.94440900  0.49285100  0.51195000  1
  C  309  1  0.98183500  0.48408100  0.52146700  1
  C  310  1  0.02156100  0.47241900  0.50522300  1
  C  311  1  0.02273800  0.47059400  0.48012000  1
  C  313  1  0.98527800  0.47931000  0.47097200  1
  C  316  1  0.97894600  0.48696800  0.54820900  1
  C  322  1  0.94509800  0.48850200  0.00985300  1
  C  323  1  0.94443400  0.46314000  0.98710200  1
  C  324  1  0.98186700  0.45362500  0.96881800  1
  C  325  1  0.02155800  0.46988800  0.97338300  1
  C  326  1  0.02271100  0.49499800  0.99664900  1
  C  328  1  0.98525100  0.50414100  0.01451400  1
  C  329  1  0.97901900  0.42686500  0.94498300  1
  C  335  1  0.44508200  0.47242700  0.50093600  1
  C  336  1  0.44441500  0.46980700  0.47556800  1
  C  337  1  0.48183700  0.47858000  0.46605300  1
  C  338  1  0.52152200  0.49029200  0.48231800  1
  C  339  1  0.52267500  0.49214800  0.50743500  1
  C  341  1  0.48522200  0.48342400  0.51658000  1
  C  344  1  0.47898600  0.47564700  0.43929000  1
  C  350  1  0.44511000  0.47418600  0.97768600  1
  C  351  1  0.44441900  0.49953700  0.00045400  1
  C  352  1  0.52154700  0.49279200  0.01417100  1
  C  353  1  0.52271300  0.46768500  0.99089800  1
  C  354  1  0.48525700  0.45854500  0.97303100  1
  C  359  1  0.74737300  0.49942000  0.26485000  1
  C  360  1  0.74582500  0.49866200  0.24021700  1
  C  362  1  0.75575700  0.47349300  0.21545100  1
  C  366  1  0.23576400  0.44022900  0.69887100  1
  C  367  1  0.24725100  0.46328800  0.72273000  1
  C  368  1  0.24570200  0.46404300  0.74736200  1
  C  369  1  0.23373700  0.44065600  0.74787000  1
  C  370  1  0.22228500  0.41757000  0.72398900  1
  C  372  1  0.22360400  0.41726900  0.69977200  1
  C  375  1  0.25548400  0.48923300  0.77213700  1
  C  381  1  0.23367400  0.27613100  0.53447000  1
  C  382  1  0.22218700  0.27532900  0.55754900  1
  C  387  1  0.23573700  0.27625700  0.74758000  1
  C  388  1  0.22350000  0.27535700  0.72373000  1
  C  391  1  0.25589000  0.16670000  0.63708800  1
  C  392  1  0.29434000  0.15337600  0.62075700  1
  C  393  1  0.28826300  0.13174100  0.59510400  1
  C  394  1  0.24361500  0.12165600  0.58441000  1
  C  395  1  0.20536400  0.13506700  0.60127400  1
  C  396  1  0.21117000  0.15680800  0.62694300  1
  C  397  1  0.23654900  0.10232900  0.55474900  1
  C  398  1  0.22923600  0.12246200  0.54544600  1
  C  399  1  0.18446000  0.13279000  0.54554500  1
  C  400  1  0.17818200  0.15574300  0.54376500  1
  C  401  1  0.21653100  0.16989500  0.54202200  1
  C  402  1  0.26133100  0.15960900  0.54116700  1
  C  403  1  0.26733500  0.13667300  0.54306500  1
  C  404  1  0.27726300  0.08323800  0.54160900  1
  C  405  1  0.19620400  0.08290900  0.54822200  1
  C  406  1  0.17418600  0.07059700  0.52305300  1
  C  407  1  0.13823300  0.05187800  0.51638100  1
  C  408  1  0.12351000  0.04373200  0.53431000  1
  C  409  1  0.14686200  0.05480300  0.55888200  1
  C  410  1  0.18246700  0.07360600  0.56548000  1
  C  411  1  0.29903100  0.07026200  0.55387500  1
  C  412  1  0.33667500  0.05273900  0.54215300  1
  C  413  1  0.35359600  0.04651900  0.51695700  1
  C  414  1  0.33022700  0.05797200  0.50380900  1
  C  415  1  0.29260700  0.07542100  0.51562000  1
  C  432  1  0.08926500  0.02454500  0.52822900  1
  C  433  1  0.26316500  0.18922100  0.66171600  1
  C  436  1  0.20949200  0.19432100  0.54374700  1
  C  438  1  0.39240600  0.03042700  0.50520500  1
  C  440  1  0.94439300  0.98803900  0.48228800  1
  C  441  1  0.98182700  0.00632100  0.49105100  1
  C  442  1  0.02154700  0.00173700  0.50271400  1
  C  444  1  0.97895200  0.03016900  0.48815000  1
  C  449  1  0.44508500  0.99743000  0.50270700  1
  C  450  1  0.52271700  0.98423600  0.48303100  1
  C  451  1  0.48525400  0.00210100  0.49175000  1
  C  455  1  0.23574000  0.22755800  0.53489600  1
  C  456  1  0.24728600  0.22836700  0.51184800  1
  C  457  1  0.24572000  0.25224400  0.51109300  1
  C  459  1  0.22352100  0.25141000  0.55784500  1
  C  461  1  0.25555300  0.25183500  0.48591200  1
  C  464  1  0.24729300  0.25239900  0.74676500  1
  C  465  1  0.24572700  0.22776800  0.72288700  1
  C  466  1  0.23367100  0.22726300  0.69900300  1
  C  467  1  0.22217000  0.25114300  0.69981000  1
  C  470  1  0.25557800  0.20299400  0.72328900  1
  C  476  1  0.75591400  0.64196200  0.65854230  1
  C  477  1  0.79437300  0.65534900  0.67483430  1
  C  478  1  0.78830200  0.67699100  0.70048230  1
  C  479  1  0.74366300  0.68703200  0.71122130  1
  C  480  1  0.70540000  0.67356500  0.69438630  1
  C  481  1  0.71119100  0.65181100  0.66871930  1
  C  482  1  0.73655300  0.70633900  0.74088130  1
  C  483  1  0.72919100  0.68621200  0.75018330  1
  C  484  1  0.68443900  0.67588900  0.75013430  1
  C  485  1  0.67816600  0.65293600  0.75191230  1
  C  486  1  0.71652700  0.63874700  0.75357400  1
  C  487  1  0.76132800  0.64901100  0.75437800  1
  C  488  1  0.76730500  0.67194700  0.75247730  1
  C  489  1  0.77726800  0.72542300  0.75403730  1
  C  490  1  0.69619900  0.72575400  0.74740930  1
  C  491  1  0.67425500  0.73811900  0.77260030  1
  C  492  1  0.63829400  0.75683400  0.77927030  1
  C  493  1  0.62348800  0.76492400  0.76131100  1
  C  494  1  0.64677400  0.75381100  0.73671600  1
  C  495  1  0.68239100  0.73501500  0.73012700  1
  C  496  1  0.79893600  0.73847200  0.74181530  1
  C  497  1  0.83656800  0.75600500  0.75354600  1
  C  498  1  0.85359500  0.76214800  0.77870130  1
  C  499  1  0.83031200  0.75063000  0.79180930  1
  C  500  1  0.79269400  0.73318000  0.77999730  1
  C  517  1  0.58922300  0.78409800  0.76738300  1
  C  518  1  0.76319300  0.61943000  0.63392530  1
  C  521  1  0.70949700  0.61433800  0.75188600  1
  C  523  1  0.89238800  0.77825600  0.79045930  1
  C  525  1  0.94508100  0.81124000  0.79293900  1
  C  526  1  0.02271400  0.82443100  0.81261100  1
  C  527  1  0.98525200  0.80657000  0.80389800  1
  C  531  1  0.44439100  0.82062800  0.81335300  1
  C  532  1  0.48181600  0.80234200  0.80458130  1
  C  533  1  0.52153600  0.80692000  0.79291200  1
  C  535  1  0.47893000  0.77848600  0.80746930  1
  C  540  1  0.73581400  0.58109800  0.76071100  1
  C  541  1  0.74732900  0.58029900  0.78376700  1
  C  542  1  0.74578100  0.55642400  0.78452800  1
  C  543  1  0.73375500  0.53253200  0.76115000  1
  C  544  1  0.72224500  0.53333000  0.73807300  1
  C  546  1  0.72357200  0.55724400  0.73776800  1
  C  549  1  0.75562100  0.55684000  0.80971000  1
  C  555  1  0.73579600  0.53238000  0.54807330  1
  C  556  1  0.74729900  0.55623800  0.54887600  1
  C  557  1  0.74573400  0.58087200  0.57275300  1
  C  558  1  0.73372300  0.58137900  0.59664330  1
  C  559  1  0.72223800  0.55749900  0.59584430  1
  C  561  1  0.72357000  0.53328300  0.57192630  1
  C  564  1  0.75555100  0.60564500  0.57234500  1
  C  570  1  0.75592100  0.47063300  0.75984200  1
  C  571  1  0.79438100  0.45435200  0.75697000  1
  C  572  1  0.78830600  0.42868300  0.75291100  1
  C  573  1  0.74365300  0.41794700  0.75216900  1
  C  574  1  0.70537700  0.43476400  0.75552000  1
  C  575  1  0.71118500  0.46043500  0.75945000  1
  C  576  1  0.73654100  0.38828500  0.74183300  1
  C  577  1  0.72917400  0.37898700  0.71239900  1
  C  578  1  0.68439900  0.37896500  0.70212200  1
  C  579  1  0.67812400  0.37716500  0.67738200  1
  C  580  1  0.71648300  0.37553300  0.66153900  1
  C  581  1  0.76129900  0.37477600  0.67101100  1
  C  582  1  0.76730300  0.37669700  0.69585600  1
  C  583  1  0.77724800  0.37512500  0.74776500  1
  C  584  1  0.69620200  0.38175900  0.75473300  1
  C  585  1  0.67428400  0.35656100  0.74191500  1
  C  586  1  0.62344300  0.36788500  0.77999100  1
  C  587  1  0.64667700  0.39249700  0.79345300  1
  C  588  1  0.68232100  0.39907600  0.78125400  1
  C  589  1  0.79889400  0.38734400  0.77304100  1
  C  590  1  0.83654300  0.37562300  0.77884200  1
  C  603  1  0.58915000  0.36182900  0.79309300  1
  C  604  1  0.76321100  0.49525900  0.76195100  1
  C  606  1  0.70942700  0.37719800  0.63880500  1
  C  608  1  0.75591900  0.36933800  0.48719700  1
  C  609  1  0.79437900  0.37224200  0.47380900  1
  C  610  1  0.78831000  0.37624800  0.45216530  1
  C  611  1  0.74367100  0.37695200  0.44212830  1
  C  612  1  0.70540800  0.37360300  0.45560930  1
  C  613  1  0.71119600  0.36966900  0.47734800  1
  C  614  1  0.73656500  0.38730700  0.42282230  1
  C  615  1  0.72920600  0.41673600  0.44294930  1
  C  616  1  0.68445500  0.42701300  0.45327130  1
  C  617  1  0.67818400  0.45174200  0.47622530  1
  C  618  1  0.71654100  0.46759900  0.49041030  1
  C  619  1  0.76134300  0.45812700  0.48015830  1
  C  620  1  0.76732000  0.43329100  0.45721930  1
  C  621  1  0.77728000  0.38137900  0.40373830  1
  C  622  1  0.69621000  0.37441900  0.40340630  1
  C  623  1  0.67427000  0.38724700  0.39104130  1
  C  624  1  0.63829800  0.37520400  0.37233200  1
  C  625  1  0.79895400  0.35611000  0.39069030  1
  C  626  1  0.85360100  0.36931500  0.36700600  1
  C  627  1  0.83032600  0.39394600  0.37853300  1
  C  628  1  0.79271200  0.39958500  0.39598600  1
  C  641  1  0.76319900  0.36725400  0.50972900  1
  C  643  1  0.70952000  0.49029900  0.51483830  1
  C  645  1  0.89238900  0.36496700  0.35089600  1
  C  649  1  0.48184400  0.35501600  0.32680700  1
  C  651  1  0.47897600  0.38176800  0.35065200  1
  C  655  1  0.73578100  0.36842900  0.59676600  1
  C  656  1  0.73371500  0.36799400  0.54776500  1
  C  657  1  0.72211800  0.39105600  0.57163500  1
  C  658  1  0.72345900  0.39136000  0.59585400  1
  C  663  1  0.85362800  0.35049000  0.75981700  1
  C  664  1  0.63831200  0.34990100  0.75396200  1
  C  665  1  0.83037900  0.33738600  0.73517800  1
  C  666  1  0.79274100  0.34918700  0.72954300  1
  C  672  1  0.89245200  0.33874900  0.76416300  1
  C  673  1  0.62349500  0.34915400  0.36423830  1
  C  674  1  0.64677400  0.33567500  0.37535830  1
  C  675  1  0.68239400  0.34787800  0.39414930  1
  C  676  1  0.83656300  0.35030000  0.37314130  1
  C  681  1  0.58923300  0.33605000  0.34506330  1
  C  683  1  0.25588700  0.18400600  0.84387800  1
  C  684  1  0.29434000  0.20034400  0.84690000  1
  C  685  1  0.28826300  0.22599700  0.85091800  1
  C  686  1  0.24361500  0.23668700  0.85151900  1
  C  687  1  0.20536400  0.21981900  0.84804900  1
  C  688  1  0.21117000  0.19414300  0.84410900  1
  C  689  1  0.23654900  0.26634900  0.86185700  1
  C  690  1  0.22923600  0.27564700  0.89129100  1
  C  691  1  0.18446400  0.27553400  0.90151600  1
  C  692  1  0.17820000  0.27726800  0.92622800  1
  C  693  1  0.21654100  0.27904600  0.94214000  1
  C  694  1  0.26133800  0.27991700  0.93271000  1
  C  695  1  0.26733900  0.27805400  0.90789200  1
  C  696  1  0.27725900  0.27949200  0.85590900  1
  C  697  1  0.19620000  0.27288200  0.84897200  1
  C  698  1  0.17416500  0.29804600  0.86182700  1
  C  699  1  0.13822600  0.30471900  0.84977300  1
  C  700  1  0.12352000  0.28679300  0.82369500  1
  C  701  1  0.14689600  0.26222800  0.81019200  1
  C  702  1  0.18250200  0.25563500  0.82240100  1
  C  703  1  0.29904800  0.26722400  0.83067200  1
  C  704  1  0.33667500  0.27895800  0.82487100  1
  C  705  1  0.35358200  0.30415800  0.84384800  1
  C  706  1  0.33019500  0.31730300  0.86844100  1
  C  707  1  0.29258300  0.30548700  0.87407900  1
  C  724  1  0.08927600  0.29287000  0.81058500  1
  C  725  1  0.26316100  0.15937500  0.84176100  1
  C  728  1  0.20952700  0.27731500  0.96483900  1
  C  730  1  0.39236100  0.31592600  0.83950100  1
  C  732  1  0.25592800  0.28531400  0.11652100  1
  C  733  1  0.29438500  0.28234000  0.12986700  1
  C  734  1  0.28832200  0.27833300  0.15150900  1
  C  735  1  0.24367400  0.27764300  0.16153600  1
  C  736  1  0.20539900  0.28106200  0.14811600  1
  C  737  1  0.21120100  0.28499300  0.12637500  1
  C  738  1  0.23655600  0.26730900  0.18086200  1
  C  739  1  0.22924700  0.23787300  0.16073000  1
  C  740  1  0.18446400  0.22762300  0.15043900  1
  C  741  1  0.17818200  0.20289200  0.12748400  1
  C  742  1  0.21652700  0.18700600  0.11331400  1
  C  743  1  0.26133500  0.19645300  0.12356900  1
  C  744  1  0.26734600  0.22129700  0.14649000  1
  C  745  1  0.27726300  0.27325300  0.19995800  1
  C  746  1  0.19620700  0.28020900  0.20028200  1
  C  747  1  0.17423400  0.26736900  0.21262300  1
  C  748  1  0.13825400  0.27940900  0.23132700  1
  C  749  1  0.12349900  0.30547600  0.23945000  1
  C  750  1  0.14679900  0.31895900  0.22834200  1
  C  751  1  0.18241800  0.30675400  0.20954800  1
  C  752  1  0.29898600  0.29850900  0.21297100  1
  C  753  1  0.33660900  0.30431200  0.23050900  1
  C  754  1  0.35360200  0.28530900  0.23667100  1
  C  755  1  0.33028200  0.26069400  0.22518100  1
  C  756  1  0.29266300  0.25505800  0.20773300  1
  C  773  1  0.08921000  0.31857000  0.25860900  1
  C  774  1  0.26320600  0.28742600  0.09400500  1
  C  777  1  0.20947200  0.16429700  0.08889500  1
  C  779  1  0.39241000  0.28965300  0.25277000  1
  C  781  1  0.94512000  0.33625300  0.79467200  1
  C  782  1  0.94440900  0.33881800  0.82001600  1
  C  783  1  0.98183500  0.33004800  0.82953300  1
  C  784  1  0.02156100  0.31838600  0.81328900  1
  C  785  1  0.02273800  0.31656100  0.78818600  1
  C  787  1  0.98527800  0.32527700  0.77903800  1
  C  790  1  0.97894600  0.33293500  0.85627500  1
  C  796  1  0.94509800  0.33446900  0.31791900  1
  C  797  1  0.94443400  0.30910700  0.29516800  1
  C  798  1  0.98186700  0.29959200  0.27688400  1
  C  799  1  0.02155800  0.31585500  0.28144900  1
  C  800  1  0.02271100  0.34096500  0.30471500  1
  C  802  1  0.98525100  0.35010800  0.32258000  1
  C  803  1  0.97901900  0.27283200  0.25304900  1
  C  809  1  0.44508200  0.31839400  0.80900200  1
  C  810  1  0.44441500  0.31577400  0.78363400  1
  C  811  1  0.48183700  0.32454700  0.77411900  1
  C  812  1  0.52152200  0.33625900  0.79038400  1
  C  813  1  0.52267500  0.33811500  0.81550100  1
  C  815  1  0.48522200  0.32939100  0.82464600  1
  C  818  1  0.47898600  0.32161400  0.74735600  1
  C  824  1  0.44511000  0.32015300  0.28575200  1
  C  825  1  0.44441900  0.34550400  0.30852000  1
  C  826  1  0.52154700  0.33875900  0.32223700  1
  C  827  1  0.52271300  0.31365200  0.29896400  1
  C  828  1  0.48525700  0.30451200  0.28109700  1
  C  833  1  0.74737300  0.34538700  0.57291600  1
  C  834  1  0.74582500  0.34462900  0.54828300  1
  C  836  1  0.75575700  0.31946000  0.52351700  1
  C  840  1  0.23576400  0.28619600  0.00693700  1
  C  841  1  0.24725100  0.30925500  0.03079600  1
  C  842  1  0.24570200  0.31001000  0.05542800  1
  C  843  1  0.23373700  0.28662300  0.05593600  1
  C  844  1  0.22228500  0.26353700  0.03205500  1
  C  846  1  0.22360400  0.26323600  0.00783800  1
  C  849  1  0.25548400  0.33520000  0.08020300  1
  C  855  1  0.23367400  0.12209800  0.84253600  1
  C  856  1  0.22218700  0.12129600  0.86561500  1
  C  861  1  0.23573700  0.12222400  0.05564600  1
  C  862  1  0.22350000  0.12132400  0.03179600  1
  C  865  1  0.25589000  0.01266700  0.94515400  1
  C  866  1  0.29434000  0.99934264  0.92882264  1
  C  867  1  0.28826300  0.97770760  0.90316960  1
  C  868  1  0.24361500  0.96762260  0.89247560  1
  C  869  1  0.20536400  0.98103360  0.90933960  1
  C  870  1  0.21117000  0.00277500  0.93500900  1
  C  871  1  0.23654900  0.94829560  0.86281460  1
  C  872  1  0.22923600  0.96842860  0.85351160  1
  C  873  1  0.18446000  0.97875660  0.85361060  1
  C  874  1  0.17818200  0.00171000  0.85183100  1
  C  875  1  0.21653100  0.01586200  0.85008800  1
  C  876  1  0.26133100  0.00557600  0.84923300  1
  C  877  1  0.26733500  0.98263960  0.85113060  1
  C  878  1  0.27726300  0.92920460  0.84967460  1
  C  879  1  0.19620400  0.92887560  0.85628760  1
  C  880  1  0.17418600  0.91656360  0.83111860  1
  C  881  1  0.13823300  0.89784500  0.82444700  1
  C  882  1  0.12351000  0.88969900  0.84237600  1
  C  883  1  0.14686200  0.90076960  0.86694760  1
  C  884  1  0.18246700  0.91957260  0.87354560  1
  C  885  1  0.29903100  0.91622860  0.86194060  1
  C  886  1  0.33667500  0.89870600  0.85021900  1
  C  887  1  0.35359600  0.89248600  0.82502300  1
  C  888  1  0.33022700  0.90393860  0.81187460  1
  C  889  1  0.29260700  0.92138760  0.82368560  1
  C  906  1  0.08926500  0.87051200  0.83629500  1
  C  907  1  0.26316500  0.03518800  0.96978200  1
  C  910  1  0.20949200  0.04028800  0.85181300  1
  C  912  1  0.39240600  0.87639400  0.81327100  1
  C  914  1  0.94439300  0.83400600  0.79035400  1
  C  915  1  0.98182700  0.85228800  0.79911700  1
  C  916  1  0.02154700  0.84770400  0.81078000  1
  C  918  1  0.97895200  0.87613600  0.79621600  1
  C  923  1  0.44508500  0.84339700  0.81077300  1
  C  924  1  0.52271700  0.83020300  0.79109700  1
  C  925  1  0.48525400  0.84806800  0.79981600  1
  C  929  1  0.23574000  0.07352500  0.84296200  1
  C  930  1  0.24728600  0.07433400  0.81991400  1
  C  931  1  0.24572000  0.09821100  0.81915900  1
  C  933  1  0.22352100  0.09737700  0.86591100  1
  C  935  1  0.25555300  0.09780200  0.79397800  1
  C  938  1  0.24729300  0.09836600  0.05483100  1
  C  939  1  0.24572700  0.07373500  0.03095300  1
  C  940  1  0.23367100  0.07323000  0.00706900  1
  C  941  1  0.22217000  0.09711000  0.00787600  1
  C  944  1  0.25557800  0.04896100  0.03135500  1
  N  56  1  0.90862900  0.94877500  0.47581200  1
  N  65  1  0.55716600  0.94374300  0.47675800  1
  N  79  1  0.73813700  0.75824200  0.45323800  1
  N  80  1  0.73044800  0.66322700  0.45193300  1
  N  94  1  0.73811200  0.66390000  0.21688900  1
  N  95  1  0.73041100  0.75760000  0.31191300  1
  N  187  1  0.73811600  0.52187000  0.31121800  1
  N  188  1  0.73040900  0.52317300  0.21750900  1
  N  320  1  0.90865700  0.49933600  0.47916300  1
  N  321  1  0.05718800  0.46432500  0.51434400  1
  N  333  1  0.90864700  0.49593600  0.02635200  1
  N  334  1  0.05720200  0.46076700  0.95618100  1
  N  348  1  0.40863900  0.46335600  0.50837100  1
  N  349  1  0.55715200  0.49838000  0.47319500  1
  N  357  1  0.40865700  0.46675000  0.96118900  1
  N  358  1  0.55717700  0.50191200  0.03138400  1
  N  379  1  0.23808400  0.44083400  0.67635700  1
  N  380  1  0.23043400  0.43950500  0.77005600  1
  N  386  1  0.23037900  0.29946800  0.53562000  1
  N  390  1  0.23807400  0.29876800  0.77069800  1
  N  448  1  0.05718100  0.01894900  0.51080500  1
  N  454  1  0.40863900  0.01393300  0.51177700  1
  N  463  1  0.23807000  0.20444000  0.53429000  1
  N  474  1  0.23037900  0.20507900  0.67566100  1
  N  530  1  0.90862900  0.79474200  0.78387800  1
  N  539  1  0.55716600  0.78971000  0.78482400  1
  N  553  1  0.73813700  0.60420900  0.76130400  1
  N  554  1  0.73044800  0.50919400  0.75999900  1
  N  568  1  0.73811200  0.50986700  0.52495530  1
  N  569  1  0.73041100  0.60356700  0.61997930  1
  N  661  1  0.73811600  0.36783700  0.61928400  1
  N  662  1  0.73040900  0.36914000  0.52557500  1
  N  794  1  0.90865700  0.34530300  0.78722900  1
  N  795  1  0.05718800  0.31029200  0.82241000  1
  N  807  1  0.90864700  0.34190300  0.33441800  1
  N  808  1  0.05720200  0.30673400  0.26424700  1
  N  822  1  0.40863900  0.30932300  0.81643700  1
  N  823  1  0.55715200  0.34434700  0.78126100  1
  N  831  1  0.40865700  0.31271700  0.26925500  1
  N  832  1  0.55717700  0.34787900  0.33945000  1
  N  853  1  0.23808400  0.28680100  0.98442300  1
  N  854  1  0.23043400  0.28547200  0.07812200  1
  N  860  1  0.23037900  0.14543500  0.84368600  1
  N  864  1  0.23807400  0.14473500  0.07876400  1
  N  922  1  0.05718100  0.86491600  0.81887100  1
  N  928  1  0.40863900  0.85990000  0.81984300  1
  N  937  1  0.23807000  0.05040700  0.84235600  1
  N  948  1  0.23037900  0.05104600  0.98372700  1
