# generated using pymatgen
data_H14C18N7
_symmetry_space_group_name_H-M   'P 1'
_cell_length_a   38.48660000
_cell_length_b   76.75710000
_cell_length_c   76.75710000
_cell_angle_alpha   120.00000000
_cell_angle_beta   90.00000000
_cell_angle_gamma   90.00000000
_symmetry_Int_Tables_number   1
_chemical_formula_structural   H14C18N7
_chemical_formula_sum   'H672 C864 N336'
_cell_volume   196370.97389067
_cell_formula_units_Z   48
loop_
 _symmetry_equiv_pos_site_id
 _symmetry_equiv_pos_as_xyz
  1  'x, y, z'
loop_
 _atom_site_type_symbol
 _atom_site_label
 _atom_site_symmetry_multiplicity
 _atom_site_fract_x
 _atom_site_fract_y
 _atom_site_fract_z
 _atom_site_occupancy
  H  8  1  0.63159100  0.83216900  0.38304200  1
  H  17  1  0.53107300  0.85488700  0.40966100  1
  H  18  1  0.46916900  0.80111200  0.34128500  1
  H  19  1  0.44864000  0.81443000  0.36273100  1
  H  20  1  0.67071700  0.90730400  0.43868500  1
  H  21  1  0.69837300  0.88863100  0.42766200  1
  H  22  1  0.56245800  0.88119400  0.41001300  1
  H  23  1  0.58616000  0.82156000  0.35540800  1
  H  34  1  0.01753600  0.83085100  0.44815200  1
  H  43  1  0.11948100  0.85667600  0.45175800  1
  H  44  1  0.17378600  0.79053000  0.44800600  1
  H  45  1  0.19586900  0.80633200  0.44371300  1
  H  46  1  0.97657800  0.90741400  0.47541700  1
  H  47  1  0.94971400  0.88818700  0.46510500  1
  H  48  1  0.08460400  0.88058400  0.47759600  1
  H  49  1  0.06015600  0.81815100  0.46434200  1
  H  60  1  0.53844200  0.93814200  0.45911000  1
  H  61  1  0.64059500  0.95228800  0.45107900  1
  H  62  1  0.63856500  0.98242600  0.51075300  1
  H  64  1  0.50667000  0.96230000  0.48774900  1
  H  65  1  0.52325800  0.98423800  0.50462400  1
  H  67  1  0.61699900  0.91765300  0.43070200  1
  H  74  1  0.01824300  0.94535400  0.50295500  1
  H  75  1  0.10628400  0.93823400  0.46751700  1
  H  77  1  0.99117500  0.97743400  0.52026300  1
  H  79  1  0.08518100  0.90980400  0.47028800  1
  H  86  1  0.90992200  0.82175000  0.43435600  1
  H  93  1  0.73261100  0.86397200  0.43234500  1
  H  94  1  0.75533500  0.81097600  0.37806600  1
  H  95  1  0.90979100  0.86785300  0.41976900  1
  H  97  1  0.81883200  0.87199500  0.45148800  1
  H  98  1  0.77855900  0.88081700  0.45556300  1
  H  100  1  0.85581300  0.80505000  0.43214900  1
  H  101  1  0.81906000  0.81111000  0.42517800  1
  H  104  1  0.96540100  0.85382200  0.42480500  1
  H  105  1  0.69528400  0.82462100  0.38508600  1
  H  112  1  0.23966800  0.83161100  0.42835200  1
  H  119  1  0.43450200  0.86226600  0.43382400  1
  H  120  1  0.40170900  0.80560200  0.38715300  1
  H  121  1  0.26597600  0.88053000  0.42034900  1
  H  123  1  0.34936900  0.88042000  0.45226700  1
  H  124  1  0.39143300  0.88568300  0.45508800  1
  H  126  1  0.28544800  0.81163500  0.43024000  1
  H  127  1  0.32696300  0.81622300  0.42846900  1
  H  130  1  0.19096000  0.86477500  0.42615900  1
  H  131  1  0.46454100  0.81355700  0.39811700  1
  H  138  1  0.14259800  0.75633800  0.43681600  1
  H  145  1  0.21422300  0.69221800  0.48280700  1
  H  146  1  0.15371900  0.66511000  0.43017600  1
  H  147  1  0.11813800  0.77441400  0.49680900  1
  H  149  1  0.19812900  0.74250900  0.49404400  1
  H  150  1  0.21784500  0.72799000  0.50122500  1
  H  152  1  0.17064900  0.72527400  0.41695000  1
  H  153  1  0.18229000  0.71038400  0.42570700  1
  H  156  1  0.13131900  0.79928400  0.48336500  1
  H  163  1  0.47598100  0.66293400  0.22959800  1
  H  170  1  0.54753100  0.77308900  0.29375300  1
  H  171  1  0.48736700  0.74742700  0.32085600  1
  H  172  1  0.45139400  0.70491600  0.21161800  1
  H  174  1  0.53156700  0.73399000  0.24347100  1
  H  175  1  0.55122100  0.75571400  0.25798900  1
  H  177  1  0.50416800  0.67408600  0.26061400  1
  H  178  1  0.51583700  0.69772300  0.27551400  1
  H  181  1  0.46471000  0.66652000  0.18670700  1
  H  182  1  0.52342700  0.77605700  0.34155700  1
  H  189  1  0.29802900  0.60279300  0.45258900  1
  H  198  1  0.19764600  0.57629400  0.44881500  1
  H  199  1  0.13563200  0.64454200  0.46309600  1
  H  200  1  0.11519100  0.62306100  0.45490400  1
  H  201  1  0.36475600  0.55837500  0.46476700  1
  H  202  1  0.22890900  0.57620300  0.47505500  1
  H  203  1  0.25259500  0.63059700  0.46978600  1
  H  213  1  0.35056100  0.59989300  0.15523900  1
  H  222  1  0.45238600  0.57745000  0.12961800  1
  H  223  1  0.50690900  0.63991700  0.19563300  1
  H  224  1  0.52887000  0.61971500  0.17994500  1
  H  225  1  0.30979600  0.55073700  0.07860700  1
  H  226  1  0.28284700  0.55967500  0.09779300  1
  H  227  1  0.41787300  0.57954700  0.10560300  1
  H  228  1  0.39338400  0.62880500  0.16790600  1
  H  234  1  0.28302600  0.55624300  0.49146000  1
  H  239  1  0.24331900  0.59492000  0.16481400  1
  H  245  1  0.06548300  0.55072400  0.12180700  1
  H  246  1  0.08859500  0.54952500  0.17481000  1
  H  248  1  0.15138300  0.56241500  0.11393000  1
  H  249  1  0.11114300  0.55745500  0.10507400  1
  H  251  1  0.18941400  0.60928600  0.18188200  1
  H  252  1  0.15246900  0.59643100  0.17551100  1
  H  254  1  0.29834300  0.55356900  0.13200800  1
  H  261  1  0.57670200  0.55189600  0.39104500  1
  H  268  1  0.39903300  0.55353500  0.43513800  1
  H  269  1  0.42207200  0.60787700  0.43661200  1
  H  270  1  0.57591500  0.56527000  0.45136500  1
  H  272  1  0.52279000  0.55449500  0.37661600  1
  H  273  1  0.48592800  0.56126500  0.38954600  1
  H  276  1  0.63177100  0.56073900  0.43254700  1
  H  277  1  0.36195000  0.60081000  0.44303300  1
  H  282  1  0.57316100  0.57922700  0.15426000  1
  H  289  1  0.76786300  0.55408800  0.12338200  1
  H  290  1  0.73549500  0.56426400  0.18017900  1
  H  292  1  0.68257000  0.55431100  0.10538600  1
  H  293  1  0.72460800  0.55191200  0.10004900  1
  H  295  1  0.61897100  0.60108500  0.17421400  1
  H  296  1  0.66047900  0.59472200  0.16960500  1
  H  298  1  0.79842900  0.56717400  0.17207600  1
  H  305  1  0.90651400  0.55754800  0.40671700  1
  H  312  1  0.10127200  0.55191100  0.43181400  1
  H  313  1  0.06873300  0.59858100  0.42175500  1
  H  314  1  0.93276200  0.56578300  0.46373500  1
  H  316  1  0.95230700  0.55567100  0.38485900  1
  H  317  1  0.99381700  0.55745200  0.39122400  1
  H  320  1  0.85776400  0.55991700  0.44213700  1
  H  321  1  0.13168800  0.58763000  0.41882500  1
  H  322  1  0.80923100  0.54916300  0.32299400  1
  H  323  1  0.82047800  0.55593800  0.23850900  1
  H  325  1  0.83753900  0.56896300  0.31182200  1
  H  326  1  0.84919700  0.56019100  0.28817400  1
  H  327  1  0.19005400  0.64444200  0.43801900  1
  H  336  1  0.80065900  0.45539400  0.80737700  1
  H  337  1  0.00104000  0.46466000  0.91404800  1
  H  338  1  0.02833800  0.45477800  0.89502400  1
  H  339  1  0.89403900  0.46874700  0.88719600  1
  H  340  1  0.91792600  0.46087800  0.82742100  1
  H  349  1  0.96460800  0.53338500  0.15369200  1
  H  358  1  0.86432100  0.53704900  0.13081000  1
  H  359  1  0.80213700  0.52301600  0.18491200  1
  H  360  1  0.78173000  0.53118000  0.17159500  1
  H  361  1  0.00418900  0.51245000  0.07823100  1
  H  362  1  0.03175400  0.52050200  0.09700600  1
  H  363  1  0.89567500  0.51073200  0.10453300  1
  H  364  1  0.91914300  0.51620700  0.16429200  1
  H  369  1  0.33709400  0.54756400  0.47266500  1
  H  376  1  0.68406200  0.53771300  0.38613600  1
  H  385  1  0.78598200  0.53438000  0.40842800  1
  H  386  1  0.84021000  0.53815300  0.34602400  1
  H  387  1  0.86225400  0.54259000  0.36617700  1
  H  388  1  0.64328400  0.51006300  0.43513700  1
  H  389  1  0.61633400  0.52033700  0.42622500  1
  H  390  1  0.75136200  0.50835600  0.40641400  1
  H  391  1  0.72675200  0.52152100  0.35721100  1
  H  406  1  0.63939900  0.46646700  0.55588000  1
  H  407  1  0.61239000  0.45884100  0.56727100  1
  H  408  1  0.74874800  0.46923700  0.58366800  1
  H  409  1  0.72540600  0.46164300  0.63766300  1
  H  418  1  0.87102400  0.50199400  0.04763200  1
  H  425  1  0.95964000  0.49455800  0.95204800  1
  H  426  1  0.87039300  0.46007100  0.94523100  1
  H  427  1  0.97417400  0.48152800  0.03393700  1
  H  429  1  0.97139800  0.51138700  0.00401300  1
  H  430  1  0.98669100  0.51190300  0.98412700  1
  H  432  1  0.83914200  0.50681100  0.02371600  1
  H  433  1  0.85593400  0.50249000  0.00206000  1
  H  436  1  0.94907500  0.49375700  0.06857600  1
  H  437  1  0.89161600  0.46295000  0.91686100  1
  H  444  1  0.20500400  0.52745900  0.48320700  1
  H  449  1  0.20373400  0.46748600  0.52586600  1
  H  450  1  0.30752600  0.53499700  0.50475400  1
  H  452  1  0.30539200  0.47525200  0.47503400  1
  H  453  1  0.32075400  0.45490100  0.47460000  1
  H  455  1  0.17333300  0.49865800  0.47836300  1
  H  456  1  0.19004100  0.48156700  0.48307500  1
  H  467  1  0.35127100  0.54011400  0.04085300  1
  H  468  1  0.43963900  0.51194100  0.04785600  1
  H  470  1  0.33902500  0.50469300  0.98900900  1
  H  471  1  0.32417300  0.52535200  0.00878900  1
  H  473  1  0.47068900  0.47970900  0.96932300  1
  H  474  1  0.45410900  0.49714400  0.99099400  1
  H  476  1  0.41831200  0.54302200  0.07636300  1
  H  483  1  0.77256200  0.47781500  0.53563300  1
  H  490  1  0.68480500  0.48312000  0.44598500  1
  H  491  1  0.77302200  0.51842600  0.47419700  1
  H  492  1  0.66863000  0.49675500  0.54115100  1
  H  494  1  0.67272000  0.46662500  0.48136200  1
  H  495  1  0.65779000  0.46578600  0.46073800  1
  H  497  1  0.80478700  0.47285800  0.50698400  1
  H  498  1  0.78801500  0.47659100  0.48926100  1
  H  501  1  0.69407800  0.48558000  0.56435800  1
  H  502  1  0.75159000  0.51591300  0.44321700  1
  H  503  1  0.08140300  0.45402400  0.87049000  1
  H  504  1  0.13683500  0.46200400  0.88618900  1
  H  505  1  0.55831900  0.45381400  0.58519600  1
  H  508  1  0.24233400  0.53489500  0.11724200  1
  H  510  1  0.02844200  0.54309300  0.16133700  1
  H  512  1  0.48503900  0.53412000  0.42363300  1
  H  513  1  0.44477300  0.53013400  0.42846800  1
  H  514  1  0.59738000  0.45681700  0.88754200  1
  H  517  1  0.59936200  0.52220600  0.10546500  1
  H  519  1  0.52437800  0.54380200  0.12123900  1
  H  521  1  0.01602700  0.53368100  0.43169700  1
  H  522  1  0.05807800  0.53077100  0.43408200  1
  H  530  1  0.88031800  0.47501100  0.77962100  1
  H  531  1  0.78529700  0.49178100  0.71288400  1
  H  533  1  0.86473600  0.48722900  0.74121600  1
  H  534  1  0.88479500  0.49378900  0.76268400  1
  H  536  1  0.79806400  0.47828600  0.67435000  1
  H  549  1  0.88047700  0.50311400  0.21275400  1
  H  550  1  0.78464700  0.48919600  0.28105200  1
  H  552  1  0.86447500  0.49184400  0.25179000  1
  H  553  1  0.88404100  0.48463800  0.23004400  1
  H  556  1  0.79806800  0.50265500  0.31937700  1
  H  557  1  0.85650200  0.54799500  0.20984400  1
  H  560  1  0.96262500  0.44231400  0.83801600  1
  H  566  1  0.86220800  0.44074400  0.86122500  1
  H  567  1  0.78001400  0.44736600  0.82074600  1
  H  576  1  0.29610100  0.37824900  0.54397200  1
  H  585  1  0.19566600  0.40293400  0.54529100  1
  H  586  1  0.13418500  0.33436200  0.53045800  1
  H  587  1  0.11346800  0.35571900  0.53837700  1
  H  588  1  0.33463600  0.43206300  0.52181600  1
  H  589  1  0.36187200  0.42294100  0.53174600  1
  H  590  1  0.22770800  0.40092700  0.51738800  1
  H  591  1  0.25151100  0.34906800  0.52535900  1
  H  602  1  0.62938300  0.14835000  0.60775100  1
  H  611  1  0.52896900  0.12497000  0.58303300  1
  H  612  1  0.46741000  0.17880000  0.65158200  1
  H  613  1  0.44672500  0.16538300  0.63021900  1
  H  614  1  0.66793400  0.07239000  0.55391400  1
  H  615  1  0.69517200  0.09144200  0.56304400  1
  H  616  1  0.56100600  0.09908100  0.58505500  1
  H  617  1  0.58477000  0.15887500  0.63692200  1
  H  628  1  0.34679100  0.37379000  0.83967100  1
  H  637  1  0.44861400  0.40141900  0.86376100  1
  H  638  1  0.50403000  0.33892600  0.79824800  1
  H  639  1  0.52506600  0.35979700  0.81320600  1
  H  640  1  0.30620300  0.43085700  0.91368300  1
  H  641  1  0.27915500  0.41924400  0.89472800  1
  H  642  1  0.41540700  0.40261700  0.88889100  1
  H  643  1  0.39206700  0.34833600  0.82746800  1
  H  654  1  0.01358200  0.14632100  0.53763400  1
  H  663  1  0.11539600  0.12208500  0.54089800  1
  H  664  1  0.17083100  0.18765400  0.54403200  1
  H  665  1  0.19191100  0.17263500  0.54984500  1
  H  666  1  0.97266700  0.07209200  0.51981300  1
  H  667  1  0.94567700  0.09110200  0.52733600  1
  H  668  1  0.08206300  0.09700500  0.51692500  1
  H  669  1  0.05879200  0.15853400  0.52432900  1
  H  674  1  0.68022900  0.44834400  0.61209500  1
  H  679  1  0.78208500  0.44521700  0.58470200  1
  H  680  1  0.83743700  0.44189400  0.64705400  1
  H  681  1  0.85853800  0.43614400  0.62624400  1
  H  686  1  0.29353100  0.44010000  0.49183300  1
  H  688  1  0.22515100  0.43633800  0.52314600  1
  H  691  1  0.43842600  0.45117600  0.94546700  1
  H  692  1  0.33509400  0.44492100  0.95927600  1
  H  694  1  0.35972800  0.42313000  0.92496600  1
  H  701  1  0.25125400  0.40634400  0.82175000  1
  H  708  1  0.06825500  0.39864400  0.81699100  1
  H  709  1  0.22490700  0.40065000  0.87190300  1
  H  711  1  0.17071700  0.44680100  0.87672800  1
  H  713  1  0.20625700  0.41410500  0.80531000  1
  H  714  1  0.16540300  0.41775000  0.81315400  1
  H  717  1  0.29514200  0.41118300  0.84863100  1
  H  718  1  0.01910100  0.42208100  0.83136700  1
  H  725  1  0.58482200  0.39813200  0.57985200  1
  H  732  1  0.41488800  0.39853800  0.53188300  1
  H  733  1  0.40191200  0.40092700  0.58751100  1
  H  735  1  0.50414700  0.41216800  0.53902300  1
  H  736  1  0.47026000  0.40624000  0.52379400  1
  H  738  1  0.53990500  0.37390200  0.57216100  1
  H  739  1  0.49905200  0.37800800  0.56841900  1
  H  742  1  0.62870700  0.42013800  0.57496000  1
  H  743  1  0.35266100  0.39148900  0.56394900  1
  H  750  1  0.91818900  0.16415700  0.58796500  1
  H  757  1  0.74818000  0.11597100  0.58748200  1
  H  758  1  0.73521200  0.16924800  0.58516100  1
  H  759  1  0.89150600  0.11405400  0.53215700  1
  H  761  1  0.83739900  0.10943800  0.57375500  1
  H  762  1  0.80352700  0.10014100  0.57970000  1
  H  764  1  0.87331400  0.18068500  0.61222600  1
  H  765  1  0.83241500  0.17292000  0.60808400  1
  H  768  1  0.96190100  0.13715100  0.56585700  1
  H  769  1  0.68597700  0.15512000  0.59460700  1
  H  776  1  0.57095500  0.39941200  0.83945500  1
  H  783  1  0.76586700  0.42468300  0.86924600  1
  H  784  1  0.73276400  0.41415500  0.81244300  1
  H  786  1  0.68079300  0.42494500  0.88775300  1
  H  787  1  0.72289800  0.42728700  0.89290700  1
  H  789  1  0.61666900  0.37750200  0.81940800  1
  H  790  1  0.65817700  0.38395200  0.82373600  1
  H  793  1  0.52238700  0.43504200  0.87239200  1
  H  794  1  0.79576600  0.41108900  0.82029800  1
  H  801  1  0.90414100  0.42246000  0.58657000  1
  H  808  1  0.09909200  0.42683600  0.56115600  1
  H  809  1  0.06581600  0.38058900  0.57168300  1
  H  810  1  0.93057300  0.41333200  0.52923500  1
  H  812  1  0.01410700  0.44526800  0.56107000  1
  H  813  1  0.05621700  0.44799600  0.55865700  1
  H  815  1  0.94986500  0.42435500  0.60848200  1
  H  816  1  0.99137300  0.42225000  0.60203100  1
  H  819  1  0.85558100  0.41989800  0.55099400  1
  H  820  1  0.12868400  0.39155800  0.57482000  1
  H  827  1  0.23745200  0.14656600  0.56345800  1
  H  834  1  0.43240500  0.11682200  0.55909600  1
  H  835  1  0.39912400  0.17361300  0.60530800  1
  H  836  1  0.26388200  0.09844300  0.57271700  1
  H  838  1  0.34741500  0.09827000  0.54070900  1
  H  839  1  0.38953100  0.09314300  0.53796200  1
  H  841  1  0.28316100  0.16662800  0.56161800  1
  H  842  1  0.32467200  0.16229000  0.56372600  1
  H  845  1  0.18888900  0.11360200  0.56611000  1
  H  846  1  0.46199000  0.16577300  0.59430000  1
  H  849  1  0.80616100  0.43147700  0.67030000  1
  H  853  1  0.81725300  0.42339300  0.75402400  1
  H  855  1  0.83311700  0.41084200  0.68090300  1
  H  856  1  0.84530600  0.41913600  0.70438300  1
  H  858  1  0.85427500  0.43020000  0.78204800  1
  H  865  1  0.13964600  0.22118400  0.55444300  1
  H  872  1  0.21359400  0.28713300  0.51101600  1
  H  873  1  0.15089400  0.31309300  0.56278600  1
  H  874  1  0.11858700  0.20364800  0.49419800  1
  H  876  1  0.19819100  0.23650300  0.49880900  1
  H  877  1  0.21816500  0.25142900  0.49223900  1
  H  879  1  0.16678300  0.25235500  0.57509400  1
  H  880  1  0.17896900  0.26757200  0.56683500  1
  H  883  1  0.13152700  0.17852500  0.50765700  1
  H  884  1  0.18756200  0.33437600  0.55589000  1
  H  891  1  0.47273600  0.31573600  0.76469000  1
  H  898  1  0.54715700  0.20652100  0.69884400  1
  H  899  1  0.48393800  0.23210300  0.67286600  1
  H  900  1  0.45197600  0.27309700  0.78235100  1
  H  902  1  0.53149700  0.24486700  0.74948600  1
  H  903  1  0.55162900  0.22342800  0.73456000  1
  H  905  1  0.49974300  0.30519500  0.73348700  1
  H  906  1  0.51197100  0.28172800  0.71828200  1
  H  909  1  0.46475200  0.31167600  0.80741300  1
  H  910  1  0.52105700  0.20410200  0.65161400  1
  H  917  1  0.62675900  0.03438500  0.54588200  1
  H  918  1  0.53694800  0.04104200  0.51850800  1
  H  920  1  0.65393900  0.00234500  0.53109900  1
  H  922  1  0.55846700  0.06948800  0.54961100  1
  H  929  1  0.10573900  0.04037700  0.50844100  1
  H  930  1  0.00191800  0.02689900  0.48927500  1
  H  931  1  0.00602300  0.99720400  0.51936300  1
  H  933  1  0.13804600  0.01657500  0.51319300  1
  H  934  1  0.12132600  0.99506000  0.50932300  1
  H  936  1  0.02708500  0.06130200  0.50082700  1
  H  944  1  0.63159100  0.40224100  0.14853600  1
  H  953  1  0.53107300  0.42495900  0.17515500  1
  H  954  1  0.46916900  0.37118400  0.10677900  1
  H  955  1  0.44864000  0.38450200  0.12822500  1
  H  956  1  0.67071700  0.47737600  0.20417900  1
  H  957  1  0.69837300  0.45870300  0.19315600  1
  H  958  1  0.56245800  0.45126600  0.17550700  1
  H  959  1  0.58616000  0.39163200  0.12090200  1
  H  970  1  0.01753600  0.40092300  0.21364600  1
  H  979  1  0.11948100  0.42674800  0.21725200  1
  H  980  1  0.17378600  0.36060200  0.21350000  1
  H  981  1  0.19586900  0.37640400  0.20920700  1
  H  982  1  0.97657800  0.47748600  0.24091100  1
  H  983  1  0.94971400  0.45825900  0.23059900  1
  H  984  1  0.08460400  0.45065600  0.24309000  1
  H  985  1  0.06015600  0.38822300  0.22983600  1
  H  996  1  0.53844200  0.50821400  0.22460400  1
  H  997  1  0.64059500  0.52236000  0.21657300  1
  H  998  1  0.63856500  0.55249800  0.27624700  1
  H  1000  1  0.50667000  0.53237200  0.25324300  1
  H  1001  1  0.52325800  0.55431000  0.27011800  1
  H  1003  1  0.61699900  0.48772500  0.19619600  1
  H  1010  1  0.01824300  0.51542600  0.26844900  1
  H  1011  1  0.10628400  0.50830600  0.23301100  1
  H  1013  1  0.99117500  0.54750600  0.28575700  1
  H  1015  1  0.08518100  0.47987600  0.23578200  1
  H  1022  1  0.90992200  0.39182200  0.19985000  1
  H  1029  1  0.73261100  0.43404400  0.19783900  1
  H  1030  1  0.75533500  0.38104800  0.14356000  1
  H  1031  1  0.90979100  0.43792500  0.18526300  1
  H  1033  1  0.81883200  0.44206700  0.21698200  1
  H  1034  1  0.77855900  0.45088900  0.22105700  1
  H  1036  1  0.85581300  0.37512200  0.19764300  1
  H  1037  1  0.81906000  0.38118200  0.19067200  1
  H  1040  1  0.96540100  0.42389400  0.19029900  1
  H  1041  1  0.69528400  0.39469300  0.15058000  1
  H  1048  1  0.23966800  0.40168300  0.19384600  1
  H  1055  1  0.43450200  0.43233800  0.19931800  1
  H  1056  1  0.40170900  0.37567400  0.15264700  1
  H  1057  1  0.26597600  0.45060200  0.18584300  1
  H  1059  1  0.34936900  0.45049200  0.21776100  1
  H  1060  1  0.39143300  0.45575500  0.22058200  1
  H  1062  1  0.28544800  0.38170700  0.19573400  1
  H  1063  1  0.32696300  0.38629500  0.19396300  1
  H  1066  1  0.19096000  0.43484700  0.19165300  1
  H  1067  1  0.46454100  0.38362900  0.16361100  1
  H  1074  1  0.14259800  0.32641000  0.20231000  1
  H  1081  1  0.21422300  0.26229000  0.24830100  1
  H  1082  1  0.15371900  0.23518200  0.19567000  1
  H  1083  1  0.11813800  0.34448600  0.26230300  1
  H  1085  1  0.19812900  0.31258100  0.25953800  1
  H  1086  1  0.21784500  0.29806200  0.26671900  1
  H  1088  1  0.17064900  0.29534600  0.18244400  1
  H  1089  1  0.18229000  0.28045600  0.19120100  1
  H  1092  1  0.13131900  0.36935600  0.24885900  1
  H  1099  1  0.47598100  0.23300600  0.99509200  1
  H  1106  1  0.54753100  0.34316100  0.05924700  1
  H  1107  1  0.48736700  0.31749900  0.08635000  1
  H  1108  1  0.45139400  0.27498800  0.97711200  1
  H  1110  1  0.53156700  0.30406200  0.00896500  1
  H  1111  1  0.55122100  0.32578600  0.02348300  1
  H  1113  1  0.50416800  0.24415800  0.02610800  1
  H  1114  1  0.51583700  0.26779500  0.04100800  1
  H  1117  1  0.46471000  0.23659200  0.95220100  1
  H  1118  1  0.52342700  0.34612900  0.10705100  1
  H  1125  1  0.29802900  0.17286500  0.21808270  1
  H  1134  1  0.19764600  0.14636600  0.21430870  1
  H  1135  1  0.13563200  0.21461400  0.22858970  1
  H  1136  1  0.11519100  0.19313300  0.22039770  1
  H  1137  1  0.36475600  0.12844700  0.23026100  1
  H  1138  1  0.22890900  0.14627500  0.24054870  1
  H  1139  1  0.25259500  0.20066900  0.23527970  1
  H  1149  1  0.35056100  0.16996500  0.92073300  1
  H  1158  1  0.45238600  0.14752200  0.89511200  1
  H  1159  1  0.50690900  0.20998900  0.96112700  1
  H  1160  1  0.52887000  0.18978700  0.94543900  1
  H  1161  1  0.30979600  0.12080900  0.84410100  1
  H  1162  1  0.28284700  0.12974700  0.86328700  1
  H  1163  1  0.41787300  0.14961900  0.87109700  1
  H  1164  1  0.39338400  0.19887700  0.93340000  1
  H  1170  1  0.28302600  0.12631500  0.25695400  1
  H  1175  1  0.24331900  0.16499200  0.93030800  1
  H  1181  1  0.06548300  0.12079600  0.88730100  1
  H  1182  1  0.08859500  0.11959700  0.94030400  1
  H  1184  1  0.15138300  0.13248700  0.87942400  1
  H  1185  1  0.11114300  0.12752700  0.87056800  1
  H  1187  1  0.18941400  0.17935800  0.94737600  1
  H  1188  1  0.15246900  0.16650300  0.94100500  1
  H  1190  1  0.29834300  0.12364100  0.89750200  1
  H  1197  1  0.57670200  0.12196800  0.15653870  1
  H  1204  1  0.39903300  0.12360700  0.20063170  1
  H  1205  1  0.42207200  0.17794900  0.20210570  1
  H  1206  1  0.57591500  0.13534200  0.21685870  1
  H  1208  1  0.52279000  0.12456700  0.14210970  1
  H  1209  1  0.48592800  0.13133700  0.15503970  1
  H  1212  1  0.63177100  0.13081100  0.19804070  1
  H  1213  1  0.36195000  0.17088200  0.20852670  1
  H  1218  1  0.57316100  0.14929900  0.91975400  1
  H  1225  1  0.76786300  0.12416000  0.88887600  1
  H  1226  1  0.73549500  0.13433600  0.94567300  1
  H  1228  1  0.68257000  0.12438300  0.87088000  1
  H  1229  1  0.72460800  0.12198400  0.86554300  1
  H  1231  1  0.61897100  0.17115700  0.93970800  1
  H  1232  1  0.66047900  0.16479400  0.93509900  1
  H  1234  1  0.79842900  0.13724600  0.93757000  1
  H  1241  1  0.90651400  0.12762000  0.17221070  1
  H  1248  1  0.10127200  0.12198300  0.19730770  1
  H  1249  1  0.06873300  0.16865300  0.18724870  1
  H  1250  1  0.93276200  0.13585500  0.22922870  1
  H  1252  1  0.95230700  0.12574300  0.15035270  1
  H  1253  1  0.99381700  0.12752400  0.15671770  1
  H  1256  1  0.85776400  0.12998900  0.20763070  1
  H  1257  1  0.13168800  0.15770200  0.18431870  1
  H  1258  1  0.80923100  0.11923500  0.08848800  1
  H  1259  1  0.82047800  0.12601000  0.00400300  1
  H  1261  1  0.83753900  0.13903500  0.07731600  1
  H  1262  1  0.84919700  0.13026300  0.05366800  1
  H  1263  1  0.19005400  0.21451400  0.20351300  1
  H  1272  1  0.80065900  0.02546600  0.57287100  1
  H  1273  1  0.00104000  0.03473200  0.67954200  1
  H  1274  1  0.02833800  0.02485000  0.66051800  1
  H  1275  1  0.89403900  0.03881900  0.65269000  1
  H  1276  1  0.91792600  0.03095000  0.59291500  1
  H  1285  1  0.96460800  0.10345700  0.91918600  1
  H  1294  1  0.86432100  0.10712100  0.89630400  1
  H  1295  1  0.80213700  0.09308800  0.95040600  1
  H  1296  1  0.78173000  0.10125200  0.93708900  1
  H  1297  1  0.00418900  0.08252200  0.84372500  1
  H  1298  1  0.03175400  0.09057400  0.86250000  1
  H  1299  1  0.89567500  0.08080400  0.87002700  1
  H  1300  1  0.91914300  0.08627900  0.92978600  1
  H  1305  1  0.33709400  0.11763600  0.23815900  1
  H  1312  1  0.68406200  0.10778500  0.15162970  1
  H  1321  1  0.78598200  0.10445200  0.17392170  1
  H  1322  1  0.84021000  0.10822500  0.11151766  1
  H  1323  1  0.86225400  0.11266200  0.13167070  1
  H  1324  1  0.64328400  0.08013500  0.20063100  1
  H  1325  1  0.61633400  0.09040900  0.19171900  1
  H  1326  1  0.75136200  0.07842800  0.17190770  1
  H  1327  1  0.72675200  0.09159300  0.12270470  1
  H  1342  1  0.63939900  0.03653900  0.32137400  1
  H  1343  1  0.61239000  0.02891300  0.33276500  1
  H  1344  1  0.74874800  0.03930900  0.34916200  1
  H  1345  1  0.72540600  0.03171500  0.40315700  1
  H  1354  1  0.87102400  0.07206600  0.81312600  1
  H  1361  1  0.95964000  0.06463000  0.71754200  1
  H  1362  1  0.87039300  0.03014300  0.71072500  1
  H  1363  1  0.97417400  0.05160000  0.79943100  1
  H  1365  1  0.97139800  0.08145900  0.76950700  1
  H  1366  1  0.98669100  0.08197500  0.74962100  1
  H  1368  1  0.83914200  0.07688300  0.78921000  1
  H  1369  1  0.85593400  0.07256200  0.76755400  1
  H  1372  1  0.94907500  0.06382900  0.83407000  1
  H  1373  1  0.89161600  0.03302200  0.68235500  1
  H  1380  1  0.20500400  0.09753100  0.24870100  1
  H  1385  1  0.20373400  0.03755800  0.29136000  1
  H  1386  1  0.30752600  0.10506900  0.27024800  1
  H  1388  1  0.30539200  0.04532400  0.24052800  1
  H  1389  1  0.32075400  0.02497300  0.24009400  1
  H  1391  1  0.17333300  0.06873000  0.24385700  1
  H  1392  1  0.19004100  0.05163900  0.24856900  1
  H  1403  1  0.35127100  0.11018600  0.80634700  1
  H  1404  1  0.43963900  0.08201300  0.81335000  1
  H  1406  1  0.33902500  0.07476500  0.75450300  1
  H  1407  1  0.32417300  0.09542400  0.77428300  1
  H  1409  1  0.47068900  0.04978100  0.73481700  1
  H  1410  1  0.45410900  0.06721600  0.75648800  1
  H  1412  1  0.41831200  0.11309400  0.84185700  1
  H  1419  1  0.77256200  0.04788700  0.30112700  1
  H  1426  1  0.68480500  0.05319200  0.21147900  1
  H  1427  1  0.77302200  0.08849800  0.23969100  1
  H  1428  1  0.66863000  0.06682700  0.30664500  1
  H  1430  1  0.67272000  0.03669700  0.24685600  1
  H  1431  1  0.65779000  0.03585800  0.22623200  1
  H  1433  1  0.80478700  0.04293000  0.27247800  1
  H  1434  1  0.78801500  0.04666300  0.25475500  1
  H  1437  1  0.69407800  0.05565200  0.32985200  1
  H  1438  1  0.75159000  0.08598500  0.20871100  1
  H  1439  1  0.08140300  0.02409600  0.63598400  1
  H  1440  1  0.13683500  0.03207600  0.65168300  1
  H  1441  1  0.55831900  0.02388600  0.35069000  1
  H  1444  1  0.24233400  0.10496700  0.88273600  1
  H  1446  1  0.02844200  0.11316500  0.92683100  1
  H  1448  1  0.48503900  0.10419200  0.18912670  1
  H  1449  1  0.44477300  0.10020600  0.19396170  1
  H  1450  1  0.59738000  0.02688900  0.65303600  1
  H  1453  1  0.59936200  0.09227800  0.87095900  1
  H  1455  1  0.52437800  0.11387400  0.88673300  1
  H  1457  1  0.01602700  0.10375300  0.19719070  1
  H  1458  1  0.05807800  0.10084300  0.19957570  1
  H  1466  1  0.88031800  0.04508300  0.54511500  1
  H  1467  1  0.78529700  0.06185300  0.47837800  1
  H  1469  1  0.86473600  0.05730100  0.50671000  1
  H  1470  1  0.88479500  0.06386100  0.52817800  1
  H  1472  1  0.79806400  0.04835800  0.43984400  1
  H  1485  1  0.88047700  0.07318600  0.97824800  1
  H  1486  1  0.78464700  0.05926800  0.04654600  1
  H  1488  1  0.86447500  0.06191600  0.01728400  1
  H  1489  1  0.88404100  0.05471000  0.99553800  1
  H  1492  1  0.79806800  0.07272700  0.08487070  1
  H  1493  1  0.85650200  0.11806700  0.97533800  1
  H  1496  1  0.96262500  0.01238600  0.60351000  1
  H  1502  1  0.86220800  0.01081600  0.62671900  1
  H  1503  1  0.78001400  0.01743800  0.58624000  1
  H  1512  1  0.29610100  0.94832130  0.30946630  1
  H  1521  1  0.19566600  0.97300630  0.31078530  1
  H  1522  1  0.13418500  0.90443430  0.29595230  1
  H  1523  1  0.11346800  0.92579130  0.30387130  1
  H  1524  1  0.33463600  0.00213500  0.28731000  1
  H  1525  1  0.36187200  0.99301335  0.29724035  1
  H  1526  1  0.22770800  0.97099930  0.28288230  1
  H  1527  1  0.25151100  0.91914030  0.29085330  1
  H  1538  1  0.62938300  0.71842200  0.37324500  1
  H  1547  1  0.52896900  0.69504200  0.34852700  1
  H  1548  1  0.46741000  0.74887200  0.41707600  1
  H  1549  1  0.44672500  0.73545500  0.39571300  1
  H  1550  1  0.66793400  0.64246200  0.31940800  1
  H  1551  1  0.69517200  0.66151400  0.32853800  1
  H  1552  1  0.56100600  0.66915300  0.35054900  1
  H  1553  1  0.58477000  0.72894700  0.40241600  1
  H  1564  1  0.34679100  0.94386230  0.60516530  1
  H  1573  1  0.44861400  0.97149130  0.62925530  1
  H  1574  1  0.50403000  0.90899830  0.56374230  1
  H  1575  1  0.52506600  0.92986930  0.57870030  1
  H  1576  1  0.30620300  0.00092900  0.67917700  1
  H  1577  1  0.27915500  0.98931630  0.66022230  1
  H  1578  1  0.41540700  0.97268930  0.65438530  1
  H  1579  1  0.39206700  0.91840830  0.59296230  1
  H  1590  1  0.01358200  0.71639300  0.30312800  1
  H  1599  1  0.11539600  0.69215700  0.30639200  1
  H  1600  1  0.17083100  0.75772600  0.30952600  1
  H  1601  1  0.19191100  0.74270700  0.31533900  1
  H  1602  1  0.97266700  0.64216400  0.28530700  1
  H  1603  1  0.94567700  0.66117400  0.29283000  1
  H  1604  1  0.08206300  0.66707700  0.28241900  1
  H  1605  1  0.05879200  0.72860600  0.28982300  1
  H  1610  1  0.68022900  0.01841600  0.37758900  1
  H  1615  1  0.78208500  0.01528900  0.35019600  1
  H  1616  1  0.83743700  0.01196600  0.41254800  1
  H  1617  1  0.85853800  0.00621600  0.39173800  1
  H  1622  1  0.29353100  0.01017200  0.25732700  1
  H  1624  1  0.22515100  0.00641000  0.28864000  1
  H  1627  1  0.43842600  0.02124800  0.71096100  1
  H  1628  1  0.33509400  0.01499300  0.72477000  1
  H  1630  1  0.35972800  0.99320235  0.69046035  1
  H  1637  1  0.25125400  0.97641630  0.58724430  1
  H  1644  1  0.06825500  0.96871630  0.58248530  1
  H  1645  1  0.22490700  0.97072230  0.63738897  1
  H  1647  1  0.17071700  0.01687300  0.64222200  1
  H  1649  1  0.20625700  0.98417730  0.57080430  1
  H  1650  1  0.16540300  0.98782230  0.57864830  1
  H  1653  1  0.29514200  0.98125530  0.61412530  1
  H  1654  1  0.01910100  0.99215335  0.59686135  1
  H  1661  1  0.58482200  0.96820430  0.34534630  1
  H  1668  1  0.41488800  0.96861030  0.29737730  1
  H  1669  1  0.40191200  0.97099930  0.35300530  1
  H  1671  1  0.50414700  0.98224030  0.30451730  1
  H  1672  1  0.47026000  0.97631230  0.28928830  1
  H  1674  1  0.53990500  0.94397430  0.33765530  1
  H  1675  1  0.49905200  0.94808030  0.33391330  1
  H  1678  1  0.62870700  0.99021035  0.34045435  1
  H  1679  1  0.35266100  0.96156130  0.32944330  1
  H  1686  1  0.91818900  0.73422900  0.35345900  1
  H  1693  1  0.74818000  0.68604300  0.35297600  1
  H  1694  1  0.73521200  0.73932000  0.35065500  1
  H  1695  1  0.89150600  0.68412600  0.29765100  1
  H  1697  1  0.83739900  0.67951000  0.33924900  1
  H  1698  1  0.80352700  0.67021300  0.34519400  1
  H  1700  1  0.87331400  0.75075700  0.37772000  1
  H  1701  1  0.83241500  0.74299200  0.37357800  1
  H  1704  1  0.96190100  0.70722300  0.33135100  1
  H  1705  1  0.68597700  0.72519200  0.36010100  1
  H  1712  1  0.57095500  0.96948430  0.60494930  1
  H  1719  1  0.76586700  0.99475535  0.63474035  1
  H  1720  1  0.73276400  0.98422730  0.57793730  1
  H  1722  1  0.68079300  0.99501735  0.65324735  1
  H  1723  1  0.72289800  0.99735935  0.65840135  1
  H  1725  1  0.61666900  0.94757430  0.58490230  1
  H  1726  1  0.65817700  0.95402430  0.58923030  1
  H  1729  1  0.52238700  0.00511400  0.63788600  1
  H  1730  1  0.79576600  0.98116130  0.58579230  1
  H  1737  1  0.90414100  0.99253235  0.35206435  1
  H  1744  1  0.09909200  0.99690835  0.32665035  1
  H  1745  1  0.06581600  0.95066130  0.33717730  1
  H  1746  1  0.93057300  0.98340430  0.29472930  1
  H  1748  1  0.01410700  0.01534000  0.32656400  1
  H  1749  1  0.05621700  0.01806800  0.32415100  1
  H  1751  1  0.94986500  0.99442735  0.37397635  1
  H  1752  1  0.99137300  0.99232235  0.36752535  1
  H  1755  1  0.85558100  0.98997030  0.31648830  1
  H  1756  1  0.12868400  0.96163030  0.34031430  1
  H  1763  1  0.23745200  0.71663800  0.32895200  1
  H  1770  1  0.43240500  0.68689400  0.32459000  1
  H  1771  1  0.39912400  0.74368500  0.37080200  1
  H  1772  1  0.26388200  0.66851500  0.33821100  1
  H  1774  1  0.34741500  0.66834200  0.30620300  1
  H  1775  1  0.38953100  0.66321500  0.30345600  1
  H  1777  1  0.28316100  0.73670000  0.32711200  1
  H  1778  1  0.32467200  0.73236200  0.32922000  1
  H  1781  1  0.18888900  0.68367400  0.33160400  1
  H  1782  1  0.46199000  0.73584500  0.35979400  1
  H  1785  1  0.80616100  0.00154900  0.43579400  1
  H  1789  1  0.81725300  0.99346535  0.51951835  1
  H  1791  1  0.83311700  0.98091430  0.44639730  1
  H  1792  1  0.84530600  0.98920830  0.46987730  1
  H  1794  1  0.85427500  0.00027200  0.54754200  1
  H  1801  1  0.13964600  0.79125600  0.31993700  1
  H  1808  1  0.21359400  0.85720500  0.27651000  1
  H  1809  1  0.15089400  0.88316500  0.32828000  1
  H  1810  1  0.11858700  0.77372000  0.25969200  1
  H  1812  1  0.19819100  0.80657500  0.26430300  1
  H  1813  1  0.21816500  0.82150100  0.25773300  1
  H  1815  1  0.16678300  0.82242700  0.34058800  1
  H  1816  1  0.17896900  0.83764400  0.33232900  1
  H  1819  1  0.13152700  0.74859700  0.27315100  1
  H  1820  1  0.18756200  0.90444830  0.32138430  1
  H  1827  1  0.47273600  0.88580800  0.53018400  1
  H  1834  1  0.54715700  0.77659300  0.46433800  1
  H  1835  1  0.48393800  0.80217500  0.43836000  1
  H  1836  1  0.45197600  0.84316900  0.54784500  1
  H  1838  1  0.53149700  0.81493900  0.51498000  1
  H  1839  1  0.55162900  0.79350000  0.50005400  1
  H  1841  1  0.49974300  0.87526700  0.49898100  1
  H  1842  1  0.51197100  0.85180000  0.48377600  1
  H  1845  1  0.46475200  0.88174800  0.57290700  1
  H  1846  1  0.52105700  0.77417400  0.41710800  1
  H  1853  1  0.62675900  0.60445700  0.31137600  1
  H  1854  1  0.53694800  0.61111400  0.28400200  1
  H  1856  1  0.65393900  0.57241700  0.29659300  1
  H  1858  1  0.55846700  0.63956000  0.31510500  1
  H  1865  1  0.10573900  0.61044900  0.27393500  1
  H  1866  1  0.00191800  0.59697100  0.25476900  1
  H  1867  1  0.00602300  0.56727600  0.28485700  1
  H  1869  1  0.13804600  0.58664700  0.27868700  1
  H  1870  1  0.12132600  0.56513200  0.27481700  1
  H  1872  1  0.02708500  0.63137400  0.26632100  1
  C  2  1  0.59241700  0.85447300  0.39396600  1
  C  3  1  0.62683400  0.84718600  0.39219200  1
  C  4  1  0.65454700  0.85993300  0.40374500  1
  C  5  1  0.64822100  0.88068700  0.41758900  1
  C  6  1  0.61386100  0.88835800  0.41975600  1
  C  7  1  0.58693200  0.87527800  0.40789900  1
  C  10  1  0.56335000  0.84117700  0.38382300  1
  C  11  1  0.56377000  0.82477400  0.36363000  1
  C  12  1  0.53359600  0.81302400  0.35424400  1
  C  13  1  0.50145000  0.81842700  0.36498600  1
  C  14  1  0.50171800  0.83325700  0.38569800  1
  C  15  1  0.53210000  0.84423900  0.39469200  1
  C  28  1  0.05580900  0.85340800  0.46277800  1
  C  29  1  0.02201600  0.84602800  0.45549600  1
  C  30  1  0.99456200  0.85900600  0.45701100  1
  C  31  1  0.00014600  0.88019300  0.46645200  1
  C  32  1  0.03410300  0.88791600  0.47324000  1
  C  33  1  0.06077700  0.87456100  0.47182100  1
  C  36  1  0.08489000  0.84006600  0.45944600  1
  C  37  1  0.08319600  0.82213900  0.46066500  1
  C  38  1  0.11281100  0.80971500  0.45732300  1
  C  39  1  0.14510000  0.81478800  0.45182300  1
  C  40  1  0.14681300  0.83246800  0.45036500  1
  C  41  1  0.11728500  0.84453400  0.45385400  1
  C  54  1  0.58988900  0.94172200  0.45205600  1
  C  55  1  0.61753700  0.95570700  0.45870200  1
  C  57  1  0.58486600  0.98048200  0.48700800  1
  C  58  1  0.55580900  0.96717600  0.48107500  1
  C  59  1  0.55894000  0.94796200  0.46346500  1
  C  66  1  0.59272600  0.92264800  0.43507600  1
  C  68  1  0.05836400  0.97889200  0.49369200  1
  C  69  1  0.03318600  0.97128200  0.50182200  1
  C  70  1  0.03583600  0.95083200  0.49688200  1
  C  71  1  0.06235700  0.93787700  0.48422200  1
  C  72  1  0.08628500  0.94650300  0.47671400  1
  C  78  1  0.06619200  0.91783300  0.47968600  1
  C  80  1  0.91628500  0.84508700  0.42766400  1
  C  81  1  0.89780300  0.85673600  0.42119800  1
  C  83  1  0.84432300  0.83991500  0.41910600  1
  C  84  1  0.86116000  0.82742000  0.42531900  1
  C  85  1  0.89728900  0.83036800  0.42959700  1
  C  87  1  0.80822600  0.83962100  0.41536400  1
  C  88  1  0.78499000  0.85489800  0.42866700  1
  C  89  1  0.74975800  0.85331500  0.42270200  1
  C  90  1  0.73756100  0.83761100  0.40393400  1
  C  91  1  0.76221600  0.82288000  0.39171400  1
  C  102  1  0.70281900  0.83639000  0.39798300  1
  C  103  1  0.95126300  0.84911300  0.43255200  1
  C  106  1  0.24692500  0.85685200  0.42461300  1
  C  107  1  0.27238900  0.86839700  0.42184000  1
  C  109  1  0.31787500  0.84746900  0.42258300  1
  C  110  1  0.29342200  0.83521200  0.42545000  1
  C  111  1  0.25779400  0.84022600  0.42634300  1
  C  113  1  0.35393600  0.84356300  0.41996800  1
  C  114  1  0.38006200  0.85789400  0.43138500  1
  C  115  1  0.41512700  0.85223600  0.42588800  1
  C  116  1  0.42407300  0.83308900  0.40969900  1
  C  117  1  0.39686600  0.81956600  0.39917200  1
  C  128  1  0.45834200  0.82804500  0.40411200  1
  C  129  1  0.21416300  0.86148500  0.42551200  1
  C  132  1  0.12669600  0.76849200  0.46697100  1
  C  133  1  0.12662600  0.76404600  0.48275300  1
  C  135  1  0.15352700  0.73157300  0.46235500  1
  C  136  1  0.15431400  0.73503000  0.44572000  1
  C  137  1  0.14049300  0.75339200  0.44839800  1
  C  139  1  0.16585600  0.71353600  0.46163900  1
  C  140  1  0.18835200  0.71248100  0.47590500  1
  C  141  1  0.19791100  0.69316100  0.47277300  1
  C  142  1  0.18642400  0.67509800  0.45586700  1
  C  143  1  0.16386000  0.67735300  0.44257000  1
  C  154  1  0.19458200  0.65563800  0.45198300  1
  C  155  1  0.12095400  0.78815900  0.47082400  1
  C  157  1  0.46008200  0.68097500  0.21748000  1
  C  158  1  0.45997900  0.70120700  0.22195400  1
  C  160  1  0.48697200  0.71323500  0.25439400  1
  C  161  1  0.48778600  0.69313000  0.25090500  1
  C  162  1  0.47390500  0.67746600  0.23255300  1
  C  164  1  0.49933800  0.73053900  0.27243300  1
  C  165  1  0.52175100  0.74589100  0.27348900  1
  C  166  1  0.53131500  0.76207400  0.29281000  1
  C  167  1  0.51992400  0.76319200  0.31087100  1
  C  168  1  0.49744600  0.74760500  0.30861400  1
  C  179  1  0.52802000  0.77877600  0.33033500  1
  C  180  1  0.45415600  0.66516700  0.19782100  1
  C  183  1  0.25888300  0.59207000  0.46418400  1
  C  184  1  0.29326900  0.59372100  0.45854600  1
  C  185  1  0.32094300  0.58217500  0.45978200  1
  C  186  1  0.31462700  0.56846900  0.46686400  1
  C  187  1  0.28029500  0.56640300  0.47246500  1
  C  188  1  0.25337400  0.57822700  0.47116800  1
  C  191  1  0.22983100  0.60216900  0.46096900  1
  C  192  1  0.23023100  0.62235500  0.46474200  1
  C  193  1  0.20007800  0.63169700  0.46228700  1
  C  194  1  0.16797800  0.62090600  0.45685800  1
  C  195  1  0.16829300  0.60020100  0.45100200  1
  C  196  1  0.19864100  0.59125400  0.45310000  1
  C  207  1  0.38893300  0.59194500  0.13272700  1
  C  208  1  0.35508200  0.59209200  0.14006300  1
  C  209  1  0.32764400  0.58067000  0.12704500  1
  C  210  1  0.33333333  0.56894600  0.10586200  1
  C  211  1  0.36731000  0.56796800  0.09819100  1
  C  212  1  0.39398200  0.57984100  0.11158500  1
  C  215  1  0.41798500  0.60188100  0.14611100  1
  C  216  1  0.41635600  0.62106700  0.16398700  1
  C  217  1  0.44595800  0.63009400  0.17643900  1
  C  218  1  0.47815400  0.61943300  0.17144000  1
  C  219  1  0.47977800  0.60023900  0.15382700  1
  C  220  1  0.45027100  0.59171800  0.14172800  1
  C  233  1  0.25930900  0.55159100  0.49198400  1
  C  235  1  0.24923500  0.56521500  0.14074300  1
  C  236  1  0.17723900  0.56189100  0.14586100  1
  C  237  1  0.19434300  0.58038400  0.15880600  1
  C  238  1  0.23048300  0.58169500  0.15586800  1
  C  240  1  0.14114300  0.55845200  0.14621200  1
  C  241  1  0.11782100  0.55640300  0.13094000  1
  C  242  1  0.08268100  0.55184900  0.13249200  1
  C  243  1  0.09535000  0.55135200  0.16293900  1
  C  253  1  0.28424200  0.56604800  0.13680400  1
  C  255  1  0.58273800  0.55799900  0.42090100  1
  C  256  1  0.56408200  0.56413200  0.43890100  1
  C  258  1  0.51080400  0.56661300  0.42423700  1
  C  259  1  0.52782500  0.56074400  0.40565000  1
  C  260  1  0.56393700  0.55641700  0.40433700  1
  C  262  1  0.47470600  0.57038200  0.42765700  1
  C  263  1  0.45139100  0.55709200  0.42960100  1
  C  264  1  0.41622000  0.56314800  0.43409900  1
  C  265  1  0.40414400  0.58197200  0.43725800  1
  C  266  1  0.42885600  0.59417300  0.43475800  1
  C  274  1  0.36947700  0.58802200  0.44217500  1
  C  275  1  0.61767800  0.55306400  0.42005700  1
  C  278  1  0.58036100  0.55019000  0.12909500  1
  C  279  1  0.65133600  0.55756300  0.13838200  1
  C  280  1  0.62690900  0.57270800  0.15062900  1
  C  281  1  0.59126800  0.56858200  0.14566100  1
  C  283  1  0.68742100  0.55887300  0.14222700  1
  C  284  1  0.71344300  0.55596000  0.12784100  1
  C  285  1  0.74855900  0.55617900  0.13344800  1
  C  286  1  0.75764400  0.55920000  0.15260100  1
  C  287  1  0.73054000  0.56221200  0.16618400  1
  C  297  1  0.79193900  0.55878900  0.15763500  1
  C  299  1  0.91373900  0.56141600  0.43575000  1
  C  300  1  0.93919000  0.56423700  0.45009100  1
  C  302  1  0.98470400  0.56337100  0.42837800  1
  C  303  1  0.96026200  0.56046700  0.41323600  1
  C  304  1  0.92462900  0.55960000  0.41736000  1
  C  306  1  0.02077900  0.56592800  0.42706400  1
  C  307  1  0.04684300  0.55447300  0.42997000  1
  C  308  1  0.08193800  0.55988600  0.42974600  1
  C  309  1  0.09096700  0.57604600  0.42675900  1
  C  310  1  0.06382000  0.58661700  0.42378000  1
  C  318  1  0.12524700  0.58151700  0.42716600  1
  C  319  1  0.88097200  0.56054400  0.43948900  1
  C  328  1  0.07064600  0.54874400  0.14819900  1
  C  329  1  0.92370900  0.45524300  0.86034400  1
  C  330  1  0.97872000  0.45800000  0.88705200  1
  C  331  1  0.94458700  0.46450100  0.89466000  1
  C  332  1  0.91816100  0.46343400  0.88133700  1
  C  334  1  0.89537900  0.45606000  0.83070100  1
  C  335  1  0.86511500  0.45400100  0.81912200  1
  C  343  1  0.92554200  0.52172700  0.13132700  1
  C  344  1  0.95992100  0.52733600  0.13864200  1
  C  345  1  0.98769800  0.52593500  0.12585000  1
  C  346  1  0.98150700  0.51866700  0.10501700  1
  C  347  1  0.94717500  0.51312000  0.09733600  1
  C  348  1  0.92012400  0.51462000  0.11046900  1
  C  351  1  0.89645300  0.52497900  0.14462800  1
  C  352  1  0.89679900  0.52124600  0.16106900  1
  C  353  1  0.86661500  0.52371400  0.17284600  1
  C  354  1  0.83454600  0.52913700  0.16744900  1
  C  355  1  0.83490700  0.53494200  0.15256200  1
  C  356  1  0.86527900  0.53280900  0.14152000  1
  C  370  1  0.72243300  0.52311200  0.39403700  1
  C  371  1  0.68860100  0.53035500  0.39394900  1
  C  372  1  0.66116000  0.52874700  0.40536500  1
  C  373  1  0.66680400  0.51924200  0.41704700  1
  C  374  1  0.70081500  0.51253900  0.41801200  1
  C  375  1  0.72748400  0.51406900  0.40614100  1
  C  378  1  0.75146600  0.52653100  0.38406400  1
  C  379  1  0.74976600  0.52528100  0.36490500  1
  C  380  1  0.77933600  0.52869500  0.35584300  1
  C  381  1  0.81156600  0.53432900  0.36647200  1
  C  382  1  0.81327600  0.53584200  0.38563500  1
  C  383  1  0.78380700  0.53224900  0.39417500  1
  C  396  1  0.71956500  0.45881500  0.60023800  1
  C  397  1  0.68503900  0.45394000  0.60271200  1
  C  398  1  0.65700000  0.45520000  0.59144100  1
  C  399  1  0.66278100  0.46158400  0.57715900  1
  C  400  1  0.69703500  0.46683700  0.57452400  1
  C  401  1  0.72444200  0.46552800  0.58610400  1
  C  403  1  0.74883500  0.45513600  0.60997500  1
  C  404  1  0.74783100  0.45700000  0.62944000  1
  C  405  1  0.77717300  0.45280300  0.63806000  1
  C  412  1  0.92302200  0.49226200  0.04428700  1
  C  413  1  0.95100100  0.48563500  0.03053100  1
  C  415  1  0.91810400  0.48921500  0.00584300  1
  C  416  1  0.88876700  0.49595900  0.01897400  1
  C  417  1  0.89182600  0.49715000  0.03801000  1
  C  419  1  0.91849100  0.48610700  0.98584500  1
  C  420  1  0.94412600  0.49387600  0.97812600  1
  C  421  1  0.94171300  0.48874500  0.95761900  1
  C  422  1  0.91498800  0.47624700  0.94472500  1
  C  423  1  0.89055800  0.46912500  0.95346500  1
  C  434  1  0.91155300  0.47160500  0.92463600  1
  C  435  1  0.92559100  0.49326300  0.06285500  1
  C  438  1  0.25666400  0.53425000  0.49350500  1
  C  439  1  0.28444700  0.52739200  0.50054300  1
  C  441  1  0.25172700  0.49905100  0.49689700  1
  C  442  1  0.22256600  0.50517100  0.48977100  1
  C  443  1  0.22563500  0.52291600  0.48840500  1
  C  445  1  0.25214300  0.48220200  0.50006200  1
  C  446  1  0.27792600  0.46679900  0.49242300  1
  C  447  1  0.22402400  0.46673200  0.51691500  1
  C  458  1  0.39166600  0.48039600  0.98732500  1
  C  459  1  0.42096200  0.47384800  0.97416100  1
  C  460  1  0.41768300  0.45602100  0.95513200  1
  C  461  1  0.39146400  0.49737000  0.00727900  1
  C  462  1  0.36623400  0.51308100  0.01491200  1
  C  463  1  0.36892100  0.52859200  0.03535400  1
  C  464  1  0.39555600  0.52892900  0.04827200  1
  C  465  1  0.41955700  0.51283200  0.03961400  1
  C  475  1  0.39940900  0.54443200  0.06831200  1
  C  477  1  0.72015500  0.48681400  0.54141900  1
  C  478  1  0.69200700  0.49286000  0.53384700  1
  C  480  1  0.72532000  0.48934600  0.50572200  1
  C  481  1  0.75480900  0.48314900  0.51254500  1
  C  482  1  0.75162400  0.48223000  0.53053300  1
  C  484  1  0.72510200  0.49226600  0.48870100  1
  C  485  1  0.69986700  0.48417900  0.47299200  1
  C  486  1  0.70246500  0.48915000  0.45750200  1
  C  487  1  0.72900700  0.50178900  0.45718200  1
  C  488  1  0.75301400  0.50923700  0.47327700  1
  C  499  1  0.73269900  0.50640300  0.44171300  1
  C  500  1  0.71756700  0.48619600  0.55919600  1
  C  506  1  0.23051400  0.54730000  0.12865400  1
  C  509  1  0.03600500  0.54379400  0.14932600  1
  C  515  1  0.60580100  0.53584800  0.11756300  1
  C  518  1  0.54758800  0.54645100  0.12450200  1
  C  523  1  0.79208100  0.46190000  0.68868600  1
  C  524  1  0.79294000  0.47752700  0.70897500  1
  C  526  1  0.81858500  0.45634300  0.72049200  1
  C  527  1  0.83086500  0.45516400  0.73757500  1
  C  528  1  0.85406300  0.46892200  0.75280200  1
  C  529  1  0.86349800  0.46535100  0.76872400  1
  C  535  1  0.78660900  0.46604900  0.67304300  1
  C  537  1  0.79327900  0.51901600  0.30498400  1
  C  538  1  0.79317300  0.50324800  0.28475000  1
  C  540  1  0.82011600  0.52364400  0.27268500  1
  C  541  1  0.82096000  0.54026400  0.29278700  1
  C  542  1  0.80709000  0.53759000  0.30846500  1
  C  543  1  0.83243000  0.52437100  0.25536200  1
  C  544  1  0.85476500  0.51005300  0.23997200  1
  C  545  1  0.86429100  0.51319200  0.22378400  1
  C  546  1  0.85295300  0.53016000  0.22269500  1
  C  547  1  0.83053600  0.54350500  0.23831000  1
  C  554  1  0.86102200  0.53404200  0.20710600  1
  C  555  1  0.78748100  0.51514100  0.32078600  1
  C  558  1  0.95776000  0.44860600  0.85307700  1
  C  559  1  0.98505800  0.44985400  0.86608000  1
  C  561  1  0.89478000  0.45228100  0.84709400  1
  C  562  1  0.83285500  0.44887100  0.82462900  1
  C  563  1  0.83296300  0.44304100  0.83950100  1
  C  564  1  0.86335100  0.44483400  0.85040100  1
  C  570  1  0.25727400  0.38762400  0.53097300  1
  C  571  1  0.29129100  0.38700300  0.53765700  1
  C  572  1  0.31858900  0.39881300  0.53650200  1
  C  573  1  0.31229300  0.41166100  0.52837600  1
  C  574  1  0.27821100  0.41271400  0.52177900  1
  C  575  1  0.25178900  0.40041000  0.52276000  1
  C  578  1  0.22831900  0.37730500  0.53386500  1
  C  579  1  0.22893500  0.35714400  0.53011700  1
  C  580  1  0.19863300  0.34759300  0.53208300  1
  C  581  1  0.16633100  0.35818600  0.53709500  1
  C  582  1  0.16640400  0.37888500  0.54291000  1
  C  583  1  0.19682700  0.38802300  0.54121300  1
  C  596  1  0.59056700  0.12596900  0.59836000  1
  C  597  1  0.62458100  0.13327900  0.59899000  1
  C  598  1  0.65188400  0.12031900  0.58718400  1
  C  599  1  0.64559100  0.09934600  0.57432600  1
  C  600  1  0.61151200  0.09169400  0.57326700  1
  C  601  1  0.58508700  0.10497200  0.58557100  1
  C  604  1  0.56160100  0.13917000  0.60867100  1
  C  605  1  0.56220400  0.15556100  0.62883900  1
  C  606  1  0.53188700  0.16705600  0.63838900  1
  C  607  1  0.49959700  0.16149300  0.62778500  1
  C  608  1  0.49968600  0.14662600  0.60708300  1
  C  609  1  0.53011500  0.13579500  0.59794700  1
  C  622  1  0.38617900  0.38583100  0.86196300  1
  C  623  1  0.35163200  0.38327300  0.85462700  1
  C  624  1  0.32363500  0.39467100  0.86710400  1
  C  625  1  0.32948100  0.40918500  0.88769700  1
  C  626  1  0.36373700  0.41184200  0.89559500  1
  C  627  1  0.39107900  0.40010900  0.88276400  1
  C  630  1  0.41544400  0.37608300  0.84854900  1
  C  631  1  0.41446700  0.35657900  0.83100400  1
  C  632  1  0.44379400  0.34794500  0.81818000  1
  C  633  1  0.47519900  0.35925900  0.82249900  1
  C  634  1  0.47628000  0.37872900  0.83974700  1
  C  635  1  0.44698200  0.38687200  0.85215500  1
  C  648  1  0.05290500  0.12398600  0.52723200  1
  C  649  1  0.01837800  0.13134600  0.53206200  1
  C  650  1  0.99033100  0.11884700  0.53086300  1
  C  651  1  0.99608500  0.09819600  0.52455900  1
  C  652  1  0.03033600  0.09029400  0.51933400  1
  C  653  1  0.05775800  0.10315500  0.52060400  1
  C  656  1  0.08218000  0.13739700  0.53091400  1
  C  657  1  0.08120000  0.15497200  0.52900500  1
  C  658  1  0.11054000  0.16779300  0.53320600  1
  C  659  1  0.14198000  0.16341200  0.54011200  1
  C  660  1  0.14306800  0.14612400  0.54226800  1
  C  661  1  0.11374400  0.13374100  0.53803100  1
  C  675  1  0.80862400  0.44591000  0.62677700  1
  C  676  1  0.80973700  0.44380300  0.60735400  1
  C  677  1  0.78041700  0.44805300  0.59921400  1
  C  684  1  0.27550400  0.45143100  0.49756200  1
  C  685  1  0.24861900  0.45096200  0.50993800  1
  C  687  1  0.24517700  0.43550700  0.51456500  1
  C  689  1  0.38634300  0.44499400  0.94888100  1
  C  690  1  0.35841600  0.45227800  0.96268200  1
  C  693  1  0.38362200  0.42755500  0.93009200  1
  C  695  1  0.24434800  0.40213700  0.84667300  1
  C  696  1  0.21858600  0.40239800  0.85993500  1
  C  698  1  0.17366900  0.41058400  0.84357900  1
  C  699  1  0.19790300  0.41005000  0.82932200  1
  C  700  1  0.23313100  0.40586000  0.83128200  1
  C  702  1  0.13863300  0.41685200  0.84485500  1
  C  703  1  0.12593800  0.43560500  0.86049100  1
  C  704  1  0.09067600  0.44039300  0.85954500  1
  C  705  1  0.06809900  0.42717800  0.84386500  1
  C  706  1  0.08276700  0.40888000  0.82888500  1
  C  715  1  0.03337300  0.43207000  0.84281700  1
  C  716  1  0.27965100  0.40186000  0.85054500  1
  C  719  1  0.57783000  0.42717700  0.58384400  1
  C  720  1  0.55203900  0.44009400  0.58345200  1
  C  722  1  0.50721100  0.41552800  0.57535700  1
  C  723  1  0.53147600  0.40188400  0.57601300  1
  C  724  1  0.56667800  0.40808600  0.58022400  1
  C  726  1  0.47217000  0.41048200  0.56912500  1
  C  727  1  0.45943300  0.40718300  0.55031300  1
  C  728  1  0.42419500  0.40136600  0.54555400  1
  C  729  1  0.40167800  0.39901800  0.55886300  1
  C  730  1  0.41637900  0.40251400  0.57721700  1
  C  740  1  0.36702700  0.39294400  0.55399700  1
  C  741  1  0.61314300  0.43136500  0.58422100  1
  C  744  1  0.91111000  0.13925600  0.55883300  1
  C  745  1  0.88526300  0.12603100  0.54588400  1
  C  747  1  0.84047800  0.14246400  0.57049100  1
  C  748  1  0.86480000  0.15668300  0.58417800  1
  C  749  1  0.90000800  0.15464800  0.57797700  1
  C  751  1  0.80544400  0.14127800  0.57553800  1
  C  752  1  0.79271300  0.12575600  0.57882500  1
  C  753  1  0.75748800  0.12682400  0.58466600  1
  C  754  1  0.73497500  0.14249100  0.58703500  1
  C  755  1  0.74967400  0.15735800  0.58355400  1
  C  766  1  0.70033000  0.14369400  0.59311300  1
  C  767  1  0.94638300  0.13531500  0.55465800  1
  C  770  1  0.57828200  0.42864800  0.86428100  1
  C  771  1  0.60375800  0.44309700  0.87553800  1
  C  773  1  0.64915600  0.42127500  0.85469100  1
  C  774  1  0.62468500  0.40602800  0.84270400  1
  C  775  1  0.58909600  0.41014600  0.84783400  1
  C  777  1  0.68518900  0.41992300  0.85070600  1
  C  778  1  0.71139100  0.42292100  0.86502600  1
  C  779  1  0.74643200  0.42257100  0.85924400  1
  C  780  1  0.75526600  0.41937400  0.83999400  1
  C  781  1  0.72798600  0.41633500  0.82650300  1
  C  791  1  0.78949900  0.41959600  0.83476100  1
  C  792  1  0.54556200  0.43238700  0.86902200  1
  C  795  1  0.91147300  0.41815500  0.55737500  1
  C  796  1  0.93695000  0.41500700  0.54293900  1
  C  798  1  0.98234400  0.41589100  0.56472200  1
  C  799  1  0.95787400  0.41911600  0.57995900  1
  C  800  1  0.92228300  0.42014200  0.57584900  1
  C  802  1  0.01836800  0.41321200  0.56604900  1
  C  803  1  0.04461300  0.42449300  0.56302200  1
  C  804  1  0.07963100  0.41898700  0.56330700  1
  C  805  1  0.08840800  0.40292000  0.56649200  1
  C  806  1  0.06108700  0.39251300  0.56956500  1
  C  817  1  0.12263800  0.39736000  0.56613700  1
  C  818  1  0.87875400  0.41917100  0.55364300  1
  C  821  1  0.24478200  0.12171500  0.56782600  1
  C  822  1  0.27025800  0.11045000  0.57100700  1
  C  824  1  0.31565300  0.13130900  0.57005000  1
  C  825  1  0.29118200  0.14331000  0.56681200  1
  C  826  1  0.25559300  0.13817700  0.56579500  1
  C  828  1  0.35167600  0.13532000  0.57274300  1
  C  829  1  0.37792400  0.12101700  0.56145500  1
  C  830  1  0.41294100  0.12681900  0.56694600  1
  C  831  1  0.42171300  0.14608000  0.58299600  1
  C  832  1  0.39439200  0.15955700  0.59340800  1
  C  843  1  0.45594600  0.15129300  0.58854300  1
  C  844  1  0.21206400  0.11697300  0.56682500  1
  C  847  1  0.81841500  0.43984700  0.70031400  1
  C  848  1  0.80475100  0.44299500  0.68489300  1
  C  850  1  0.85121500  0.44848500  0.76970100  1
  C  851  1  0.82797800  0.43571100  0.75427700  1
  C  857  1  0.85926800  0.44418000  0.78500300  1
  C  859  1  0.12553800  0.20922400  0.52402700  1
  C  860  1  0.12633300  0.21394800  0.50844500  1
  C  862  1  0.15205900  0.24661000  0.52967900  1
  C  863  1  0.15194400  0.24286700  0.54613500  1
  C  864  1  0.13824100  0.22429100  0.54294700  1
  C  866  1  0.16435600  0.26488800  0.53089700  1
  C  867  1  0.18746300  0.26637700  0.51711600  1
  C  868  1  0.19688200  0.28588100  0.52071300  1
  C  869  1  0.18468800  0.30371200  0.53762900  1
  C  870  1  0.16155800  0.30103800  0.55043200  1
  C  881  1  0.19265400  0.32332700  0.54193900  1
  C  882  1  0.11991200  0.18942300  0.51983900  1
  C  885  1  0.45866400  0.29731700  0.77670000  1
  C  886  1  0.45960200  0.27702400  0.77201600  1
  C  888  1  0.48526800  0.26556600  0.73933900  1
  C  889  1  0.48506500  0.28574900  0.74304100  1
  C  890  1  0.47138000  0.30114000  0.76161500  1
  C  892  1  0.49758400  0.24851100  0.72107300  1
  C  893  1  0.52083900  0.23330500  0.71959400  1
  C  894  1  0.53031500  0.21741700  0.70009600  1
  C  895  1  0.51799100  0.21644900  0.68226400  1
  C  896  1  0.49468900  0.23184800  0.68492600  1
  C  907  1  0.52603800  0.20117300  0.66265700  1
  C  908  1  0.45323900  0.31296500  0.79648600  1
  C  911  1  0.58532100  0.00051600  0.50380500  1
  C  912  1  0.61111400  0.00827400  0.51920300  1
  C  913  1  0.60871900  0.02878400  0.53455600  1
  C  914  1  0.58184400  0.04163100  0.53502300  1
  C  915  1  0.55723600  0.03284000  0.51925900  1
  C  921  1  0.57844800  0.06172000  0.55045900  1
  C  923  1  0.05339300  0.03713300  0.49932300  1
  C  924  1  0.02528700  0.02347900  0.49316600  1
  C  926  1  0.05858400  0.99883800  0.49663300  1
  C  927  1  0.08804400  0.01188200  0.50291900  1
  C  928  1  0.08483500  0.03083100  0.50393500  1
  C  935  1  0.05077100  0.05562600  0.50014300  1
  C  938  1  0.59241700  0.42454500  0.15946000  1
  C  939  1  0.62683400  0.41725800  0.15768600  1
  C  940  1  0.65454700  0.43000500  0.16923900  1
  C  941  1  0.64822100  0.45075900  0.18308300  1
  C  942  1  0.61386100  0.45843000  0.18525000  1
  C  943  1  0.58693200  0.44535000  0.17339300  1
  C  946  1  0.56335000  0.41124900  0.14931700  1
  C  947  1  0.56377000  0.39484600  0.12912400  1
  C  948  1  0.53359600  0.38309600  0.11973800  1
  C  949  1  0.50145000  0.38849900  0.13048000  1
  C  950  1  0.50171800  0.40332900  0.15119200  1
  C  951  1  0.53210000  0.41431100  0.16018600  1
  C  964  1  0.05580900  0.42348000  0.22827200  1
  C  965  1  0.02201600  0.41610000  0.22099000  1
  C  966  1  0.99456200  0.42907800  0.22250500  1
  C  967  1  0.00014600  0.45026500  0.23194600  1
  C  968  1  0.03410300  0.45798800  0.23873400  1
  C  969  1  0.06077700  0.44463300  0.23731500  1
  C  972  1  0.08489000  0.41013800  0.22494000  1
  C  973  1  0.08319600  0.39221100  0.22615900  1
  C  974  1  0.11281100  0.37978700  0.22281700  1
  C  975  1  0.14510000  0.38486000  0.21731700  1
  C  976  1  0.14681300  0.40254000  0.21585900  1
  C  977  1  0.11728500  0.41460600  0.21934800  1
  C  990  1  0.58988900  0.51179400  0.21755000  1
  C  991  1  0.61753700  0.52577900  0.22419600  1
  C  993  1  0.58486600  0.55055400  0.25250200  1
  C  994  1  0.55580900  0.53724800  0.24656900  1
  C  995  1  0.55894000  0.51803400  0.22895900  1
  C  1002  1  0.59272600  0.49272000  0.20057000  1
  C  1004  1  0.05836400  0.54896400  0.25918600  1
  C  1005  1  0.03318600  0.54135400  0.26731600  1
  C  1006  1  0.03583600  0.52090400  0.26237600  1
  C  1007  1  0.06235700  0.50794900  0.24971600  1
  C  1008  1  0.08628500  0.51657500  0.24220800  1
  C  1014  1  0.06619200  0.48790500  0.24518000  1
  C  1016  1  0.91628500  0.41515900  0.19315800  1
  C  1017  1  0.89780300  0.42680800  0.18669200  1
  C  1019  1  0.84432300  0.40998700  0.18460000  1
  C  1020  1  0.86116000  0.39749200  0.19081300  1
  C  1021  1  0.89728900  0.40044000  0.19509100  1
  C  1023  1  0.80822600  0.40969300  0.18085800  1
  C  1024  1  0.78499000  0.42497000  0.19416100  1
  C  1025  1  0.74975800  0.42338700  0.18819600  1
  C  1026  1  0.73756100  0.40768300  0.16942800  1
  C  1027  1  0.76221600  0.39295200  0.15720800  1
  C  1038  1  0.70281900  0.40646200  0.16347700  1
  C  1039  1  0.95126300  0.41918500  0.19804600  1
  C  1042  1  0.24692500  0.42692400  0.19010700  1
  C  1043  1  0.27238900  0.43846900  0.18733400  1
  C  1045  1  0.31787500  0.41754100  0.18807700  1
  C  1046  1  0.29342200  0.40528400  0.19094400  1
  C  1047  1  0.25779400  0.41029800  0.19183700  1
  C  1049  1  0.35393600  0.41363500  0.18546200  1
  C  1050  1  0.38006200  0.42796600  0.19687900  1
  C  1051  1  0.41512700  0.42230800  0.19138200  1
  C  1052  1  0.42407300  0.40316100  0.17519300  1
  C  1053  1  0.39686600  0.38963800  0.16466600  1
  C  1064  1  0.45834200  0.39811700  0.16960600  1
  C  1065  1  0.21416300  0.43155700  0.19100600  1
  C  1068  1  0.12669600  0.33856400  0.23246500  1
  C  1069  1  0.12662600  0.33411800  0.24824700  1
  C  1071  1  0.15352700  0.30164500  0.22784900  1
  C  1072  1  0.15431400  0.30510200  0.21121400  1
  C  1073  1  0.14049300  0.32346400  0.21389200  1
  C  1075  1  0.16585600  0.28360800  0.22713300  1
  C  1076  1  0.18835200  0.28255300  0.24139900  1
  C  1077  1  0.19791100  0.26323300  0.23826700  1
  C  1078  1  0.18642400  0.24517000  0.22136100  1
  C  1079  1  0.16386000  0.24742500  0.20806400  1
  C  1090  1  0.19458200  0.22571000  0.21747700  1
  C  1091  1  0.12095400  0.35823100  0.23631800  1
  C  1093  1  0.46008200  0.25104700  0.98297400  1
  C  1094  1  0.45997900  0.27127900  0.98744800  1
  C  1096  1  0.48697200  0.28330700  0.01988800  1
  C  1097  1  0.48778600  0.26320200  0.01639900  1
  C  1098  1  0.47390500  0.24753800  0.99804700  1
  C  1100  1  0.49933800  0.30061100  0.03792700  1
  C  1101  1  0.52175100  0.31596300  0.03898300  1
  C  1102  1  0.53131500  0.33214600  0.05830400  1
  C  1103  1  0.51992400  0.33326400  0.07636500  1
  C  1104  1  0.49744600  0.31767700  0.07410800  1
  C  1115  1  0.52802000  0.34884800  0.09582900  1
  C  1116  1  0.45415600  0.23523900  0.96331500  1
  C  1119  1  0.25888300  0.16214200  0.22967770  1
  C  1120  1  0.29326900  0.16379300  0.22403970  1
  C  1121  1  0.32094300  0.15224700  0.22527570  1
  C  1122  1  0.31462700  0.13854100  0.23235770  1
  C  1123  1  0.28029500  0.13647500  0.23795900  1
  C  1124  1  0.25337400  0.14829900  0.23666170  1
  C  1127  1  0.22983100  0.17224100  0.22646270  1
  C  1128  1  0.23023100  0.19242700  0.23023570  1
  C  1129  1  0.20007800  0.20176900  0.22778070  1
  C  1130  1  0.16797800  0.19097800  0.22235170  1
  C  1131  1  0.16829300  0.17027300  0.21649570  1
  C  1132  1  0.19864100  0.16132600  0.21859370  1
  C  1143  1  0.38893300  0.16201700  0.89822100  1
  C  1144  1  0.35508200  0.16216400  0.90555700  1
  C  1145  1  0.32764400  0.15074200  0.89253900  1
  C  1146  1  0.33333333  0.13901800  0.87135600  1
  C  1147  1  0.36731000  0.13804000  0.86368500  1
  C  1148  1  0.39398200  0.14991300  0.87707900  1
  C  1151  1  0.41798500  0.17195300  0.91160500  1
  C  1152  1  0.41635600  0.19113900  0.92948100  1
  C  1153  1  0.44595800  0.20016600  0.94193300  1
  C  1154  1  0.47815400  0.18950500  0.93693400  1
  C  1155  1  0.47977800  0.17031100  0.91932100  1
  C  1156  1  0.45027100  0.16179000  0.90722200  1
  C  1169  1  0.25930900  0.12166300  0.25747800  1
  C  1171  1  0.24923500  0.13528700  0.90623700  1
  C  1172  1  0.17723900  0.13196300  0.91135500  1
  C  1173  1  0.19434300  0.15045600  0.92430000  1
  C  1174  1  0.23048300  0.15176700  0.92136200  1
  C  1176  1  0.14114300  0.12852400  0.91170600  1
  C  1177  1  0.11782100  0.12647500  0.89643400  1
  C  1178  1  0.08268100  0.12192100  0.89798600  1
  C  1179  1  0.09535000  0.12142400  0.92843300  1
  C  1189  1  0.28424200  0.13612000  0.90229800  1
  C  1191  1  0.58273800  0.12807100  0.18639470  1
  C  1192  1  0.56408200  0.13420400  0.20439470  1
  C  1194  1  0.51080400  0.13668500  0.18973070  1
  C  1195  1  0.52782500  0.13081600  0.17114370  1
  C  1196  1  0.56393700  0.12648900  0.16983070  1
  C  1198  1  0.47470600  0.14045400  0.19315070  1
  C  1199  1  0.45139100  0.12716400  0.19509470  1
  C  1200  1  0.41622000  0.13322000  0.19959270  1
  C  1201  1  0.40414400  0.15204400  0.20275170  1
  C  1202  1  0.42885600  0.16424500  0.20025170  1
  C  1210  1  0.36947700  0.15809400  0.20766870  1
  C  1211  1  0.61767800  0.12313600  0.18555070  1
  C  1214  1  0.58036100  0.12026200  0.89458900  1
  C  1215  1  0.65133600  0.12763500  0.90387600  1
  C  1216  1  0.62690900  0.14278000  0.91612300  1
  C  1217  1  0.59126800  0.13865400  0.91115500  1
  C  1219  1  0.68742100  0.12894500  0.90772100  1
  C  1220  1  0.71344300  0.12603200  0.89333500  1
  C  1221  1  0.74855900  0.12625100  0.89894200  1
  C  1222  1  0.75764400  0.12927200  0.91809500  1
  C  1223  1  0.73054000  0.13228400  0.93167800  1
  C  1233  1  0.79193900  0.12886100  0.92312900  1
  C  1235  1  0.91373900  0.13148800  0.20124370  1
  C  1236  1  0.93919000  0.13430900  0.21558470  1
  C  1238  1  0.98470400  0.13344300  0.19387170  1
  C  1239  1  0.96026200  0.13053900  0.17872970  1
  C  1240  1  0.92462900  0.12967200  0.18285370  1
  C  1242  1  0.02077900  0.13600000  0.19255770  1
  C  1243  1  0.04684300  0.12454500  0.19546370  1
  C  1244  1  0.08193800  0.12995800  0.19523970  1
  C  1245  1  0.09096700  0.14611800  0.19225270  1
  C  1246  1  0.06382000  0.15668900  0.18927370  1
  C  1254  1  0.12524700  0.15158900  0.19265970  1
  C  1255  1  0.88097200  0.13061600  0.20498270  1
  C  1264  1  0.07064600  0.11881600  0.91369300  1
  C  1265  1  0.92370900  0.02531500  0.62583800  1
  C  1266  1  0.97872000  0.02807200  0.65254600  1
  C  1267  1  0.94458700  0.03457300  0.66015400  1
  C  1268  1  0.91816100  0.03350600  0.64683100  1
  C  1270  1  0.89537900  0.02613200  0.59619500  1
  C  1271  1  0.86511500  0.02407300  0.58461600  1
  C  1279  1  0.92554200  0.09179900  0.89682100  1
  C  1280  1  0.95992100  0.09740800  0.90413600  1
  C  1281  1  0.98769800  0.09600700  0.89134400  1
  C  1282  1  0.98150700  0.08873900  0.87051100  1
  C  1283  1  0.94717500  0.08319200  0.86283000  1
  C  1284  1  0.92012400  0.08469200  0.87596300  1
  C  1287  1  0.89645300  0.09505100  0.91012200  1
  C  1288  1  0.89679900  0.09131800  0.92656300  1
  C  1289  1  0.86661500  0.09378600  0.93834000  1
  C  1290  1  0.83454600  0.09920900  0.93294300  1
  C  1291  1  0.83490700  0.10501400  0.91805600  1
  C  1292  1  0.86527900  0.10288100  0.90701400  1
  C  1306  1  0.72243300  0.09318400  0.15953070  1
  C  1307  1  0.68860100  0.10042700  0.15944270  1
  C  1308  1  0.66116000  0.09881900  0.17085870  1
  C  1309  1  0.66680400  0.08931400  0.18254070  1
  C  1310  1  0.70081500  0.08261100  0.18350600  1
  C  1311  1  0.72748400  0.08414100  0.17163470  1
  C  1314  1  0.75146600  0.09660300  0.14955770  1
  C  1315  1  0.74976600  0.09535300  0.13039870  1
  C  1316  1  0.77933600  0.09876700  0.12133670  1
  C  1317  1  0.81156600  0.10440100  0.13196570  1
  C  1318  1  0.81327600  0.10591400  0.15112870  1
  C  1319  1  0.78380700  0.10232100  0.15966870  1
  C  1332  1  0.71956500  0.02888700  0.36573200  1
  C  1333  1  0.68503900  0.02401200  0.36820600  1
  C  1334  1  0.65700000  0.02527200  0.35693500  1
  C  1335  1  0.66278100  0.03165600  0.34265300  1
  C  1336  1  0.69703500  0.03690900  0.34001800  1
  C  1337  1  0.72444200  0.03560000  0.35159800  1
  C  1339  1  0.74883500  0.02520800  0.37546900  1
  C  1340  1  0.74783100  0.02707200  0.39493400  1
  C  1341  1  0.77717300  0.02287500  0.40355400  1
  C  1348  1  0.92302200  0.06233400  0.80978100  1
  C  1349  1  0.95100100  0.05570700  0.79602500  1
  C  1351  1  0.91810400  0.05928700  0.77133700  1
  C  1352  1  0.88876700  0.06603100  0.78446800  1
  C  1353  1  0.89182600  0.06722200  0.80350400  1
  C  1355  1  0.91849100  0.05617900  0.75133900  1
  C  1356  1  0.94412600  0.06394800  0.74362000  1
  C  1357  1  0.94171300  0.05881700  0.72311300  1
  C  1358  1  0.91498800  0.04631900  0.71021900  1
  C  1359  1  0.89055800  0.03919700  0.71895900  1
  C  1370  1  0.91155300  0.04167700  0.69013000  1
  C  1371  1  0.92559100  0.06333500  0.82834900  1
  C  1374  1  0.25666400  0.10432200  0.25899900  1
  C  1375  1  0.28444700  0.09746400  0.26603700  1
  C  1377  1  0.25172700  0.06912300  0.26239100  1
  C  1378  1  0.22256600  0.07524300  0.25526500  1
  C  1379  1  0.22563500  0.09298800  0.25389900  1
  C  1381  1  0.25214300  0.05227400  0.26555600  1
  C  1382  1  0.27792600  0.03687100  0.25791700  1
  C  1383  1  0.22402400  0.03680400  0.28240900  1
  C  1394  1  0.39166600  0.05046800  0.75281900  1
  C  1395  1  0.42096200  0.04392000  0.73965500  1
  C  1396  1  0.41768300  0.02609300  0.72062600  1
  C  1397  1  0.39146400  0.06744200  0.77277300  1
  C  1398  1  0.36623400  0.08315300  0.78040600  1
  C  1399  1  0.36892100  0.09866400  0.80084800  1
  C  1400  1  0.39555600  0.09900100  0.81376600  1
  C  1401  1  0.41955700  0.08290400  0.80510800  1
  C  1411  1  0.39940900  0.11450400  0.83380600  1
  C  1413  1  0.72015500  0.05688600  0.30691300  1
  C  1414  1  0.69200700  0.06293200  0.29934100  1
  C  1416  1  0.72532000  0.05941800  0.27121600  1
  C  1417  1  0.75480900  0.05322100  0.27803900  1
  C  1418  1  0.75162400  0.05230200  0.29602700  1
  C  1420  1  0.72510200  0.06233800  0.25419500  1
  C  1421  1  0.69986700  0.05425100  0.23848600  1
  C  1422  1  0.70246500  0.05922200  0.22299600  1
  C  1423  1  0.72900700  0.07186100  0.22267600  1
  C  1424  1  0.75301400  0.07930900  0.23877100  1
  C  1435  1  0.73269900  0.07647500  0.20720700  1
  C  1436  1  0.71756700  0.05626800  0.32469000  1
  C  1442  1  0.23051400  0.11737200  0.89414800  1
  C  1445  1  0.03600500  0.11386600  0.91482000  1
  C  1451  1  0.60580100  0.10592000  0.88305700  1
  C  1454  1  0.54758800  0.11652300  0.88999600  1
  C  1459  1  0.79208100  0.03197200  0.45418000  1
  C  1460  1  0.79294000  0.04759900  0.47446900  1
  C  1462  1  0.81858500  0.02641500  0.48598600  1
  C  1463  1  0.83086500  0.02523600  0.50306900  1
  C  1464  1  0.85406300  0.03899400  0.51829600  1
  C  1465  1  0.86349800  0.03542300  0.53421800  1
  C  1471  1  0.78660900  0.03612100  0.43853700  1
  C  1473  1  0.79327900  0.08908800  0.07047800  1
  C  1474  1  0.79317300  0.07332000  0.05024400  1
  C  1476  1  0.82011600  0.09371600  0.03817900  1
  C  1477  1  0.82096000  0.11033600  0.05828100  1
  C  1478  1  0.80709000  0.10766200  0.07395900  1
  C  1479  1  0.83243000  0.09444300  0.02085600  1
  C  1480  1  0.85476500  0.08012500  0.00546600  1
  C  1481  1  0.86429100  0.08326400  0.98927800  1
  C  1482  1  0.85295300  0.10023200  0.98818900  1
  C  1483  1  0.83053600  0.11357700  0.00380400  1
  C  1490  1  0.86102200  0.10411400  0.97260000  1
  C  1491  1  0.78748100  0.08521300  0.08627966  1
  C  1494  1  0.95776000  0.01867800  0.61857100  1
  C  1495  1  0.98505800  0.01992600  0.63157400  1
  C  1497  1  0.89478000  0.02235300  0.61258800  1
  C  1498  1  0.83285500  0.01894300  0.59012300  1
  C  1499  1  0.83296300  0.01311300  0.60499500  1
  C  1500  1  0.86335100  0.01490600  0.61589500  1
  C  1506  1  0.25727400  0.95769630  0.29646730  1
  C  1507  1  0.29129100  0.95707530  0.30315130  1
  C  1508  1  0.31858900  0.96888530  0.30199630  1
  C  1509  1  0.31229300  0.98173330  0.29387030  1
  C  1510  1  0.27821100  0.98278630  0.28727330  1
  C  1511  1  0.25178900  0.97048230  0.28825430  1
  C  1514  1  0.22831900  0.94737730  0.29935930  1
  C  1515  1  0.22893500  0.92721630  0.29561130  1
  C  1516  1  0.19863300  0.91766530  0.29757730  1
  C  1517  1  0.16633100  0.92825830  0.30258930  1
  C  1518  1  0.16640400  0.94895730  0.30840430  1
  C  1519  1  0.19682700  0.95809530  0.30670730  1
  C  1532  1  0.59056700  0.69604100  0.36385400  1
  C  1533  1  0.62458100  0.70335100  0.36448400  1
  C  1534  1  0.65188400  0.69039100  0.35267800  1
  C  1535  1  0.64559100  0.66941800  0.33982000  1
  C  1536  1  0.61151200  0.66176600  0.33876100  1
  C  1537  1  0.58508700  0.67504400  0.35106500  1
  C  1540  1  0.56160100  0.70924200  0.37416500  1
  C  1541  1  0.56220400  0.72563300  0.39433300  1
  C  1542  1  0.53188700  0.73712800  0.40388300  1
  C  1543  1  0.49959700  0.73156500  0.39327900  1
  C  1544  1  0.49968600  0.71669800  0.37257700  1
  C  1545  1  0.53011500  0.70586700  0.36344100  1
  C  1558  1  0.38617900  0.95590330  0.62745730  1
  C  1559  1  0.35163200  0.95334530  0.62012130  1
  C  1560  1  0.32363500  0.96474330  0.63259830  1
  C  1561  1  0.32948100  0.97925730  0.65319130  1
  C  1562  1  0.36373700  0.98191430  0.66108930  1
  C  1563  1  0.39107900  0.97018130  0.64825830  1
  C  1566  1  0.41544400  0.94615530  0.61404330  1
  C  1567  1  0.41446700  0.92665130  0.59649830  1
  C  1568  1  0.44379400  0.91801730  0.58367430  1
  C  1569  1  0.47519900  0.92933130  0.58799330  1
  C  1570  1  0.47628000  0.94880130  0.60524130  1
  C  1571  1  0.44698200  0.95694430  0.61764930  1
  C  1584  1  0.05290500  0.69405800  0.29272600  1
  C  1585  1  0.01837800  0.70141800  0.29755600  1
  C  1586  1  0.99033100  0.68891900  0.29635700  1
  C  1587  1  0.99608500  0.66826800  0.29005300  1
  C  1588  1  0.03033600  0.66036600  0.28482800  1
  C  1589  1  0.05775800  0.67322700  0.28609800  1
  C  1592  1  0.08218000  0.70746900  0.29640800  1
  C  1593  1  0.08120000  0.72504400  0.29449900  1
  C  1594  1  0.11054000  0.73786500  0.29870000  1
  C  1595  1  0.14198000  0.73348400  0.30560600  1
  C  1596  1  0.14306800  0.71619600  0.30776200  1
  C  1597  1  0.11374400  0.70381300  0.30352500  1
  C  1611  1  0.80862400  0.01598200  0.39227100  1
  C  1612  1  0.80973700  0.01387500  0.37284800  1
  C  1613  1  0.78041700  0.01812500  0.36470800  1
  C  1620  1  0.27550400  0.02150300  0.26305600  1
  C  1621  1  0.24861900  0.02103400  0.27543200  1
  C  1623  1  0.24517700  0.00557900  0.28005900  1
  C  1625  1  0.38634300  0.01506600  0.71437500  1
  C  1626  1  0.35841600  0.02235000  0.72817600  1
  C  1629  1  0.38362200  0.99762735  0.69558635  1
  C  1631  1  0.24434800  0.97220930  0.61216730  1
  C  1632  1  0.21858600  0.97247030  0.62542930  1
  C  1634  1  0.17366900  0.98065630  0.60907330  1
  C  1635  1  0.19790300  0.98012230  0.59481630  1
  C  1636  1  0.23313100  0.97593230  0.59677630  1
  C  1638  1  0.13863300  0.98692430  0.61034930  1
  C  1639  1  0.12593800  0.00567700  0.62598500  1
  C  1640  1  0.09067600  0.01046500  0.62503900  1
  C  1641  1  0.06809900  0.99725035  0.60935935  1
  C  1642  1  0.08276700  0.97895230  0.59437930  1
  C  1651  1  0.03337300  0.00214200  0.60831100  1
  C  1652  1  0.27965100  0.97193230  0.61603930  1
  C  1655  1  0.57783000  0.99724935  0.34933835  1
  C  1656  1  0.55203900  0.01016600  0.34894600  1
  C  1658  1  0.50721100  0.98560030  0.34085130  1
  C  1659  1  0.53147600  0.97195630  0.34150730  1
  C  1660  1  0.56667800  0.97815830  0.34571830  1
  C  1662  1  0.47217000  0.98055430  0.33461930  1
  C  1663  1  0.45943300  0.97725530  0.31580730  1
  C  1664  1  0.42419500  0.97143830  0.31104830  1
  C  1665  1  0.40167800  0.96909030  0.32435730  1
  C  1666  1  0.41637900  0.97258630  0.34271130  1
  C  1676  1  0.36702700  0.96301630  0.31949130  1
  C  1677  1  0.61314300  0.00143700  0.34971500  1
  C  1680  1  0.91111000  0.70932800  0.32432700  1
  C  1681  1  0.88526300  0.69610300  0.31137800  1
  C  1683  1  0.84047800  0.71253600  0.33598500  1
  C  1684  1  0.86480000  0.72675500  0.34967200  1
  C  1685  1  0.90000800  0.72472000  0.34347100  1
  C  1687  1  0.80544400  0.71135000  0.34103200  1
  C  1688  1  0.79271300  0.69582800  0.34431900  1
  C  1689  1  0.75748800  0.69689600  0.35016000  1
  C  1690  1  0.73497500  0.71256300  0.35252900  1
  C  1691  1  0.74967400  0.72743000  0.34904800  1
  C  1702  1  0.70033000  0.71376600  0.35860700  1
  C  1703  1  0.94638300  0.70538700  0.32015200  1
  C  1706  1  0.57828200  0.99872035  0.62977535  1
  C  1707  1  0.60375800  0.01316900  0.64103200  1
  C  1709  1  0.64915600  0.99134735  0.62018535  1
  C  1710  1  0.62468500  0.97610030  0.60819830  1
  C  1711  1  0.58909600  0.98021830  0.61332830  1
  C  1713  1  0.68518900  0.98999530  0.61620030  1
  C  1714  1  0.71139100  0.99299335  0.63052035  1
  C  1715  1  0.74643200  0.99264335  0.62473835  1
  C  1716  1  0.75526600  0.98944630  0.60548830  1
  C  1717  1  0.72798600  0.98640730  0.59199730  1
  C  1727  1  0.78949900  0.98966830  0.60025530  1
  C  1728  1  0.54556200  0.00245900  0.63451600  1
  C  1731  1  0.91147300  0.98822730  0.32286930  1
  C  1732  1  0.93695000  0.98507930  0.30843330  1
  C  1734  1  0.98234400  0.98596330  0.33021630  1
  C  1735  1  0.95787400  0.98918830  0.34545330  1
  C  1736  1  0.92228300  0.99021435  0.34134335  1
  C  1738  1  0.01836800  0.98328430  0.33154330  1
  C  1739  1  0.04461300  0.99456535  0.32851635  1
  C  1740  1  0.07963100  0.98905930  0.32880130  1
  C  1741  1  0.08840800  0.97299230  0.33198630  1
  C  1742  1  0.06108700  0.96258530  0.33505930  1
  C  1753  1  0.12263800  0.96743230  0.33163130  1
  C  1754  1  0.87875400  0.98924330  0.31913730  1
  C  1757  1  0.24478200  0.69178700  0.33332000  1
  C  1758  1  0.27025800  0.68052200  0.33650100  1
  C  1760  1  0.31565300  0.70138100  0.33554400  1
  C  1761  1  0.29118200  0.71338200  0.33230600  1
  C  1762  1  0.25559300  0.70824900  0.33128900  1
  C  1764  1  0.35167600  0.70539200  0.33823700  1
  C  1765  1  0.37792400  0.69108900  0.32694900  1
  C  1766  1  0.41294100  0.69689100  0.33244000  1
  C  1767  1  0.42171300  0.71615200  0.34849000  1
  C  1768  1  0.39439200  0.72962900  0.35890200  1
  C  1779  1  0.45594600  0.72136500  0.35403700  1
  C  1780  1  0.21206400  0.68704500  0.33231900  1
  C  1783  1  0.81841500  0.00991900  0.46580800  1
  C  1784  1  0.80475100  0.01306700  0.45038700  1
  C  1786  1  0.85121500  0.01855700  0.53519500  1
  C  1787  1  0.82797800  0.00578300  0.51977100  1
  C  1793  1  0.85926800  0.01425200  0.55049700  1
  C  1795  1  0.12553800  0.77929600  0.28952100  1
  C  1796  1  0.12633300  0.78402000  0.27393900  1
  C  1798  1  0.15205900  0.81668200  0.29517300  1
  C  1799  1  0.15194400  0.81293900  0.31162900  1
  C  1800  1  0.13824100  0.79436300  0.30844100  1
  C  1802  1  0.16435600  0.83496000  0.29639100  1
  C  1803  1  0.18746300  0.83644900  0.28261000  1
  C  1804  1  0.19688200  0.85595300  0.28620700  1
  C  1805  1  0.18468800  0.87378400  0.30312300  1
  C  1806  1  0.16155800  0.87111000  0.31592600  1
  C  1817  1  0.19265400  0.89339900  0.30743300  1
  C  1818  1  0.11991200  0.75949500  0.28533300  1
  C  1821  1  0.45866400  0.86738900  0.54219400  1
  C  1822  1  0.45960200  0.84709600  0.53751000  1
  C  1824  1  0.48526800  0.83563800  0.50483300  1
  C  1825  1  0.48506500  0.85582100  0.50853500  1
  C  1826  1  0.47138000  0.87121200  0.52710900  1
  C  1828  1  0.49758400  0.81858300  0.48656700  1
  C  1829  1  0.52083900  0.80337700  0.48508800  1
  C  1830  1  0.53031500  0.78748900  0.46559000  1
  C  1831  1  0.51799100  0.78652100  0.44775800  1
  C  1832  1  0.49468900  0.80192000  0.45042000  1
  C  1843  1  0.52603800  0.77124500  0.42815100  1
  C  1844  1  0.45323900  0.88303700  0.56198000  1
  C  1847  1  0.58532100  0.57058800  0.26929900  1
  C  1848  1  0.61111400  0.57834600  0.28469700  1
  C  1849  1  0.60871900  0.59885600  0.30005000  1
  C  1850  1  0.58184400  0.61170300  0.30051700  1
  C  1851  1  0.55723600  0.60291200  0.28475300  1
  C  1857  1  0.57844800  0.63179200  0.31595300  1
  C  1859  1  0.05339300  0.60720500  0.26481700  1
  C  1860  1  0.02528700  0.59355100  0.25866000  1
  C  1862  1  0.05858400  0.56891000  0.26212700  1
  C  1863  1  0.08804400  0.58195400  0.26841300  1
  C  1864  1  0.08483500  0.60090300  0.26942900  1
  C  1871  1  0.05077100  0.62569800  0.26563700  1
  N  1  1  0.20052000  0.65072300  0.46558800  1
  N  9  1  0.67444800  0.89313700  0.42916700  1
  N  16  1  0.47070200  0.80988800  0.35574600  1
  N  24  1  0.47362000  0.83837200  0.39721200  1
  N  25  1  0.53406700  0.79728100  0.33522700  1
  N  26  1  0.60614400  0.90785300  0.43620300  1
  N  27  1  0.68647500  0.85311300  0.40357700  1
  N  35  1  0.97343200  0.89292600  0.46878600  1
  N  42  1  0.17396000  0.80295200  0.44761300  1
  N  50  1  0.17430300  0.83785900  0.44559200  1
  N  51  1  0.11071900  0.79213900  0.45714600  1
  N  52  1  0.03997000  0.90767300  0.48080300  1
  N  53  1  0.96351800  0.85123600  0.44913800  1
  N  56  1  0.61397500  0.97406100  0.47540600  1
  N  63  1  0.52585100  0.97182000  0.49189300  1
  N  73  1  0.08332600  0.96601700  0.48148800  1
  N  76  1  0.00764200  0.98290200  0.51461600  1
  N  82  1  0.86327900  0.85392400  0.41742900  1
  N  92  1  0.79586500  0.82443400  0.39765400  1
  N  96  1  0.79506500  0.87060100  0.44670500  1
  N  99  1  0.84385200  0.81332400  0.42771400  1
  N  108  1  0.30627100  0.86322700  0.42077300  1
  N  118  1  0.36349000  0.82530700  0.40445400  1
  N  122  1  0.37291700  0.87634300  0.44738000  1
  N  125  1  0.30276500  0.81942600  0.42781700  1
  N  134  1  0.13941500  0.74626500  0.47987100  1
  N  144  1  0.15468000  0.69582400  0.44592500  1
  N  148  1  0.20201900  0.72910500  0.49193700  1
  N  151  1  0.16960000  0.72219100  0.42779900  1
  N  159  1  0.47279600  0.71608800  0.23973500  1
  N  169  1  0.48825100  0.73249900  0.29014300  1
  N  173  1  0.53528800  0.74534800  0.25686000  1
  N  176  1  0.50310800  0.68802300  0.26371600  1
  N  190  1  0.34083600  0.55693200  0.46782600  1
  N  197  1  0.13722500  0.63008700  0.45743400  1
  N  204  1  0.14022600  0.58866000  0.44453500  1
  N  205  1  0.27261200  0.55017000  0.47585100  1
  N  206  1  0.35279600  0.58218400  0.45298100  1
  N  214  1  0.30659000  0.55860900  0.09308800  1
  N  221  1  0.50701000  0.62703900  0.18328400  1
  N  229  1  0.50717200  0.58998200  0.14852300  1
  N  230  1  0.44390300  0.64755000  0.19395700  1
  N  231  1  0.37323400  0.55578000  0.07844300  1
  N  232  1  0.29656600  0.58055800  0.13477700  1
  N  244  1  0.12892800  0.55584800  0.16137700  1
  N  247  1  0.12771200  0.55885600  0.11528000  1
  N  250  1  0.17727800  0.59671100  0.17332100  1
  N  257  1  0.52957900  0.56793600  0.43983000  1
  N  267  1  0.46246000  0.58815900  0.43029800  1
  N  271  1  0.51070500  0.55870100  0.38924500  1
  N  288  1  0.69711800  0.56170300  0.16049400  1
  N  291  1  0.70614700  0.55343100  0.10937800  1
  N  294  1  0.63628100  0.59089600  0.16635200  1
  N  301  1  0.97308200  0.56525900  0.44597400  1
  N  311  1  0.03041600  0.58140100  0.42427600  1
  N  315  1  0.96962100  0.55800800  0.39504900  1
  N  324  1  0.83625900  0.55818300  0.29786800  1
  N  333  1  0.00481300  0.45921500  0.89973000  1
  N  341  1  0.86562400  0.45753000  0.80355200  1
  N  342  1  0.93843100  0.47152700  0.91429400  1
  N  350  1  0.00784200  0.51744500  0.09247500  1
  N  357  1  0.80376000  0.52857900  0.17603300  1
  N  365  1  0.80686000  0.54139400  0.14745300  1
  N  366  1  0.86701800  0.52043800  0.18859100  1
  N  367  1  0.93979100  0.50940200  0.07756600  1
  N  368  1  0.01956300  0.53270100  0.13266300  1
  N  377  1  0.64009600  0.51678100  0.42736700  1
  N  384  1  0.84038200  0.53860100  0.35886400  1
  N  392  1  0.84071300  0.54075000  0.39585200  1
  N  393  1  0.77721100  0.52883500  0.33842600  1
  N  394  1  0.70673200  0.50491000  0.43014100  1
  N  395  1  0.63008400  0.53660000  0.40548400  1
  N  402  1  0.63606600  0.46222600  0.56575000  1
  N  410  1  0.77520200  0.45273700  0.65552600  1
  N  411  1  0.70390000  0.47008400  0.55811000  1
  N  414  1  0.94745400  0.48428600  0.01230600  1
  N  424  1  0.89330800  0.47406500  0.97303600  1
  N  428  1  0.96990600  0.50650000  0.98968000  1
  N  431  1  0.85852100  0.50185600  0.01430900  1
  N  440  1  0.28091400  0.51059000  0.50202300  1
  N  448  1  0.22678300  0.48136300  0.51197400  1
  N  451  1  0.30386200  0.46580100  0.47991400  1
  N  454  1  0.19250100  0.49444400  0.48368200  1
  N  457  1  0.36214500  0.46915700  0.98089600  1
  N  466  1  0.41655600  0.49808200  0.02010600  1
  N  469  1  0.34056600  0.51420000  0.00332500  1
  N  472  1  0.45138100  0.48424600  0.97878100  1
  N  479  1  0.69568600  0.49399800  0.51685500  1
  N  489  1  0.75008700  0.50444700  0.48800800  1
  N  493  1  0.67429700  0.47140500  0.47183300  1
  N  496  1  0.78538500  0.47756300  0.50229300  1
  N  507  1  0.19598800  0.54637200  0.13147200  1
  N  511  1  0.46133000  0.53897700  0.42712100  1
  N  516  1  0.63970100  0.53996600  0.12268000  1
  N  520  1  0.03960600  0.53850900  0.43246000  1
  N  525  1  0.80551800  0.47419400  0.72362800  1
  N  532  1  0.86851200  0.48486100  0.75235400  1
  N  539  1  0.80595800  0.50613800  0.26985700  1
  N  548  1  0.82137300  0.54013900  0.25342200  1
  N  551  1  0.86831700  0.49396000  0.24049400  1
  N  565  1  0.80211300  0.44974000  0.81618000  1
  N  568  1  0.80467400  0.43693000  0.84475800  1
  N  569  1  0.01722500  0.44366300  0.85946400  1
  N  577  1  0.33838000  0.42317900  0.52725000  1
  N  584  1  0.13558800  0.34882000  0.53610900  1
  N  592  1  0.13809000  0.39023200  0.54893600  1
  N  593  1  0.19916100  0.32850600  0.52858700  1
  N  594  1  0.27209000  0.42532400  0.51475200  1
  N  595  1  0.35071200  0.39843700  0.54277700  1
  N  603  1  0.67168100  0.08670600  0.56280600  1
  N  610  1  0.46885200  0.16986400  0.63714400  1
  N  618  1  0.47136400  0.14127700  0.59574500  1
  N  619  1  0.53239600  0.18263000  0.65747900  1
  N  620  1  0.60537700  0.07206300  0.56065000  1
  N  621  1  0.68400400  0.12697500  0.58756700  1
  N  629  1  0.30283000  0.42079000  0.89964300  1
  N  636  1  0.50374200  0.35203700  0.81031400  1
  N  644  1  0.50286400  0.38964200  0.84431400  1
  N  645  1  0.44179600  0.33046900  0.80067400  1
  N  646  1  0.37083100  0.42854700  0.91504300  1
  N  647  1  0.29172800  0.39280600  0.85956300  1
  N  655  1  0.96935100  0.08618400  0.52397300  1
  N  662  1  0.17055300  0.17556900  0.54504100  1
  N  670  1  0.16969100  0.14149800  0.54852900  1
  N  671  1  0.10855500  0.18529100  0.53321000  1
  N  672  1  0.03720800  0.07068300  0.51622100  1
  N  673  1  0.95844000  0.12640100  0.53658200  1
  N  678  1  0.83718400  0.44094600  0.63398500  1
  N  682  1  0.83637300  0.43757100  0.59647600  1
  N  683  1  0.62509300  0.44946100  0.59322000  1
  N  697  1  0.18513800  0.40683000  0.85813400  1
  N  707  1  0.11663800  0.40451200  0.82986000  1
  N  710  1  0.14619200  0.44919500  0.87581100  1
  N  712  1  0.18903500  0.41429600  0.81469100  1
  N  721  1  0.51860900  0.43382300  0.57903000  1
  N  731  1  0.45023200  0.40792200  0.58155000  1
  N  734  1  0.47963000  0.40882800  0.53665300  1
  N  737  1  0.52266000  0.38303900  0.57189000  1
  N  746  1  0.85183800  0.12788900  0.55216600  1
  N  756  1  0.78352100  0.15627900  0.57813100  1
  N  760  1  0.81290800  0.11044300  0.57716100  1
  N  763  1  0.85603400  0.17133400  0.60306300  1
  N  772  1  0.63760700  0.43896900  0.87028900  1
  N  782  1  0.69463700  0.41694200  0.83234800  1
  N  785  1  0.70433600  0.42560400  0.88357400  1
  N  788  1  0.63399200  0.38775400  0.82709700  1
  N  797  1  0.97079400  0.41385500  0.54705200  1
  N  807  1  0.02775800  0.39780700  0.56900000  1
  N  811  1  0.03762400  0.44037700  0.56036100  1
  N  814  1  0.96718100  0.42170600  0.59820300  1
  N  823  1  0.30410600  0.11570500  0.57213800  1
  N  833  1  0.36106400  0.15368900  0.58812600  1
  N  837  1  0.37093500  0.10246400  0.54558400  1
  N  840  1  0.30048700  0.15893200  0.56417000  1
  N  852  1  0.81893800  0.43948900  0.73942000  1
  N  854  1  0.83268000  0.42159500  0.69489200  1
  N  861  1  0.13892100  0.23194500  0.51182200  1
  N  871  1  0.15251800  0.28239500  0.54662600  1
  N  875  1  0.20178700  0.24999900  0.50111100  1
  N  878  1  0.16624000  0.25565500  0.56439000  1
  N  887  1  0.47221400  0.26239300  0.75403200  1
  N  897  1  0.48562400  0.24668000  0.70356500  1
  N  901  1  0.53530600  0.23374600  0.73597300  1
  N  904  1  0.49932700  0.29120200  0.73023400  1
  N  916  1  0.55996100  0.01326200  0.50463900  1
  N  919  1  0.63704000  0.99675800  0.52020400  1
  N  925  1  0.02897200  0.00532200  0.49196500  1
  N  932  1  0.11858200  0.00722300  0.50854600  1
  N  937  1  0.20052000  0.22079500  0.23108170  1
  N  945  1  0.67444800  0.46320900  0.19466100  1
  N  952  1  0.47070200  0.37996000  0.12124000  1
  N  960  1  0.47362000  0.40844400  0.16270600  1
  N  961  1  0.53406700  0.36735300  0.10072100  1
  N  962  1  0.60614400  0.47792500  0.20169700  1
  N  963  1  0.68647500  0.42318500  0.16907100  1
  N  971  1  0.97343200  0.46299800  0.23428000  1
  N  978  1  0.17396000  0.37302400  0.21310700  1
  N  986  1  0.17430300  0.40793100  0.21108600  1
  N  987  1  0.11071900  0.36221100  0.22264000  1
  N  988  1  0.03997000  0.47774500  0.24629700  1
  N  989  1  0.96351800  0.42130800  0.21463200  1
  N  992  1  0.61397500  0.54413300  0.24090000  1
  N  999  1  0.52585100  0.54189200  0.25738700  1
  N  1009  1  0.08332600  0.53608900  0.24698200  1
  N  1012  1  0.00764200  0.55297400  0.28011000  1
  N  1018  1  0.86327900  0.42399600  0.18292300  1
  N  1028  1  0.79586500  0.39450600  0.16314800  1
  N  1032  1  0.79506500  0.44067300  0.21219900  1
  N  1035  1  0.84385200  0.38339600  0.19320800  1
  N  1044  1  0.30627100  0.43329900  0.18626700  1
  N  1054  1  0.36349000  0.39537900  0.16994800  1
  N  1058  1  0.37291700  0.44641500  0.21287400  1
  N  1061  1  0.30276500  0.38949800  0.19331100  1
  N  1070  1  0.13941500  0.31633700  0.24536500  1
  N  1080  1  0.15468000  0.26589600  0.21141900  1
  N  1084  1  0.20201900  0.29917700  0.25743100  1
  N  1087  1  0.16960000  0.29226300  0.19329300  1
  N  1095  1  0.47279600  0.28616000  0.00522900  1
  N  1105  1  0.48825100  0.30257100  0.05563700  1
  N  1109  1  0.53528800  0.31542000  0.02235400  1
  N  1112  1  0.50310800  0.25809500  0.02921000  1
  N  1126  1  0.34083600  0.12700400  0.23332000  1
  N  1133  1  0.13722500  0.20015900  0.22292770  1
  N  1140  1  0.14022600  0.15873200  0.21002870  1
  N  1141  1  0.27261200  0.12024200  0.24134500  1
  N  1142  1  0.35279600  0.15225600  0.21847470  1
  N  1150  1  0.30659000  0.12868100  0.85858200  1
  N  1157  1  0.50701000  0.19711100  0.94877800  1
  N  1165  1  0.50717200  0.16005400  0.91401700  1
  N  1166  1  0.44390300  0.21762200  0.95945100  1
  N  1167  1  0.37323400  0.12585200  0.84393700  1
  N  1168  1  0.29656600  0.15063000  0.90027100  1
  N  1180  1  0.12892800  0.12592000  0.92687100  1
  N  1183  1  0.12771200  0.12892800  0.88077400  1
  N  1186  1  0.17727800  0.16678300  0.93881500  1
  N  1193  1  0.52957900  0.13800800  0.20532370  1
  N  1203  1  0.46246000  0.15823100  0.19579170  1
  N  1207  1  0.51070500  0.12877300  0.15473870  1
  N  1224  1  0.69711800  0.13177500  0.92598800  1
  N  1227  1  0.70614700  0.12350300  0.87487200  1
  N  1230  1  0.63628100  0.16096800  0.93184600  1
  N  1237  1  0.97308200  0.13533100  0.21146770  1
  N  1247  1  0.03041600  0.15147300  0.18976970  1
  N  1251  1  0.96962100  0.12808000  0.16054270  1
  N  1260  1  0.83625900  0.12825500  0.06336200  1
  N  1269  1  0.00481300  0.02928700  0.66522400  1
  N  1277  1  0.86562400  0.02760200  0.56904600  1
  N  1278  1  0.93843100  0.04159900  0.67978800  1
  N  1286  1  0.00784200  0.08751700  0.85796900  1
  N  1293  1  0.80376000  0.09865100  0.94152700  1
  N  1301  1  0.80686000  0.11146600  0.91294700  1
  N  1302  1  0.86701800  0.09051000  0.95408500  1
  N  1303  1  0.93979100  0.07947400  0.84306000  1
  N  1304  1  0.01956300  0.10277300  0.89815700  1
  N  1313  1  0.64009600  0.08685300  0.19286100  1
  N  1320  1  0.84038200  0.10867300  0.12435770  1
  N  1328  1  0.84071300  0.11082200  0.16134570  1
  N  1329  1  0.77721100  0.09890700  0.10391966  1
  N  1330  1  0.70673200  0.07498200  0.19563500  1
  N  1331  1  0.63008400  0.10667200  0.17097770  1
  N  1338  1  0.63606600  0.03229800  0.33124400  1
  N  1346  1  0.77520200  0.02280900  0.42102000  1
  N  1347  1  0.70390000  0.04015600  0.32360400  1
  N  1350  1  0.94745400  0.05435800  0.77780000  1
  N  1360  1  0.89330800  0.04413700  0.73853000  1
  N  1364  1  0.96990600  0.07657200  0.75517400  1
  N  1367  1  0.85852100  0.07192800  0.77980300  1
  N  1376  1  0.28091400  0.08066200  0.26751700  1
  N  1384  1  0.22678300  0.05143500  0.27746800  1
  N  1387  1  0.30386200  0.03587300  0.24540800  1
  N  1390  1  0.19250100  0.06451600  0.24917600  1
  N  1393  1  0.36214500  0.03922900  0.74639000  1
  N  1402  1  0.41655600  0.06815400  0.78560000  1
  N  1405  1  0.34056600  0.08427200  0.76881900  1
  N  1408  1  0.45138100  0.05431800  0.74427500  1
  N  1415  1  0.69568600  0.06407000  0.28234900  1
  N  1425  1  0.75008700  0.07451900  0.25350200  1
  N  1429  1  0.67429700  0.04147700  0.23732700  1
  N  1432  1  0.78538500  0.04763500  0.26778700  1
  N  1443  1  0.19598800  0.11644400  0.89696600  1
  N  1447  1  0.46133000  0.10904900  0.19261470  1
  N  1452  1  0.63970100  0.11003800  0.88817400  1
  N  1456  1  0.03960600  0.10858100  0.19795370  1
  N  1461  1  0.80551800  0.04426600  0.48912200  1
  N  1468  1  0.86851200  0.05493300  0.51784800  1
  N  1475  1  0.80595800  0.07621000  0.03535100  1
  N  1484  1  0.82137300  0.11021100  0.01891600  1
  N  1487  1  0.86831700  0.06403200  0.00598800  1
  N  1501  1  0.80211300  0.01981200  0.58167400  1
  N  1504  1  0.80467400  0.00700200  0.61025200  1
  N  1505  1  0.01722500  0.01373500  0.62495800  1
  N  1513  1  0.33838000  0.99325135  0.29274435  1
  N  1520  1  0.13558800  0.91889230  0.30160330  1
  N  1528  1  0.13809000  0.96030430  0.31443030  1
  N  1529  1  0.19916100  0.89857800  0.29408100  1
  N  1530  1  0.27209000  0.99539635  0.28024635  1
  N  1531  1  0.35071200  0.96850930  0.30827130  1
  N  1539  1  0.67168100  0.65677800  0.32830000  1
  N  1546  1  0.46885200  0.73993600  0.40263800  1
  N  1554  1  0.47136400  0.71134900  0.36123900  1
  N  1555  1  0.53239600  0.75270200  0.42297300  1
  N  1556  1  0.60537700  0.64213500  0.32614400  1
  N  1557  1  0.68400400  0.69704700  0.35306100  1
  N  1565  1  0.30283000  0.99086235  0.66513735  1
  N  1572  1  0.50374200  0.92210930  0.57580830  1
  N  1580  1  0.50286400  0.95971430  0.60980830  1
  N  1581  1  0.44179600  0.90054130  0.56616830  1
  N  1582  1  0.37083100  0.99861935  0.68053735  1
  N  1583  1  0.29172800  0.96287830  0.62505730  1
  N  1591  1  0.96935100  0.65625600  0.28946700  1
  N  1598  1  0.17055300  0.74564100  0.31053500  1
  N  1606  1  0.16969100  0.71157000  0.31402300  1
  N  1607  1  0.10855500  0.75536300  0.29870400  1
  N  1608  1  0.03720800  0.64075500  0.28171500  1
  N  1609  1  0.95844000  0.69647300  0.30207600  1
  N  1614  1  0.83718400  0.01101800  0.39947900  1
  N  1618  1  0.83637300  0.00764300  0.36197000  1
  N  1619  1  0.62509300  0.01953300  0.35871400  1
  N  1633  1  0.18513800  0.97690230  0.62362830  1
  N  1643  1  0.11663800  0.97458430  0.59535430  1
  N  1646  1  0.14619200  0.01926700  0.64130500  1
  N  1648  1  0.18903500  0.98436830  0.58018530  1
  N  1657  1  0.51860900  0.00389500  0.34452400  1
  N  1667  1  0.45023200  0.97799430  0.34704430  1
  N  1670  1  0.47963000  0.97890030  0.30214730  1
  N  1673  1  0.52266000  0.95311130  0.33738430  1
  N  1682  1  0.85183800  0.69796100  0.31766000  1
  N  1692  1  0.78352100  0.72635100  0.34362500  1
  N  1696  1  0.81290800  0.68051500  0.34265500  1
  N  1699  1  0.85603400  0.74140600  0.36855700  1
  N  1708  1  0.63760700  0.00904100  0.63578300  1
  N  1718  1  0.69463700  0.98701430  0.59784230  1
  N  1721  1  0.70433600  0.99567635  0.64906835  1
  N  1724  1  0.63399200  0.95782630  0.59259130  1
  N  1733  1  0.97079400  0.98392730  0.31254630  1
  N  1743  1  0.02775800  0.96787930  0.33449430  1
  N  1747  1  0.03762400  0.01044900  0.32585500  1
  N  1750  1  0.96718100  0.99177835  0.36369735  1
  N  1759  1  0.30410600  0.68577700  0.33763200  1
  N  1769  1  0.36106400  0.72376100  0.35362000  1
  N  1773  1  0.37093500  0.67253600  0.31107800  1
  N  1776  1  0.30048700  0.72900400  0.32966400  1
  N  1788  1  0.81893800  0.00956100  0.50491400  1
  N  1790  1  0.83268000  0.99166735  0.46038635  1
  N  1797  1  0.13892100  0.80201700  0.27731600  1
  N  1807  1  0.15251800  0.85246700  0.31212000  1
  N  1811  1  0.20178700  0.82007100  0.26660500  1
  N  1814  1  0.16624000  0.82572700  0.32988400  1
  N  1823  1  0.47221400  0.83246500  0.51952600  1
  N  1833  1  0.48562400  0.81675200  0.46905900  1
  N  1837  1  0.53530600  0.80381800  0.50146700  1
  N  1840  1  0.49932700  0.86127400  0.49572800  1
  N  1852  1  0.55996100  0.58333400  0.27013300  1
  N  1855  1  0.63704000  0.56683000  0.28569800  1
  N  1861  1  0.02897200  0.57539400  0.25745900  1
  N  1868  1  0.11858200  0.57729500  0.27404000  1
