# generated using pymatgen
data_H9C16N4O
_symmetry_space_group_name_H-M   'P 1'
_cell_length_a   37.13870000
_cell_length_b   37.13870000
_cell_length_c   37.13870000
_cell_angle_alpha   90.00000000
_cell_angle_beta   90.00000000
_cell_angle_gamma   90.00000000
_symmetry_Int_Tables_number   1
_chemical_formula_structural   H9C16N4O
_chemical_formula_sum   'H288 C512 N128 O32'
_cell_volume   51224.77895186
_cell_formula_units_Z   32
loop_
 _symmetry_equiv_pos_site_id
 _symmetry_equiv_pos_as_xyz
  1  'x, y, z'
loop_
 _atom_site_type_symbol
 _atom_site_label
 _atom_site_symmetry_multiplicity
 _atom_site_fract_x
 _atom_site_fract_y
 _atom_site_fract_z
 _atom_site_occupancy
  H  7  1  0.94935200  0.99568900  0.03026300  1
  H  8  1  0.06050300  0.97991300  0.01390600  1
  H  9  1  0.00626900  0.92321000  0.09504400  1
  H  16  1  0.95173000  0.00739700  0.96932100  1
  H  17  1  0.00344300  0.09017500  0.91252000  1
  H  18  1  0.05665500  0.04025100  0.99848200  1
  H  23  1  0.06904100  0.10859900  0.96557000  1
  H  24  1  0.09414300  0.94161400  0.05507800  1
  H  25  1  0.92117100  0.96469500  0.08413600  1
  H  26  1  0.92806400  0.03624400  0.90785600  1
  H  33  1  0.55452700  0.00821000  0.53021300  1
  H  34  1  0.44336800  0.02395200  0.51390900  1
  H  35  1  0.49762400  0.08069200  0.59500500  1
  H  42  1  0.55212000  0.99649400  0.46927100  1
  H  43  1  0.50042100  0.91365600  0.41254500  1
  H  44  1  0.44722100  0.96361000  0.49850200  1
  H  49  1  0.43486200  0.89516100  0.46554700  1
  H  50  1  0.40973700  0.06224000  0.55509800  1
  H  51  1  0.58277000  0.03924800  0.58397900  1
  H  52  1  0.57568300  0.96761900  0.40769900  1
  H  59  1  0.25734900  0.69247500  0.28528200  1
  H  60  1  0.28309300  0.80059900  0.26129600  1
  H  61  1  0.33736500  0.74618700  0.34380000  1
  H  68  1  0.24280900  0.69179100  0.22566600  1
  H  69  1  0.16667300  0.74814200  0.16444900  1
  H  70  1  0.22408100  0.80207500  0.24486400  1
  H  75  1  0.17166500  0.83019600  0.21265400  1
  H  76  1  0.33861700  0.82593400  0.29307200  1
  H  77  1  0.28794500  0.67129200  0.34957100  1
  H  78  1  0.20857500  0.66114300  0.17788600  1
  H  85  1  0.24650800  0.31139000  0.78525900  1
  H  86  1  0.22078700  0.20326300  0.76126300  1
  H  87  1  0.16650000  0.25765000  0.84377000  1
  H  94  1  0.26105800  0.31207600  0.72563900  1
  H  95  1  0.33718200  0.25571800  0.66441200  1
  H  96  1  0.27979700  0.20179700  0.74484600  1
  H  101  1  0.33219300  0.17367000  0.71262900  1
  H  102  1  0.16526500  0.17791500  0.79303300  1
  H  103  1  0.21599400  0.33287400  0.84915200  1
  H  104  1  0.29532500  0.34275000  0.67793400  1
  H  111  1  0.74771600  0.30224000  0.71661100  1
  H  112  1  0.72184000  0.19473700  0.74282100  1
  H  113  1  0.66561600  0.24838600  0.66109800  1
  H  120  1  0.76289200  0.30308600  0.77665100  1
  H  121  1  0.84081000  0.24671200  0.83578300  1
  H  122  1  0.78200100  0.19314200  0.75612800  1
  H  127  1  0.83664800  0.16573700  0.78690400  1
  H  128  1  0.66628600  0.16869400  0.71328300  1
  H  129  1  0.71609400  0.32521100  0.65587100  1
  H  130  1  0.79962200  0.33460000  0.82086600  1
  H  137  1  0.75613300  0.70167000  0.21660900  1
  H  138  1  0.78204200  0.80916700  0.24282400  1
  H  139  1  0.83825000  0.75550600  0.16109700  1
  H  146  1  0.74096600  0.70083200  0.27665200  1
  H  147  1  0.66306900  0.75722400  0.33579300  1
  H  148  1  0.72188300  0.81078000  0.25613200  1
  H  153  1  0.66726600  0.83821500  0.28692700  1
  H  154  1  0.83758700  0.83520700  0.21328100  1
  H  155  1  0.78774400  0.67867800  0.15589300  1
  H  156  1  0.70423600  0.66932600  0.32086800  1
  H  163  1  0.45005400  0.49547000  0.53232600  1
  H  164  1  0.55899100  0.47315900  0.50924500  1
  H  165  1  0.50503700  0.41570700  0.59011200  1
  H  172  1  0.45044400  0.50717200  0.47069500  1
  H  173  1  0.50304700  0.58951200  0.41429000  1
  H  174  1  0.55768300  0.53450500  0.49638500  1
  H  179  1  0.58240600  0.59110900  0.46654600  1
  H  180  1  0.58645000  0.41897500  0.53998700  1
  H  181  1  0.42600600  0.46509400  0.59138100  1
  H  182  1  0.42836700  0.53645100  0.40857400  1
  H  189  1  0.05379900  0.50846200  0.03234700  1
  H  190  1  0.94486900  0.53075900  0.00920900  1
  H  191  1  0.99877200  0.58820900  0.09011200  1
  H  198  1  0.05345300  0.49672500  0.97073100  1
  H  199  1  0.00087300  0.41439500  0.91429200  1
  H  200  1  0.94618000  0.46942700  0.99633300  1
  H  205  1  0.92148900  0.41280900  0.96649900  1
  H  206  1  0.91737200  0.58491600  0.03995500  1
  H  207  1  0.07782400  0.53883700  0.09139600  1
  H  208  1  0.07545100  0.46736700  0.90845100  1
  H  219  1  0.82870700  0.80567500  0.03809300  1
  H  220  1  0.92436700  0.91470600  0.15955400  1
  H  221  1  0.88374100  0.87600500  0.19117900  1
  H  223  1  0.90498100  0.88569900  0.03694300  1
  H  236  1  0.67519900  0.19816400  0.53808600  1
  H  237  1  0.57949300  0.08920700  0.65957400  1
  H  238  1  0.62012700  0.12790400  0.69119000  1
  H  240  1  0.59890400  0.11815800  0.53695500  1
  H  253  1  0.45040600  0.56284700  0.29319600  1
  H  254  1  0.34000700  0.66666667  0.40627400  1
  H  255  1  0.38012600  0.63012400  0.44100600  1
  H  257  1  0.36812000  0.63632000  0.28564000  1
  H  270  1  0.05294000  0.44038700  0.79336900  1
  H  271  1  0.16417700  0.33743000  0.90642900  1
  H  272  1  0.12406800  0.37398700  0.94119600  1
  H  274  1  0.13545100  0.36717000  0.78579800  1
  H  287  1  0.68594200  0.80906500  0.46090500  1
  H  288  1  0.58096800  0.91581600  0.34527300  1
  H  289  1  0.62002400  0.87746500  0.31133000  1
  H  291  1  0.60872100  0.88795800  0.46655700  1
  H  304  1  0.81797200  0.19477300  0.96092200  1
  H  305  1  0.92292400  0.08808800  0.84520200  1
  H  306  1  0.88388400  0.12648400  0.81128600  1
  H  308  1  0.89516300  0.11584400  0.96650700  1
  H  321  1  0.08053200  0.54644100  0.20657100  1
  H  322  1  0.14697000  0.68281300  0.09368800  1
  H  323  1  0.10676700  0.64428500  0.06149100  1
  H  325  1  0.14967200  0.63250200  0.21101300  1
  H  338  1  0.42345300  0.45729100  0.70658900  1
  H  339  1  0.35680800  0.32113100  0.59358800  1
  H  340  1  0.39697100  0.35969800  0.56141200  1
  H  342  1  0.35428000  0.37125400  0.71100000  1
  H  355  1  0.21324100  0.17548700  0.96132400  1
  H  356  1  0.07514200  0.10669100  0.85174000  1
  H  357  1  0.11123100  0.14849800  0.81919400  1
  H  359  1  0.13221600  0.10077600  0.96652600  1
  H  372  1  0.29064800  0.82832500  0.46136800  1
  H  373  1  0.42872000  0.89717700  0.35178700  1
  H  374  1  0.39264200  0.85536700  0.31923600  1
  H  376  1  0.37166400  0.90304700  0.46658100  1
  H  389  1  0.54766300  0.42319200  0.71332600  1
  H  390  1  0.66783700  0.33505500  0.59674700  1
  H  391  1  0.62910900  0.37454200  0.56369000  1
  H  393  1  0.63080600  0.35049400  0.71787900  1
  H  406  1  0.95607600  0.58058900  0.21329200  1
  H  407  1  0.83603600  0.66890600  0.09671900  1
  H  408  1  0.87475900  0.62942200  0.06364400  1
  H  410  1  0.87297600  0.65333700  0.21785300  1
  H  423  1  0.32171800  0.20497000  0.53857600  1
  H  424  1  0.42100300  0.09748200  0.65849600  1
  H  425  1  0.38154300  0.13667200  0.69055700  1
  H  427  1  0.39928200  0.12649800  0.53572200  1
  H  440  1  0.18204700  0.79880000  0.03859000  1
  H  441  1  0.08294500  0.90646200  0.15851100  1
  H  442  1  0.12237100  0.86723800  0.19057500  1
  H  444  1  0.10457200  0.87736000  0.03573600  1
  H  457  1  0.93942500  0.43539000  0.79164600  1
  H  458  1  0.84838200  0.32100200  0.91170900  1
  H  459  1  0.88636100  0.36185700  0.94378400  1
  H  461  1  0.86592700  0.35294500  0.78930100  1
  H  474  1  0.56459700  0.56840700  0.29170400  1
  H  475  1  0.65542700  0.68299100  0.41173800  1
  H  476  1  0.61747500  0.64211500  0.44381200  1
  H  478  1  0.63799200  0.65094400  0.28933700  1
  H  487  1  0.94935200  0.99568900  0.35337600  1
  H  488  1  0.06050300  0.97991300  0.33701900  1
  H  489  1  0.00626900  0.92321000  0.41815700  1
  H  496  1  0.95173000  0.00739700  0.29243400  1
  H  497  1  0.00344300  0.09017500  0.23563300  1
  H  498  1  0.05665500  0.04025100  0.32159500  1
  H  503  1  0.06904100  0.10859900  0.28868300  1
  H  504  1  0.09414300  0.94161400  0.37819100  1
  H  505  1  0.92117100  0.96469500  0.40724900  1
  H  506  1  0.92806400  0.03624400  0.23096900  1
  H  513  1  0.55452700  0.00821000  0.85332600  1
  H  514  1  0.44336800  0.02395200  0.83702200  1
  H  515  1  0.49762400  0.08069200  0.91811800  1
  H  522  1  0.55212000  0.99649400  0.79238400  1
  H  523  1  0.50042100  0.91365600  0.73565800  1
  H  524  1  0.44722100  0.96361000  0.82161500  1
  H  529  1  0.43486200  0.89516100  0.78866000  1
  H  530  1  0.40973700  0.06224000  0.87821100  1
  H  531  1  0.58277000  0.03924800  0.90709200  1
  H  532  1  0.57568300  0.96761900  0.73081200  1
  H  539  1  0.25734900  0.69247500  0.60839500  1
  H  540  1  0.28309300  0.80059900  0.58440900  1
  H  541  1  0.33736500  0.74618700  0.66691300  1
  H  548  1  0.24280900  0.69179100  0.54877900  1
  H  549  1  0.16667300  0.74814200  0.48756200  1
  H  550  1  0.22408100  0.80207500  0.56797700  1
  H  555  1  0.17166500  0.83019600  0.53576700  1
  H  556  1  0.33861700  0.82593400  0.61618500  1
  H  557  1  0.28794500  0.67129200  0.67268400  1
  H  558  1  0.20857500  0.66114300  0.50099900  1
  H  565  1  0.24650800  0.31139000  0.10837200  1
  H  566  1  0.22078700  0.20326300  0.08437610  1
  H  567  1  0.16650000  0.25765000  0.16688300  1
  H  574  1  0.26105800  0.31207600  0.04875210  1
  H  575  1  0.33718200  0.25571800  0.98752500  1
  H  576  1  0.27979700  0.20179700  0.06795910  1
  H  581  1  0.33219300  0.17367000  0.03574210  1
  H  582  1  0.16526500  0.17791500  0.11614600  1
  H  583  1  0.21599400  0.33287400  0.17226500  1
  H  584  1  0.29532500  0.34275000  0.00104709  1
  H  591  1  0.74771600  0.30224000  0.03972410  1
  H  592  1  0.72184000  0.19473700  0.06593410  1
  H  593  1  0.66561600  0.24838600  0.98421100  1
  H  600  1  0.76289200  0.30308600  0.09976410  1
  H  601  1  0.84081000  0.24671200  0.15889600  1
  H  602  1  0.78200100  0.19314200  0.07924110  1
  H  607  1  0.83664800  0.16573700  0.11001700  1
  H  608  1  0.66628600  0.16869400  0.03639610  1
  H  609  1  0.71609400  0.32521100  0.97898400  1
  H  610  1  0.79962200  0.33460000  0.14397900  1
  H  617  1  0.75613300  0.70167000  0.53972200  1
  H  618  1  0.78204200  0.80916700  0.56593700  1
  H  619  1  0.83825000  0.75550600  0.48421000  1
  H  626  1  0.74096600  0.70083200  0.59976500  1
  H  627  1  0.66306900  0.75722400  0.65890600  1
  H  628  1  0.72188300  0.81078000  0.57924500  1
  H  633  1  0.66726600  0.83821500  0.61004000  1
  H  634  1  0.83758700  0.83520700  0.53639400  1
  H  635  1  0.78774400  0.67867800  0.47900600  1
  H  636  1  0.70423600  0.66932600  0.64398100  1
  H  643  1  0.45005400  0.49547000  0.85543900  1
  H  644  1  0.55899100  0.47315900  0.83235800  1
  H  645  1  0.50503700  0.41570700  0.91322500  1
  H  652  1  0.45044400  0.50717200  0.79380800  1
  H  653  1  0.50304700  0.58951200  0.73740300  1
  H  654  1  0.55768300  0.53450500  0.81949800  1
  H  659  1  0.58240600  0.59110900  0.78965900  1
  H  660  1  0.58645000  0.41897500  0.86310000  1
  H  661  1  0.42600600  0.46509400  0.91449400  1
  H  662  1  0.42836700  0.53645100  0.73168700  1
  H  669  1  0.05379900  0.50846200  0.35546000  1
  H  670  1  0.94486900  0.53075900  0.33232200  1
  H  671  1  0.99877200  0.58820900  0.41322500  1
  H  678  1  0.05345300  0.49672500  0.29384400  1
  H  679  1  0.00087300  0.41439500  0.23740500  1
  H  680  1  0.94618000  0.46942700  0.31944600  1
  H  685  1  0.92148900  0.41280900  0.28961200  1
  H  686  1  0.91737200  0.58491600  0.36306800  1
  H  687  1  0.07782400  0.53883700  0.41450900  1
  H  688  1  0.07545100  0.46736700  0.23156400  1
  H  699  1  0.82870700  0.80567500  0.36120600  1
  H  700  1  0.92436700  0.91470600  0.48266700  1
  H  701  1  0.88374100  0.87600500  0.51429200  1
  H  703  1  0.90498100  0.88569900  0.36005600  1
  H  716  1  0.67519900  0.19816400  0.86119900  1
  H  717  1  0.57949300  0.08920700  0.98268700  1
  H  718  1  0.62012700  0.12790400  0.01430310  1
  H  720  1  0.59890400  0.11815800  0.86006800  1
  H  733  1  0.45040600  0.56284700  0.61630900  1
  H  734  1  0.34000700  0.66666667  0.72938700  1
  H  735  1  0.38012600  0.63012400  0.76411900  1
  H  737  1  0.36812000  0.63632000  0.60875300  1
  H  750  1  0.05294000  0.44038700  0.11648200  1
  H  751  1  0.16417700  0.33743000  0.22954200  1
  H  752  1  0.12406800  0.37398700  0.26430900  1
  H  754  1  0.13545100  0.36717000  0.10891100  1
  H  767  1  0.68594200  0.80906500  0.78401800  1
  H  768  1  0.58096800  0.91581600  0.66838600  1
  H  769  1  0.62002400  0.87746500  0.63444300  1
  H  771  1  0.60872100  0.88795800  0.78967000  1
  H  784  1  0.81797200  0.19477300  0.28403500  1
  H  785  1  0.92292400  0.08808800  0.16831500  1
  H  786  1  0.88388400  0.12648400  0.13439900  1
  H  788  1  0.89516300  0.11584400  0.28962000  1
  H  801  1  0.08053200  0.54644100  0.52968400  1
  H  802  1  0.14697000  0.68281300  0.41680100  1
  H  803  1  0.10676700  0.64428500  0.38460400  1
  H  805  1  0.14967200  0.63250200  0.53412600  1
  H  818  1  0.42345300  0.45729100  0.02970210  1
  H  819  1  0.35680800  0.32113100  0.91670100  1
  H  820  1  0.39697100  0.35969800  0.88452500  1
  H  822  1  0.35428000  0.37125400  0.03411310  1
  H  835  1  0.21324100  0.17548700  0.28443700  1
  H  836  1  0.07514200  0.10669100  0.17485300  1
  H  837  1  0.11123100  0.14849800  0.14230700  1
  H  839  1  0.13221600  0.10077600  0.28963900  1
  H  852  1  0.29064800  0.82832500  0.78448100  1
  H  853  1  0.42872000  0.89717700  0.67490000  1
  H  854  1  0.39264200  0.85536700  0.64234900  1
  H  856  1  0.37166400  0.90304700  0.78969400  1
  H  869  1  0.54766300  0.42319200  0.03643910  1
  H  870  1  0.66783700  0.33505500  0.91986000  1
  H  871  1  0.62910900  0.37454200  0.88680300  1
  H  873  1  0.63080600  0.35049400  0.04099210  1
  H  886  1  0.95607600  0.58058900  0.53640500  1
  H  887  1  0.83603600  0.66890600  0.41983200  1
  H  888  1  0.87475900  0.62942200  0.38675700  1
  H  890  1  0.87297600  0.65333700  0.54096600  1
  H  903  1  0.32171800  0.20497000  0.86168900  1
  H  904  1  0.42100300  0.09748200  0.98160900  1
  H  905  1  0.38154300  0.13667200  0.01367010  1
  H  907  1  0.39928200  0.12649800  0.85883500  1
  H  920  1  0.18204700  0.79880000  0.36170300  1
  H  921  1  0.08294500  0.90646200  0.48162400  1
  H  922  1  0.12237100  0.86723800  0.51368800  1
  H  924  1  0.10457200  0.87736000  0.35884900  1
  H  937  1  0.93942500  0.43539000  0.11475900  1
  H  938  1  0.84838200  0.32100200  0.23482200  1
  H  939  1  0.88636100  0.36185700  0.26689700  1
  H  941  1  0.86592700  0.35294500  0.11241400  1
  H  954  1  0.56459700  0.56840700  0.61481700  1
  H  955  1  0.65542700  0.68299100  0.73485100  1
  H  956  1  0.61747500  0.64211500  0.76692500  1
  H  958  1  0.63799200  0.65094400  0.61245000  1
  C  1  1  0.00493900  0.99248500  0.01733500  1
  C  2  1  0.97312300  0.98323300  0.03649400  1
  C  3  1  0.97295600  0.95719600  0.06427700  1
  C  4  1  0.00606900  0.94137700  0.07428500  1
  C  5  1  0.03871200  0.94974300  0.05653800  1
  C  6  1  0.03727100  0.97480800  0.02781100  1
  C  10  1  0.00450600  0.01870700  0.98849700  1
  C  11  1  0.97391100  0.02335600  0.96584400  1
  C  12  1  0.97271900  0.04995400  0.93859300  1
  C  13  1  0.00376900  0.07096700  0.93240200  1
  C  14  1  0.03493100  0.06683100  0.95363300  1
  C  15  1  0.03457300  0.04156600  0.98205100  1
  C  19  1  0.06389800  0.08937600  0.94769400  1
  C  20  1  0.07131900  0.93381000  0.06674000  1
  C  21  1  0.94105600  0.94698500  0.08113300  1
  C  22  1  0.94174600  0.05652600  0.91871800  1
  C  27  1  0.49893500  0.01139800  0.51731200  1
  C  28  1  0.53075900  0.02066400  0.53645100  1
  C  29  1  0.53093400  0.04670800  0.56423100  1
  C  30  1  0.49782000  0.06252200  0.57425000  1
  C  31  1  0.46517300  0.05414500  0.55651900  1
  C  32  1  0.46660500  0.02907000  0.52780000  1
  C  36  1  0.49936100  0.98516100  0.48848800  1
  C  37  1  0.52994600  0.98051900  0.46581900  1
  C  38  1  0.53113300  0.95391100  0.43857800  1
  C  39  1  0.50009800  0.93286500  0.43242500  1
  C  40  1  0.46893700  0.93702000  0.45365400  1
  C  41  1  0.46929800  0.96229300  0.48206300  1
  C  45  1  0.43998000  0.91445600  0.44774300  1
  C  46  1  0.43256500  0.07006700  0.56673500  1
  C  47  1  0.56284400  0.05692800  0.58106800  1
  C  48  1  0.56209300  0.94734300  0.41869000  1
  C  53  1  0.26530200  0.74664700  0.26832400  1
  C  54  1  0.27211800  0.71534800  0.28939600  1
  C  55  1  0.29910900  0.71449500  0.31622000  1
  C  56  1  0.31819100  0.74641800  0.32390500  1
  C  57  1  0.31172600  0.77852000  0.30464200  1
  C  58  1  0.28623500  0.77774900  0.27634500  1
  C  62  1  0.23847200  0.74694600  0.23994700  1
  C  63  1  0.22954200  0.71530500  0.22026500  1
  C  64  1  0.20271200  0.71480700  0.19316800  1
  C  65  1  0.18589900  0.74778900  0.18423500  1
  C  66  1  0.19417200  0.78022900  0.20226400  1
  C  67  1  0.21958600  0.77894800  0.23060300  1
  C  71  1  0.17637600  0.81210200  0.19351300  1
  C  72  1  0.33082200  0.80965200  0.31283800  1
  C  73  1  0.30706500  0.68345200  0.33531600  1
  C  74  1  0.19266300  0.68264400  0.17637500  1
  C  79  1  0.23856700  0.25721900  0.76829800  1
  C  80  1  0.23173900  0.28851600  0.78937100  1
  C  81  1  0.20474300  0.28936700  0.81618900  1
  C  82  1  0.18566900  0.25743300  0.82386800  1
  C  83  1  0.19214500  0.22533300  0.80460600  1
  C  84  1  0.21763700  0.22611100  0.77631200  1
  C  88  1  0.26540200  0.25692200  0.73992600  1
  C  89  1  0.27432800  0.28856200  0.72024100  1
  C  90  1  0.30115500  0.28906000  0.69314200  1
  C  91  1  0.31796200  0.25607600  0.68420300  1
  C  92  1  0.30968800  0.22363400  0.70223000  1
  C  93  1  0.28428800  0.22492300  0.73058000  1
  C  97  1  0.32748300  0.19176300  0.69348400  1
  C  98  1  0.17305800  0.19419600  0.81279900  1
  C  99  1  0.19677900  0.32040700  0.83529600  1
  C  100  1  0.31119000  0.32121800  0.67633200  1
  C  105  1  0.73982700  0.24836600  0.73433100  1
  C  106  1  0.73267800  0.27943900  0.71306800  1
  C  107  1  0.70499200  0.28014700  0.68692500  1
  C  108  1  0.68538500  0.24825900  0.68039000  1
  C  109  1  0.69203800  0.21637400  0.70001700  1
  C  110  1  0.71840700  0.21735100  0.72746500  1
  C  114  1  0.76739600  0.24812500  0.76191700  1
  C  115  1  0.77648700  0.27966000  0.78165600  1
  C  116  1  0.80378200  0.28010900  0.80832100  1
  C  117  1  0.82110300  0.24717100  0.81648000  1
  C  118  1  0.81272400  0.21487400  0.79822100  1
  C  119  1  0.78671900  0.21618900  0.77046600  1
  C  123  1  0.83068300  0.18300400  0.80645300  1
  C  124  1  0.67241500  0.18520000  0.69314200  1
  C  125  1  0.69668600  0.31119800  0.66785300  1
  C  126  1  0.81395400  0.31233200  0.82500700  1
  C  131  1  0.76403900  0.75554400  0.23433100  1
  C  132  1  0.77117700  0.72447100  0.21306500  1
  C  133  1  0.79886500  0.72375500  0.18692400  1
  C  134  1  0.81848300  0.75563800  0.18039100  1
  C  135  1  0.81184100  0.78752400  0.20002100  1
  C  136  1  0.78546700  0.78655200  0.22746800  1
  C  140  1  0.73646900  0.75579100  0.26191600  1
  C  141  1  0.72737300  0.72425800  0.28166000  1
  C  142  1  0.70008900  0.72381700  0.30833300  1
  C  143  1  0.68276200  0.75675800  0.31647900  1
  C  144  1  0.69115200  0.78905300  0.29822000  1
  C  145  1  0.71715800  0.78773100  0.27046500  1
  C  149  1  0.67322000  0.82093400  0.30646700  1
  C  150  1  0.83147000  0.81869300  0.19314200  1
  C  151  1  0.80716100  0.69270100  0.16785100  1
  C  152  1  0.68991100  0.69159900  0.32502000  1
  C  157  1  0.50449800  0.48895600  0.51607100  1
  C  158  1  0.47318800  0.48112100  0.53663400  1
  C  159  1  0.47271200  0.45378000  0.56309200  1
  C  160  1  0.50503100  0.43519000  0.57054500  1
  C  161  1  0.53722900  0.44266200  0.55166200  1
  C  162  1  0.53611500  0.46884800  0.52399300  1
  C  166  1  0.50414300  0.51619700  0.48829700  1
  C  167  1  0.47296000  0.52263300  0.46702200  1
  C  168  1  0.47183400  0.55001900  0.44062900  1
  C  169  1  0.50342600  0.57005800  0.43389500  1
  C  170  1  0.53546000  0.56398100  0.45350300  1
  C  171  1  0.53496000  0.53776300  0.48113700  1
  C  175  1  0.56629900  0.58403500  0.44638300  1
  C  176  1  0.56887300  0.42406200  0.55950300  1
  C  177  1  0.44142900  0.44543300  0.58176000  1
  C  178  1  0.44093900  0.55672700  0.42075000  1
  C  183  1  0.99936200  0.51496700  0.01605800  1
  C  184  1  0.03066100  0.52280800  0.03663900  1
  C  185  1  0.03112000  0.55014600  0.06310000  1
  C  186  1  0.99879400  0.56873000  0.07053700  1
  C  187  1  0.96660400  0.56125600  0.05163500  1
  C  188  1  0.96774000  0.53507300  0.02396600  1
  C  192  1  0.99973100  0.48772600  0.98828500  1
  C  193  1  0.03093100  0.48127700  0.96704000  1
  C  194  1  0.03206900  0.45388800  0.94065200  1
  C  195  1  0.00047700  0.43386000  0.93388900  1
  C  196  1  0.96842700  0.43995100  0.95346600  1
  C  197  1  0.96891700  0.46616600  0.98110100  1
  C  201  1  0.93759600  0.41988600  0.94633900  1
  C  202  1  0.93494900  0.57983700  0.05947300  1
  C  203  1  0.06238900  0.55849600  0.08178900  1
  C  204  1  0.06299400  0.44714600  0.92083200  1
  C  209  1  0.90938600  0.89781800  0.10715600  1
  C  210  1  0.88746500  0.87341300  0.08759200  1
  C  211  1  0.86345500  0.85038300  0.10671700  1
  C  212  1  0.86144400  0.85119600  0.14476000  1
  C  213  1  0.88341000  0.87583900  0.16365800  1
  C  214  1  0.90723400  0.89867500  0.14507800  1
  C  216  1  0.84453700  0.82396300  0.05117600  1
  C  217  1  0.86813500  0.84656500  0.03220000  1
  C  226  1  0.59448800  0.10606900  0.60717300  1
  C  227  1  0.61641400  0.13046200  0.58760000  1
  C  228  1  0.64042900  0.15349400  0.60672000  1
  C  229  1  0.64243800  0.15269100  0.64476400  1
  C  230  1  0.62046100  0.12806300  0.66366900  1
  C  231  1  0.59663100  0.10522700  0.64509500  1
  C  233  1  0.65935500  0.17989100  0.55117200  1
  C  234  1  0.63575700  0.15728700  0.53220200  1
  C  243  1  0.35615400  0.64684300  0.35521700  1
  C  244  1  0.38080800  0.62354100  0.33758600  1
  C  245  1  0.40439200  0.60169900  0.35860700  1
  C  246  1  0.40377800  0.60316900  0.39669700  1
  C  247  1  0.37950200  0.62690400  0.41363300  1
  C  248  1  0.35573100  0.64816500  0.39322900  1
  C  250  1  0.43157400  0.57911000  0.30490300  1
  C  251  1  0.40825100  0.60026300  0.28401400  1
  C  260  1  0.14770300  0.35694800  0.85536900  1
  C  261  1  0.12290300  0.38010200  0.83773800  1
  C  262  1  0.09932100  0.40194500  0.85876200  1
  C  263  1  0.10009200  0.40059000  0.89685700  1
  C  264  1  0.12459800  0.37712200  0.91381200  1
  C  265  1  0.14827900  0.35578300  0.89338400  1
  C  267  1  0.07187000  0.42423400  0.80507100  1
  C  268  1  0.09519200  0.40308100  0.78417700  1
  C  277  1  0.59945000  0.89948200  0.39671800  1
  C  278  1  0.62296500  0.87549700  0.41491800  1
  C  279  1  0.64605900  0.85270600  0.39442200  1
  C  280  1  0.64564200  0.85330900  0.35633200  1
  C  281  1  0.62226200  0.87764300  0.33876500  1
  C  282  1  0.59941300  0.90036000  0.35870900  1
  C  284  1  0.66897600  0.82698100  0.44877200  1
  C  285  1  0.64635600  0.84939200  0.46910600  1
  C  294  1  0.90445600  0.10440400  0.89666100  1
  C  295  1  0.88095200  0.12838000  0.91487900  1
  C  296  1  0.85787100  0.15120300  0.89440400  1
  C  297  1  0.85833400  0.15066300  0.85631400  1
  C  298  1  0.88165500  0.12629600  0.83872400  1
  C  299  1  0.90449300  0.10355300  0.85865200  1
  C  301  1  0.83493200  0.17685900  0.94877300  1
  C  302  1  0.85754000  0.15441900  0.96909200  1
  C  311  1  0.14566000  0.65361700  0.14274000  1
  C  312  1  0.12941900  0.62393100  0.16064000  1
  C  313  1  0.10556100  0.60102800  0.14101600  1
  C  314  1  0.09771400  0.60767600  0.10428300  1
  C  315  1  0.11356300  0.63770100  0.08739500  1
  C  316  1  0.13724500  0.66030100  0.10632000  1
  C  318  1  0.09389600  0.56716000  0.19439300  1
  C  319  1  0.11727700  0.58953600  0.21388900  1
  C  328  1  0.35817600  0.35025200  0.64268500  1
  C  329  1  0.37444800  0.37990800  0.66060800  1
  C  330  1  0.39828800  0.40282800  0.64098100  1
  C  331  1  0.40606400  0.39628200  0.60421100  1
  C  332  1  0.39021000  0.36625100  0.58733400  1
  C  333  1  0.36656100  0.34361200  0.60625400  1
  C  335  1  0.41007100  0.43658800  0.69440200  1
  C  336  1  0.38670400  0.41419600  0.71389700  1
  C  345  1  0.10378800  0.11032300  0.90107900  1
  C  346  1  0.13392400  0.12679400  0.91815000  1
  C  347  1  0.15482000  0.15234200  0.89840500  1
  C  348  1  0.14724900  0.16027400  0.86192600  1
  C  349  1  0.11819200  0.14249000  0.84515100  1
  C  350  1  0.09690500  0.11792200  0.86446200  1
  C  352  1  0.19194100  0.16233600  0.94993900  1
  C  353  1  0.17239000  0.13638100  0.96918100  1
  C  362  1  0.40008400  0.89352100  0.40112900  1
  C  363  1  0.36995600  0.87703700  0.41820000  1
  C  364  1  0.34906200  0.85148900  0.39845200  1
  C  365  1  0.35663100  0.84356800  0.36196700  1
  C  366  1  0.38568100  0.86136300  0.34519800  1
  C  367  1  0.40696400  0.88593600  0.36451200  1
  C  369  1  0.31193600  0.84149200  0.44998100  1
  C  370  1  0.33149300  0.86743500  0.46923300  1
  C  379  1  0.64704500  0.34772900  0.64837500  1
  C  380  1  0.62049000  0.36811500  0.66680900  1
  C  381  1  0.59752200  0.39147800  0.64681100  1
  C  382  1  0.60042000  0.39437600  0.60893400  1
  C  383  1  0.62723800  0.37409800  0.59114900  1
  C  384  1  0.65018700  0.35104900  0.61061100  1
  C  386  1  0.56728200  0.40833200  0.70105600  1
  C  387  1  0.58985100  0.38546300  0.72092200  1
  C  396  1  0.85678000  0.65616500  0.14834200  1
  C  397  1  0.88330000  0.63573600  0.16677500  1
  C  398  1  0.90626000  0.61236700  0.14677400  1
  C  399  1  0.90336000  0.60948600  0.10889700  1
  C  400  1  0.87656000  0.62978000  0.09110700  1
  C  401  1  0.85368100  0.65289900  0.11056900  1
  C  403  1  0.93647100  0.59546800  0.20102200  1
  C  404  1  0.91390400  0.61833900  0.22089300  1
  C  413  1  0.40487700  0.11357100  0.60613900  1
  C  414  1  0.38224000  0.13766000  0.58679000  1
  C  415  1  0.35859400  0.16078900  0.60639700  1
  C  416  1  0.35750900  0.16045700  0.64449800  1
  C  417  1  0.38038000  0.13645000  0.66305500  1
  C  418  1  0.40377600  0.11352800  0.64411800  1
  C  420  1  0.33799000  0.18682000  0.55130400  1
  C  421  1  0.36146900  0.16454000  0.53184400  1
  C  430  1  0.09900700  0.89030900  0.10615500  1
  C  431  1  0.12160000  0.86617700  0.08680400  1
  C  432  1  0.14523000  0.84303200  0.10640800  1
  C  433  1  0.14629900  0.84335200  0.14450600  1
  C  434  1  0.12351000  0.86743200  0.16307200  1
  C  435  1  0.10013600  0.89037600  0.14413300  1
  C  437  1  0.16581800  0.81698900  0.05131700  1
  C  438  1  0.14234800  0.83928100  0.03185800  1
  C  447  1  0.85927600  0.34188100  0.85973900  1
  C  448  1  0.88014700  0.36745200  0.84039600  1
  C  449  1  0.90280500  0.39159200  0.85986900  1
  C  450  1  0.90503700  0.39032100  0.89788600  1
  C  451  1  0.88402700  0.36467100  0.91650200  1
  C  452  1  0.86172900  0.34058800  0.89761900  1
  C  454  1  0.92337700  0.41714400  0.80452700  1
  C  455  1  0.90133500  0.39333900  0.78517600  1
  C  464  1  0.64460300  0.66205300  0.35977300  1
  C  465  1  0.62378100  0.63644100  0.34043700  1
  C  466  1  0.60114100  0.61228900  0.35991600  1
  C  467  1  0.59889800  0.61355400  0.39793500  1
  C  468  1  0.61983600  0.63927700  0.41653300  1
  C  469  1  0.64210400  0.66338400  0.39764700  1
  C  471  1  0.58061000  0.58668500  0.30458000  1
  C  472  1  0.60263300  0.61050300  0.28522300  1
  C  481  1  0.00493900  0.99248500  0.34044800  1
  C  482  1  0.97312300  0.98323300  0.35960700  1
  C  483  1  0.97295600  0.95719600  0.38739000  1
  C  484  1  0.00606900  0.94137700  0.39739800  1
  C  485  1  0.03871200  0.94974300  0.37965100  1
  C  486  1  0.03727100  0.97480800  0.35092400  1
  C  490  1  0.00450600  0.01870700  0.31161000  1
  C  491  1  0.97391100  0.02335600  0.28895700  1
  C  492  1  0.97271900  0.04995400  0.26170600  1
  C  493  1  0.00376900  0.07096700  0.25551500  1
  C  494  1  0.03493100  0.06683100  0.27674600  1
  C  495  1  0.03457300  0.04156600  0.30516400  1
  C  499  1  0.06389800  0.08937600  0.27080700  1
  C  500  1  0.07131900  0.93381000  0.38985300  1
  C  501  1  0.94105600  0.94698500  0.40424600  1
  C  502  1  0.94174600  0.05652600  0.24183100  1
  C  507  1  0.49893500  0.01139800  0.84042500  1
  C  508  1  0.53075900  0.02066400  0.85956400  1
  C  509  1  0.53093400  0.04670800  0.88734400  1
  C  510  1  0.49782000  0.06252200  0.89736300  1
  C  511  1  0.46517300  0.05414500  0.87963200  1
  C  512  1  0.46660500  0.02907000  0.85091300  1
  C  516  1  0.49936100  0.98516100  0.81160100  1
  C  517  1  0.52994600  0.98051900  0.78893200  1
  C  518  1  0.53113300  0.95391100  0.76169100  1
  C  519  1  0.50009800  0.93286500  0.75553800  1
  C  520  1  0.46893700  0.93702000  0.77676700  1
  C  521  1  0.46929800  0.96229300  0.80517600  1
  C  525  1  0.43998000  0.91445600  0.77085600  1
  C  526  1  0.43256500  0.07006700  0.88984800  1
  C  527  1  0.56284400  0.05692800  0.90418100  1
  C  528  1  0.56209300  0.94734300  0.74180300  1
  C  533  1  0.26530200  0.74664700  0.59143700  1
  C  534  1  0.27211800  0.71534800  0.61250900  1
  C  535  1  0.29910900  0.71449500  0.63933300  1
  C  536  1  0.31819100  0.74641800  0.64701800  1
  C  537  1  0.31172600  0.77852000  0.62775500  1
  C  538  1  0.28623500  0.77774900  0.59945800  1
  C  542  1  0.23847200  0.74694600  0.56306000  1
  C  543  1  0.22954200  0.71530500  0.54337800  1
  C  544  1  0.20271200  0.71480700  0.51628100  1
  C  545  1  0.18589900  0.74778900  0.50734800  1
  C  546  1  0.19417200  0.78022900  0.52537700  1
  C  547  1  0.21958600  0.77894800  0.55371600  1
  C  551  1  0.17637600  0.81210200  0.51662600  1
  C  552  1  0.33082200  0.80965200  0.63595100  1
  C  553  1  0.30706500  0.68345200  0.65842900  1
  C  554  1  0.19266300  0.68264400  0.49948800  1
  C  559  1  0.23856700  0.25721900  0.09141110  1
  C  560  1  0.23173900  0.28851600  0.11248400  1
  C  561  1  0.20474300  0.28936700  0.13930200  1
  C  562  1  0.18566900  0.25743300  0.14698100  1
  C  563  1  0.19214500  0.22533300  0.12771900  1
  C  564  1  0.21763700  0.22611100  0.09942510  1
  C  568  1  0.26540200  0.25692200  0.06303910  1
  C  569  1  0.27432800  0.28856200  0.04335410  1
  C  570  1  0.30115500  0.28906000  0.01625510  1
  C  571  1  0.31796200  0.25607600  0.00731609  1
  C  572  1  0.30968800  0.22363400  0.02534310  1
  C  573  1  0.28428800  0.22492300  0.05369310  1
  C  577  1  0.32748300  0.19176300  0.01659710  1
  C  578  1  0.17305800  0.19419600  0.13591200  1
  C  579  1  0.19677900  0.32040700  0.15840900  1
  C  580  1  0.31119000  0.32121800  0.99944500  1
  C  585  1  0.73982700  0.24836600  0.05744410  1
  C  586  1  0.73267800  0.27943900  0.03618110  1
  C  587  1  0.70499200  0.28014700  0.01003810  1
  C  588  1  0.68538500  0.24825900  0.00350309  1
  C  589  1  0.69203800  0.21637400  0.02313010  1
  C  590  1  0.71840700  0.21735100  0.05057810  1
  C  594  1  0.76739600  0.24812500  0.08503010  1
  C  595  1  0.77648700  0.27966000  0.10476900  1
  C  596  1  0.80378200  0.28010900  0.13143400  1
  C  597  1  0.82110300  0.24717100  0.13959300  1
  C  598  1  0.81272400  0.21487400  0.12133400  1
  C  599  1  0.78671900  0.21618900  0.09357910  1
  C  603  1  0.83068300  0.18300400  0.12956600  1
  C  604  1  0.67241500  0.18520000  0.01625510  1
  C  605  1  0.69668600  0.31119800  0.99096600  1
  C  606  1  0.81395400  0.31233200  0.14812000  1
  C  611  1  0.76403900  0.75554400  0.55744400  1
  C  612  1  0.77117700  0.72447100  0.53617800  1
  C  613  1  0.79886500  0.72375500  0.51003700  1
  C  614  1  0.81848300  0.75563800  0.50350400  1
  C  615  1  0.81184100  0.78752400  0.52313400  1
  C  616  1  0.78546700  0.78655200  0.55058100  1
  C  620  1  0.73646900  0.75579100  0.58502900  1
  C  621  1  0.72737300  0.72425800  0.60477300  1
  C  622  1  0.70008900  0.72381700  0.63144600  1
  C  623  1  0.68276200  0.75675800  0.63959200  1
  C  624  1  0.69115200  0.78905300  0.62133300  1
  C  625  1  0.71715800  0.78773100  0.59357800  1
  C  629  1  0.67322000  0.82093400  0.62958000  1
  C  630  1  0.83147000  0.81869300  0.51625500  1
  C  631  1  0.80716100  0.69270100  0.49096400  1
  C  632  1  0.68991100  0.69159900  0.64813300  1
  C  637  1  0.50449800  0.48895600  0.83918400  1
  C  638  1  0.47318800  0.48112100  0.85974700  1
  C  639  1  0.47271200  0.45378000  0.88620500  1
  C  640  1  0.50503100  0.43519000  0.89365800  1
  C  641  1  0.53722900  0.44266200  0.87477500  1
  C  642  1  0.53611500  0.46884800  0.84710600  1
  C  646  1  0.50414300  0.51619700  0.81141000  1
  C  647  1  0.47296000  0.52263300  0.79013500  1
  C  648  1  0.47183400  0.55001900  0.76374200  1
  C  649  1  0.50342600  0.57005800  0.75700800  1
  C  650  1  0.53546000  0.56398100  0.77661600  1
  C  651  1  0.53496000  0.53776300  0.80425000  1
  C  655  1  0.56629900  0.58403500  0.76949600  1
  C  656  1  0.56887300  0.42406200  0.88261600  1
  C  657  1  0.44142900  0.44543300  0.90487300  1
  C  658  1  0.44093900  0.55672700  0.74386300  1
  C  663  1  0.99936200  0.51496700  0.33917100  1
  C  664  1  0.03066100  0.52280800  0.35975200  1
  C  665  1  0.03112000  0.55014600  0.38621300  1
  C  666  1  0.99879400  0.56873000  0.39365000  1
  C  667  1  0.96660400  0.56125600  0.37474800  1
  C  668  1  0.96774000  0.53507300  0.34707900  1
  C  672  1  0.99973100  0.48772600  0.31139800  1
  C  673  1  0.03093100  0.48127700  0.29015300  1
  C  674  1  0.03206900  0.45388800  0.26376500  1
  C  675  1  0.00047700  0.43386000  0.25700200  1
  C  676  1  0.96842700  0.43995100  0.27657900  1
  C  677  1  0.96891700  0.46616600  0.30421400  1
  C  681  1  0.93759600  0.41988600  0.26945200  1
  C  682  1  0.93494900  0.57983700  0.38258600  1
  C  683  1  0.06238900  0.55849600  0.40490200  1
  C  684  1  0.06299400  0.44714600  0.24394500  1
  C  689  1  0.90938600  0.89781800  0.43026900  1
  C  690  1  0.88746500  0.87341300  0.41070500  1
  C  691  1  0.86345500  0.85038300  0.42983000  1
  C  692  1  0.86144400  0.85119600  0.46787300  1
  C  693  1  0.88341000  0.87583900  0.48677100  1
  C  694  1  0.90723400  0.89867500  0.46819100  1
  C  696  1  0.84453700  0.82396300  0.37428900  1
  C  697  1  0.86813500  0.84656500  0.35531300  1
  C  706  1  0.59448800  0.10606900  0.93028600  1
  C  707  1  0.61641400  0.13046200  0.91071300  1
  C  708  1  0.64042900  0.15349400  0.92983300  1
  C  709  1  0.64243800  0.15269100  0.96787700  1
  C  710  1  0.62046100  0.12806300  0.98678200  1
  C  711  1  0.59663100  0.10522700  0.96820800  1
  C  713  1  0.65935500  0.17989100  0.87428500  1
  C  714  1  0.63575700  0.15728700  0.85531500  1
  C  723  1  0.35615400  0.64684300  0.67833000  1
  C  724  1  0.38080800  0.62354100  0.66069900  1
  C  725  1  0.40439200  0.60169900  0.68172000  1
  C  726  1  0.40377800  0.60316900  0.71981000  1
  C  727  1  0.37950200  0.62690400  0.73674600  1
  C  728  1  0.35573100  0.64816500  0.71634200  1
  C  730  1  0.43157400  0.57911000  0.62801600  1
  C  731  1  0.40825100  0.60026300  0.60712700  1
  C  740  1  0.14770300  0.35694800  0.17848200  1
  C  741  1  0.12290300  0.38010200  0.16085100  1
  C  742  1  0.09932100  0.40194500  0.18187500  1
  C  743  1  0.10009200  0.40059000  0.21997000  1
  C  744  1  0.12459800  0.37712200  0.23692500  1
  C  745  1  0.14827900  0.35578300  0.21649700  1
  C  747  1  0.07187000  0.42423400  0.12818400  1
  C  748  1  0.09519200  0.40308100  0.10729000  1
  C  757  1  0.59945000  0.89948200  0.71983100  1
  C  758  1  0.62296500  0.87549700  0.73803100  1
  C  759  1  0.64605900  0.85270600  0.71753500  1
  C  760  1  0.64564200  0.85330900  0.67944500  1
  C  761  1  0.62226200  0.87764300  0.66187800  1
  C  762  1  0.59941300  0.90036000  0.68182200  1
  C  764  1  0.66897600  0.82698100  0.77188500  1
  C  765  1  0.64635600  0.84939200  0.79221900  1
  C  774  1  0.90445600  0.10440400  0.21977400  1
  C  775  1  0.88095200  0.12838000  0.23799200  1
  C  776  1  0.85787100  0.15120300  0.21751700  1
  C  777  1  0.85833400  0.15066300  0.17942700  1
  C  778  1  0.88165500  0.12629600  0.16183700  1
  C  779  1  0.90449300  0.10355300  0.18176500  1
  C  781  1  0.83493200  0.17685900  0.27188600  1
  C  782  1  0.85754000  0.15441900  0.29220500  1
  C  791  1  0.14566000  0.65361700  0.46585300  1
  C  792  1  0.12941900  0.62393100  0.48375300  1
  C  793  1  0.10556100  0.60102800  0.46412900  1
  C  794  1  0.09771400  0.60767600  0.42739600  1
  C  795  1  0.11356300  0.63770100  0.41050800  1
  C  796  1  0.13724500  0.66030100  0.42943300  1
  C  798  1  0.09389600  0.56716000  0.51750600  1
  C  799  1  0.11727700  0.58953600  0.53700200  1
  C  808  1  0.35817600  0.35025200  0.96579800  1
  C  809  1  0.37444800  0.37990800  0.98372100  1
  C  810  1  0.39828800  0.40282800  0.96409400  1
  C  811  1  0.40606400  0.39628200  0.92732400  1
  C  812  1  0.39021000  0.36625100  0.91044700  1
  C  813  1  0.36656100  0.34361200  0.92936700  1
  C  815  1  0.41007100  0.43658800  0.01751510  1
  C  816  1  0.38670400  0.41419600  0.03701010  1
  C  825  1  0.10378800  0.11032300  0.22419200  1
  C  826  1  0.13392400  0.12679400  0.24126300  1
  C  827  1  0.15482000  0.15234200  0.22151800  1
  C  828  1  0.14724900  0.16027400  0.18503900  1
  C  829  1  0.11819200  0.14249000  0.16826400  1
  C  830  1  0.09690500  0.11792200  0.18757500  1
  C  832  1  0.19194100  0.16233600  0.27305200  1
  C  833  1  0.17239000  0.13638100  0.29229400  1
  C  842  1  0.40008400  0.89352100  0.72424200  1
  C  843  1  0.36995600  0.87703700  0.74131300  1
  C  844  1  0.34906200  0.85148900  0.72156500  1
  C  845  1  0.35663100  0.84356800  0.68508000  1
  C  846  1  0.38568100  0.86136300  0.66831100  1
  C  847  1  0.40696400  0.88593600  0.68762500  1
  C  849  1  0.31193600  0.84149200  0.77309400  1
  C  850  1  0.33149300  0.86743500  0.79234600  1
  C  859  1  0.64704500  0.34772900  0.97148800  1
  C  860  1  0.62049000  0.36811500  0.98992200  1
  C  861  1  0.59752200  0.39147800  0.96992400  1
  C  862  1  0.60042000  0.39437600  0.93204700  1
  C  863  1  0.62723800  0.37409800  0.91426200  1
  C  864  1  0.65018700  0.35104900  0.93372400  1
  C  866  1  0.56728200  0.40833200  0.02416910  1
  C  867  1  0.58985100  0.38546300  0.04403510  1
  C  876  1  0.85678000  0.65616500  0.47145500  1
  C  877  1  0.88330000  0.63573600  0.48988800  1
  C  878  1  0.90626000  0.61236700  0.46988700  1
  C  879  1  0.90336000  0.60948600  0.43201000  1
  C  880  1  0.87656000  0.62978000  0.41422000  1
  C  881  1  0.85368100  0.65289900  0.43368200  1
  C  883  1  0.93647100  0.59546800  0.52413500  1
  C  884  1  0.91390400  0.61833900  0.54400600  1
  C  893  1  0.40487700  0.11357100  0.92925200  1
  C  894  1  0.38224000  0.13766000  0.90990300  1
  C  895  1  0.35859400  0.16078900  0.92951000  1
  C  896  1  0.35750900  0.16045700  0.96761100  1
  C  897  1  0.38038000  0.13645000  0.98616800  1
  C  898  1  0.40377600  0.11352800  0.96723100  1
  C  900  1  0.33799000  0.18682000  0.87441700  1
  C  901  1  0.36146900  0.16454000  0.85495700  1
  C  910  1  0.09900700  0.89030900  0.42926800  1
  C  911  1  0.12160000  0.86617700  0.40991700  1
  C  912  1  0.14523000  0.84303200  0.42952100  1
  C  913  1  0.14629900  0.84335200  0.46761900  1
  C  914  1  0.12351000  0.86743200  0.48618500  1
  C  915  1  0.10013600  0.89037600  0.46724600  1
  C  917  1  0.16581800  0.81698900  0.37443000  1
  C  918  1  0.14234800  0.83928100  0.35497100  1
  C  927  1  0.85927600  0.34188100  0.18285200  1
  C  928  1  0.88014700  0.36745200  0.16350900  1
  C  929  1  0.90280500  0.39159200  0.18298200  1
  C  930  1  0.90503700  0.39032100  0.22099900  1
  C  931  1  0.88402700  0.36467100  0.23961500  1
  C  932  1  0.86172900  0.34058800  0.22073200  1
  C  934  1  0.92337700  0.41714400  0.12764000  1
  C  935  1  0.90133500  0.39333900  0.10828900  1
  C  944  1  0.64460300  0.66205300  0.68288600  1
  C  945  1  0.62378100  0.63644100  0.66355000  1
  C  946  1  0.60114100  0.61228900  0.68302900  1
  C  947  1  0.59889800  0.61355400  0.72104800  1
  C  948  1  0.61983600  0.63927700  0.73964600  1
  C  949  1  0.64210400  0.66338400  0.72076000  1
  C  951  1  0.58061000  0.58668500  0.62769300  1
  C  952  1  0.60263300  0.61050300  0.60833600  1
  N  215  1  0.84322600  0.82661500  0.08749400  1
  N  218  1  0.88888400  0.87033800  0.05082000  1
  N  224  1  0.93676200  0.91417600  0.09127200  1
  N  225  1  0.84198700  0.82586900  0.16095000  1
  N  232  1  0.66066700  0.17724800  0.58749200  1
  N  235  1  0.61499700  0.13352700  0.55083000  1
  N  241  1  0.56710400  0.08971300  0.59130000  1
  N  242  1  0.66189700  0.17801900  0.66094900  1
  N  249  1  0.42889500  0.58078000  0.34120200  1
  N  252  1  0.38387500  0.62185500  0.30082100  1
  N  258  1  0.33996300  0.67281000  0.33677000  1
  N  259  1  0.43015800  0.58934000  0.41645000  1
  N  266  1  0.07468100  0.42271300  0.84136500  1
  N  269  1  0.11969800  0.38163400  0.80098100  1
  N  275  1  0.16384900  0.33091600  0.83698200  1
  N  276  1  0.07377000  0.41451900  0.91662400  1
  N  283  1  0.66785300  0.82937500  0.41243000  1
  N  286  1  0.62402600  0.87266400  0.45173100  1
  N  292  1  0.57260200  0.91462600  0.41466700  1
  N  293  1  0.66375500  0.82765200  0.33908600  1
  N  300  1  0.83607700  0.17451900  0.91242800  1
  N  303  1  0.87987200  0.13116200  0.95169500  1
  N  309  1  0.93131200  0.08925500  0.91459300  1
  N  310  1  0.84017800  0.17628900  0.83906300  1
  N  317  1  0.08873900  0.57392200  0.15897100  1
  N  320  1  0.13404900  0.61717600  0.19663900  1
  N  326  1  0.16228900  0.68007800  0.15995700  1
  N  327  1  0.07102100  0.59164400  0.08671500  1
  N  334  1  0.41515500  0.42989700  0.65895700  1
  N  337  1  0.36989200  0.38659700  0.69662700  1
  N  343  1  0.34154700  0.32377800  0.65988100  1
  N  344  1  0.43278000  0.41228400  0.58666000  1
  N  351  1  0.18267400  0.16903700  0.91536600  1
  N  354  1  0.14434500  0.11941600  0.95279900  1
  N  360  1  0.07915700  0.08942200  0.91662400  1
  N  361  1  0.16554600  0.18649700  0.84573800  1
  N  368  1  0.32120900  0.83479000  0.41540800  1
  N  371  1  0.35954700  0.88439300  0.45285900  1
  N  377  1  0.42470000  0.91443700  0.41668100  1
  N  378  1  0.33833400  0.81735000  0.34577700  1
  N  385  1  0.57187500  0.41034800  0.66497200  1
  N  388  1  0.61546900  0.36603100  0.70335000  1
  N  394  1  0.66360400  0.32107500  0.66547600  1
  N  395  1  0.57518200  0.41312400  0.59174400  1
  N  402  1  0.93188800  0.59347300  0.16493600  1
  N  405  1  0.88830800  0.63779600  0.20332200  1
  N  411  1  0.84024200  0.68282700  0.16544900  1
  N  412  1  0.92862400  0.59076100  0.09171600  1
  N  419  1  0.33766100  0.18429600  0.58763500  1
  N  422  1  0.38291300  0.14103600  0.55001700  1
  N  428  1  0.43118100  0.09437500  0.59137500  1
  N  429  1  0.33870300  0.18602600  0.66120300  1
  N  436  1  0.16613900  0.81950400  0.08764900  1
  N  439  1  0.12092800  0.86280900  0.05003100  1
  N  445  1  0.07271000  0.90951800  0.09139700  1
  N  446  1  0.16512900  0.81781800  0.16123700  1
  N  453  1  0.92342800  0.41521900  0.84090500  1
  N  456  1  0.88069300  0.36924800  0.80351000  1
  N  462  1  0.84316400  0.31447000  0.84350600  1
  N  463  1  0.93024800  0.41009800  0.91394400  1
  N  470  1  0.58055100  0.58862600  0.34095700  1
  N  473  1  0.62324200  0.63462700  0.30355100  1
  N  479  1  0.66071000  0.68946400  0.34353400  1
  N  480  1  0.57366900  0.59380100  0.41398300  1
  N  695  1  0.84322600  0.82661500  0.41060700  1
  N  698  1  0.88888400  0.87033800  0.37393300  1
  N  704  1  0.93676200  0.91417600  0.41438500  1
  N  705  1  0.84198700  0.82586900  0.48406300  1
  N  712  1  0.66066700  0.17724800  0.91060500  1
  N  715  1  0.61499700  0.13352700  0.87394300  1
  N  721  1  0.56710400  0.08971300  0.91441300  1
  N  722  1  0.66189700  0.17801900  0.98406200  1
  N  729  1  0.42889500  0.58078000  0.66431500  1
  N  732  1  0.38387500  0.62185500  0.62393400  1
  N  738  1  0.33996300  0.67281000  0.65988300  1
  N  739  1  0.43015800  0.58934000  0.73956300  1
  N  746  1  0.07468100  0.42271300  0.16447800  1
  N  749  1  0.11969800  0.38163400  0.12409400  1
  N  755  1  0.16384900  0.33091600  0.16009500  1
  N  756  1  0.07377000  0.41451900  0.23973700  1
  N  763  1  0.66785300  0.82937500  0.73554300  1
  N  766  1  0.62402600  0.87266400  0.77484400  1
  N  772  1  0.57260200  0.91462600  0.73778000  1
  N  773  1  0.66375500  0.82765200  0.66219900  1
  N  780  1  0.83607700  0.17451900  0.23554100  1
  N  783  1  0.87987200  0.13116200  0.27480800  1
  N  789  1  0.93131200  0.08925500  0.23770600  1
  N  790  1  0.84017800  0.17628900  0.16217600  1
  N  797  1  0.08873900  0.57392200  0.48208400  1
  N  800  1  0.13404900  0.61717600  0.51975200  1
  N  806  1  0.16228900  0.68007800  0.48307000  1
  N  807  1  0.07102100  0.59164400  0.40982800  1
  N  814  1  0.41515500  0.42989700  0.98207000  1
  N  817  1  0.36989200  0.38659700  0.01974010  1
  N  823  1  0.34154700  0.32377800  0.98299400  1
  N  824  1  0.43278000  0.41228400  0.90977300  1
  N  831  1  0.18267400  0.16903700  0.23847900  1
  N  834  1  0.14434500  0.11941600  0.27591200  1
  N  840  1  0.07915700  0.08942200  0.23973700  1
  N  841  1  0.16554600  0.18649700  0.16885100  1
  N  848  1  0.32120900  0.83479000  0.73852100  1
  N  851  1  0.35954700  0.88439300  0.77597200  1
  N  857  1  0.42470000  0.91443700  0.73979400  1
  N  858  1  0.33833400  0.81735000  0.66889000  1
  N  865  1  0.57187500  0.41034800  0.98808500  1
  N  868  1  0.61546900  0.36603100  0.02646310  1
  N  874  1  0.66360400  0.32107500  0.98858900  1
  N  875  1  0.57518200  0.41312400  0.91485700  1
  N  882  1  0.93188800  0.59347300  0.48804900  1
  N  885  1  0.88830800  0.63779600  0.52643500  1
  N  891  1  0.84024200  0.68282700  0.48856200  1
  N  892  1  0.92862400  0.59076100  0.41482900  1
  N  899  1  0.33766100  0.18429600  0.91074800  1
  N  902  1  0.38291300  0.14103600  0.87313000  1
  N  908  1  0.43118100  0.09437500  0.91448800  1
  N  909  1  0.33870300  0.18602600  0.98431600  1
  N  916  1  0.16613900  0.81950400  0.41076200  1
  N  919  1  0.12092800  0.86280900  0.37314400  1
  N  925  1  0.07271000  0.90951800  0.41451000  1
  N  926  1  0.16512900  0.81781800  0.48435000  1
  N  933  1  0.92342800  0.41521900  0.16401800  1
  N  936  1  0.88069300  0.36924800  0.12662300  1
  N  942  1  0.84316400  0.31447000  0.16661900  1
  N  943  1  0.93024800  0.41009800  0.23705700  1
  N  950  1  0.58055100  0.58862600  0.66407000  1
  N  953  1  0.62324200  0.63462700  0.62666400  1
  N  959  1  0.66071000  0.68946400  0.66666667  1
  N  960  1  0.57366900  0.59380100  0.73709600  1
  O  222  1  0.87011100  0.84443200  0.99588300  1
  O  239  1  0.63378900  0.15940400  0.49588400  1
  O  256  1  0.41042900  0.59924800  0.24765900  1
  O  273  1  0.09288400  0.40395600  0.74782900  1
  O  290  1  0.64688900  0.84760700  0.50549400  1
  O  307  1  0.85699000  0.15615700  0.00547900  1
  O  324  1  0.12243500  0.58380100  0.24949700  1
  O  341  1  0.38160700  0.41987500  0.74952300  1
  O  358  1  0.18169000  0.12837100  0.00348900  1
  O  375  1  0.32219500  0.87543500  0.50354200  1
  O  392  1  0.58593300  0.38294000  0.75705700  1
  O  409  1  0.91781400  0.62084000  0.25703000  1
  O  426  1  0.36281300  0.16688800  0.49550700  1
  O  443  1  0.14099700  0.83692800  0.99552200  1
  O  460  1  0.90104100  0.39436800  0.74875500  1
  O  477  1  0.60294000  0.60945900  0.24880400  1
  O  702  1  0.87011100  0.84443200  0.31899600  1
  O  719  1  0.63378900  0.15940400  0.81899700  1
  O  736  1  0.41042900  0.59924800  0.57077200  1
  O  753  1  0.09288400  0.40395600  0.07094210  1
  O  770  1  0.64688900  0.84760700  0.82860700  1
  O  787  1  0.85699000  0.15615700  0.32859200  1
  O  804  1  0.12243500  0.58380100  0.57261000  1
  O  821  1  0.38160700  0.41987500  0.07263610  1
  O  838  1  0.18169000  0.12837100  0.32660200  1
  O  855  1  0.32219500  0.87543500  0.82665500  1
  O  872  1  0.58593300  0.38294000  0.08017010  1
  O  889  1  0.91781400  0.62084000  0.58014300  1
  O  906  1  0.36281300  0.16688800  0.81862000  1
  O  923  1  0.14099700  0.83692800  0.31863500  1
  O  940  1  0.90104100  0.39436800  0.07186810  1
  O  957  1  0.60294000  0.60945900  0.57191700  1
