# generated using pymatgen
data_H11C14
_symmetry_space_group_name_H-M   'P 1'
_cell_length_a   51.33800000
_cell_length_b   51.33800000
_cell_length_c   51.33800000
_cell_angle_alpha   90.00000000
_cell_angle_beta   90.00000000
_cell_angle_gamma   90.00000000
_symmetry_Int_Tables_number   1
_chemical_formula_structural   H11C14
_chemical_formula_sum   'H1056 C1344'
_cell_volume   135305.93194647
_cell_formula_units_Z   96
loop_
 _symmetry_equiv_pos_site_id
 _symmetry_equiv_pos_as_xyz
  1  'x, y, z'
loop_
 _atom_site_type_symbol
 _atom_site_label
 _atom_site_symmetry_multiplicity
 _atom_site_fract_x
 _atom_site_fract_y
 _atom_site_fract_z
 _atom_site_occupancy
  H  7  1  0.22917400  0.15380700  0.34870300  1
  H  8  1  0.29703000  0.12143500  0.38143900  1
  H  9  1  0.25378100  0.17716200  0.42309600  1
  H  16  1  0.23199400  0.09693300  0.35659400  1
  H  17  1  0.27548000  0.05606300  0.30048300  1
  H  18  1  0.29985000  0.13021000  0.32478500  1
  H  25  1  0.79921600  0.87587400  0.34843400  1
  H  26  1  0.73154600  0.90795000  0.38182900  1
  H  27  1  0.77523900  0.85212600  0.42288600  1
  H  34  1  0.79645400  0.93254000  0.35701100  1
  H  35  1  0.75340600  0.97377700  0.30083400  1
  H  36  1  0.72860700  0.89962700  0.32478100  1
  H  43  1  0.80013500  0.15377300  0.57859700  1
  H  44  1  0.73239600  0.12168300  0.54533900  1
  H  45  1  0.77629300  0.17714800  0.50396000  1
  H  52  1  0.79639900  0.09638700  0.56976200  1
  H  53  1  0.75224100  0.05568900  0.62543200  1
  H  54  1  0.72944500  0.13077800  0.60232600  1
  H  61  1  0.23018600  0.87578300  0.57933000  1
  H  62  1  0.29712700  0.90801400  0.54463400  1
  H  63  1  0.25241400  0.85268500  0.50409300  1
  H  70  1  0.23322700  0.93268800  0.56987900  1
  H  71  1  0.27679100  0.97391900  0.62569700  1
  H  72  1  0.30084200  0.89935800  0.60222100  1
  H  79  1  0.39933600  0.22934300  0.10259000  1
  H  80  1  0.43368900  0.29640800  0.07018800  1
  H  81  1  0.47446200  0.25204900  0.12560600  1
  H  88  1  0.40842100  0.23254900  0.04550600  1
  H  89  1  0.35256000  0.27635100  0.00462100  1
  H  90  1  0.37625200  0.30004300  0.07919700  1
  H  97  1  0.39974100  0.79989700  0.82436300  1
  H  98  1  0.43305200  0.73222400  0.85654400  1
  H  99  1  0.47436600  0.77605400  0.80101200  1
  H  106  1  0.40855300  0.79630000  0.88168500  1
  H  107  1  0.35278000  0.75234400  0.92239400  1
  H  108  1  0.37599500  0.72925200  0.84743900  1
  H  115  1  0.63020000  0.79957600  0.10217200  1
  H  116  1  0.59673400  0.73209600  0.06976600  1
  H  117  1  0.55550900  0.77584100  0.12547000  1
  H  124  1  0.62125200  0.79600200  0.04469500  1
  H  125  1  0.67718900  0.75206300  0.00410500  1
  H  126  1  0.65392900  0.72910800  0.07910100  1
  H  133  1  0.63077700  0.23039100  0.82438400  1
  H  134  1  0.59638500  0.29748400  0.85662400  1
  H  135  1  0.55561800  0.25291200  0.80135100  1
  H  142  1  0.62136500  0.23325000  0.88111000  1
  H  143  1  0.67713100  0.27645000  0.92278900  1
  H  144  1  0.65392400  0.30101900  0.84831200  1
  H  151  1  0.15394100  0.39998900  0.17752100  1
  H  152  1  0.12190300  0.43287300  0.24546900  1
  H  153  1  0.17753600  0.47436400  0.20195800  1
  H  160  1  0.09703300  0.40802600  0.18062700  1
  H  161  1  0.05626600  0.35202000  0.22434500  1
  H  162  1  0.13058600  0.37619700  0.24833700  1
  H  169  1  0.87589600  0.39988900  0.74839400  1
  H  170  1  0.90792300  0.43330500  0.68070300  1
  H  171  1  0.85207300  0.47432200  0.72440200  1
  H  178  1  0.93270800  0.40842100  0.74542900  1
  H  179  1  0.97362100  0.35221700  0.70212000  1
  H  180  1  0.89937600  0.37628500  0.67774200  1
  H  187  1  0.15360700  0.62976000  0.74846800  1
  H  188  1  0.12160700  0.59675000  0.68057600  1
  H  189  1  0.17741700  0.55543700  0.72410000  1
  H  196  1  0.09687200  0.62128900  0.74558900  1
  H  197  1  0.05567400  0.67742300  0.70240200  1
  H  198  1  0.12995300  0.65359400  0.67787100  1
  H  205  1  0.87607700  0.63040900  0.17917200  1
  H  206  1  0.90816400  0.59688200  0.24675500  1
  H  207  1  0.85233800  0.55590100  0.20299600  1
  H  214  1  0.93264300  0.62181100  0.18175000  1
  H  215  1  0.97422700  0.67767800  0.22491500  1
  H  216  1  0.90005900  0.65388100  0.24984800  1
  H  223  1  0.15379300  0.22917200  0.57810400  1
  H  224  1  0.12146400  0.29704700  0.54537000  1
  H  225  1  0.17717700  0.25377500  0.50371900  1
  H  232  1  0.09692100  0.23202300  0.57019600  1
  H  233  1  0.05606100  0.27551700  0.62630900  1
  H  234  1  0.13022800  0.29985400  0.60203000  1
  H  241  1  0.87587100  0.79918300  0.57834400  1
  H  242  1  0.90795000  0.73152300  0.54493400  1
  H  243  1  0.85212200  0.77522000  0.50388600  1
  H  250  1  0.93252300  0.79643400  0.56976900  1
  H  251  1  0.97378400  0.75338600  0.62592700  1
  H  252  1  0.89963500  0.72857200  0.60198700  1
  H  259  1  0.15376700  0.80016600  0.34817500  1
  H  260  1  0.12167200  0.73243300  0.38143900  1
  H  261  1  0.17714000  0.77632800  0.42281200  1
  H  268  1  0.09638500  0.79643800  0.35699500  1
  H  269  1  0.05568000  0.75225000  0.30135400  1
  H  270  1  0.13076800  0.72946200  0.32446900  1
  H  277  1  0.87583400  0.23005000  0.34747000  1
  H  278  1  0.90805700  0.29699700  0.38217300  1
  H  279  1  0.85273200  0.25227100  0.42271300  1
  H  286  1  0.93277200  0.23315100  0.35686900  1
  H  287  1  0.97389400  0.27682100  0.30105000  1
  H  288  1  0.89931100  0.30073500  0.32459400  1
  H  295  1  0.22901600  0.39990500  0.82446000  1
  H  296  1  0.29666900  0.43316900  0.85672700  1
  H  297  1  0.25321800  0.47435500  0.80081900  1
  H  304  1  0.23208600  0.40813500  0.88154300  1
  H  305  1  0.27592800  0.35210000  0.92214600  1
  H  306  1  0.29971400  0.37634300  0.84778400  1
  H  313  1  0.79998300  0.39972600  0.10239200  1
  H  314  1  0.73218100  0.43289200  0.07033400  1
  H  315  1  0.77600100  0.47428100  0.12581800  1
  H  322  1  0.79633700  0.40854200  0.04509600  1
  H  323  1  0.75241400  0.35275900  0.00436400  1
  H  324  1  0.72932800  0.37590300  0.07934200  1
  H  331  1  0.79897800  0.63019700  0.82468200  1
  H  332  1  0.73138700  0.59650800  0.85660000  1
  H  333  1  0.77536800  0.55565700  0.80081700  1
  H  340  1  0.79610100  0.62130300  0.88135800  1
  H  341  1  0.75302800  0.67740100  0.92271900  1
  H  342  1  0.72834800  0.65369800  0.84842500  1
  H  349  1  0.23024100  0.63084500  0.10240300  1
  H  350  1  0.29740000  0.59653300  0.07020400  1
  H  351  1  0.25285400  0.55571900  0.12546400  1
  H  358  1  0.23311000  0.62152800  0.04570900  1
  H  359  1  0.27638200  0.67723400  0.00402300  1
  H  360  1  0.30091800  0.65400700  0.07850200  1
  H  367  1  0.40003300  0.15399600  0.74900300  1
  H  368  1  0.43298400  0.12197800  0.68108300  1
  H  369  1  0.47442900  0.17760300  0.72465300  1
  H  376  1  0.40815800  0.09714200  0.74596300  1
  H  377  1  0.35212200  0.05627400  0.70237700  1
  H  378  1  0.37627100  0.13054800  0.67820400  1
  H  385  1  0.39987200  0.87588800  0.17842900  1
  H  386  1  0.43325600  0.90793600  0.24612200  1
  H  387  1  0.47431400  0.85210400  0.20243700  1
  H  394  1  0.40835300  0.93265900  0.18134000  1
  H  395  1  0.35217200  0.97361500  0.22464100  1
  H  396  1  0.37626500  0.89940100  0.24908500  1
  H  403  1  0.62963900  0.15373700  0.17800600  1
  H  404  1  0.59685500  0.12176500  0.24602500  1
  H  405  1  0.55534500  0.17746800  0.20255800  1
  H  412  1  0.62133600  0.09696000  0.18098400  1
  H  413  1  0.67739600  0.05580500  0.22430200  1
  H  414  1  0.65358900  0.13013700  0.24867800  1
  H  421  1  0.63039100  0.87606300  0.74751500  1
  H  422  1  0.59680600  0.90821700  0.67999200  1
  H  423  1  0.55585200  0.85236200  0.72374300  1
  H  430  1  0.62178200  0.93264700  0.74497700  1
  H  431  1  0.67768400  0.97420900  0.70183400  1
  H  432  1  0.65383000  0.90006900  0.67686600  1
  H  439  1  0.79911200  0.89218000  0.56640200  1
  H  440  1  0.73500200  0.92327800  0.52558400  1
  H  441  1  0.77309700  0.85599600  0.49786200  1
  H  448  1  0.79656300  0.95275100  0.55476500  1
  H  449  1  0.75826200  0.98064900  0.62185000  1
  H  450  1  0.73257700  0.91184600  0.58596800  1
  H  457  1  0.23118600  0.13709300  0.56624600  1
  H  458  1  0.29541100  0.10618100  0.52546100  1
  H  459  1  0.25673600  0.17298100  0.49737500  1
  H  466  1  0.23420300  0.07644300  0.55530300  1
  H  467  1  0.27322700  0.04954900  0.62237800  1
  H  468  1  0.29791200  0.11833200  0.58576200  1
  H  475  1  0.23111600  0.89264600  0.36030800  1
  H  476  1  0.29529000  0.92366900  0.40106800  1
  H  477  1  0.25714700  0.85642700  0.42883100  1
  H  484  1  0.23390700  0.95331000  0.37151100  1
  H  485  1  0.27265600  0.98048700  0.30436000  1
  H  486  1  0.29772700  0.91174700  0.34081600  1
  H  493  1  0.79824800  0.13651000  0.36004600  1
  H  494  1  0.73407300  0.10644300  0.40152200  1
  H  495  1  0.77344500  0.17319900  0.42875700  1
  H  502  1  0.79522100  0.07622900  0.37180300  1
  H  503  1  0.75661000  0.04900700  0.30460300  1
  H  504  1  0.73146500  0.11779000  0.34096400  1
  H  511  1  0.61810200  0.79911400  0.84064900  1
  H  512  1  0.57689100  0.73516200  0.87154000  1
  H  513  1  0.54944300  0.77360700  0.80434300  1
  H  520  1  0.60633900  0.79660600  0.90112700  1
  H  521  1  0.67324100  0.75802600  0.92908100  1
  H  522  1  0.63727900  0.73245800  0.86027400  1
  H  529  1  0.61762100  0.23087600  0.08579300  1
  H  530  1  0.57720800  0.29515200  0.05453300  1
  H  531  1  0.54919800  0.25736700  0.12186400  1
  H  538  1  0.60674000  0.23352700  0.02509900  1
  H  539  1  0.67359700  0.27266000  0.99774100  1
  H  540  1  0.63718000  0.29754000  0.06654200  1
  H  547  1  0.41205800  0.23147400  0.84112400  1
  H  548  1  0.45261400  0.29578900  0.87212900  1
  H  549  1  0.48072200  0.25745900  0.80513100  1
  H  556  1  0.42300500  0.23452200  0.90184500  1
  H  557  1  0.35577800  0.27336900  0.92867400  1
  H  558  1  0.39235300  0.29809700  0.85987600  1
  H  565  1  0.41176000  0.79870900  0.08574100  1
  H  566  1  0.45278200  0.73466500  0.05477700  1
  H  567  1  0.48051200  0.77317100  0.12183300  1
  H  574  1  0.42350500  0.79610300  0.02524000  1
  H  575  1  0.35622800  0.75798100  0.99752500  1
  H  576  1  0.39221900  0.73223200  0.06627300  1
  H  583  1  0.89229500  0.61826600  0.74752500  1
  H  584  1  0.92317500  0.57694200  0.68363700  1
  H  585  1  0.85590900  0.54962500  0.72203100  1
  H  592  1  0.95301200  0.60659000  0.74474500  1
  H  593  1  0.98057700  0.67342800  0.70576200  1
  H  594  1  0.91156300  0.63736300  0.68089000  1
  H  601  1  0.13672500  0.61782900  0.17947900  1
  H  602  1  0.10622300  0.57655200  0.24357600  1
  H  603  1  0.17335600  0.54929000  0.20487000  1
  H  610  1  0.07637700  0.60661900  0.18216200  1
  H  611  1  0.04921100  0.67349600  0.22137200  1
  H  612  1  0.11776700  0.63667300  0.24639100  1
  H  619  1  0.89282700  0.41202300  0.17937000  1
  H  620  1  0.92369900  0.45313500  0.24340500  1
  H  621  1  0.85653600  0.48068100  0.20495600  1
  H  628  1  0.95356200  0.42322900  0.18226700  1
  H  629  1  0.98034700  0.35603900  0.22119900  1
  H  630  1  0.91167400  0.39280900  0.24601100  1
  H  637  1  0.13678100  0.41188400  0.74662100  1
  H  638  1  0.10628300  0.45291200  0.68235700  1
  H  639  1  0.17308200  0.48062300  0.72131000  1
  H  646  1  0.07627600  0.42330100  0.74353800  1
  H  647  1  0.04931600  0.35593400  0.70503600  1
  H  648  1  0.11806900  0.39240000  0.67996300  1
  H  655  1  0.89218200  0.79909300  0.36036100  1
  H  656  1  0.92329000  0.73499000  0.40118100  1
  H  657  1  0.85600600  0.77307900  0.42890500  1
  H  664  1  0.95274700  0.79655500  0.37200000  1
  H  665  1  0.98065500  0.75827300  0.30490900  1
  H  666  1  0.91185900  0.73256300  0.34078900  1
  H  673  1  0.13713100  0.23123200  0.36054800  1
  H  674  1  0.10624300  0.29546800  0.40133900  1
  H  675  1  0.17300300  0.25673600  0.42944400  1
  H  682  1  0.07648000  0.23428700  0.37148000  1
  H  683  1  0.04964900  0.27330500  0.30437500  1
  H  684  1  0.11842600  0.29796300  0.34102600  1
  H  691  1  0.89260300  0.23113100  0.56650300  1
  H  692  1  0.92367900  0.29526900  0.52572400  1
  H  693  1  0.85642500  0.25714900  0.49795100  1
  H  700  1  0.95329900  0.23392200  0.55528300  1
  H  701  1  0.98047500  0.27267000  0.62243400  1
  H  702  1  0.91171300  0.29771700  0.58600100  1
  H  709  1  0.13654800  0.79833500  0.56673100  1
  H  710  1  0.10641300  0.73420300  0.52523700  1
  H  711  1  0.17324200  0.77347800  0.49804100  1
  H  718  1  0.07623100  0.79536500  0.55496400  1
  H  719  1  0.04896500  0.75669900  0.62211500  1
  H  720  1  0.11775700  0.73156600  0.58576700  1
  H  727  1  0.79923900  0.61787000  0.08583000  1
  H  728  1  0.73519300  0.57663200  0.05517900  1
  H  729  1  0.77369900  0.54935600  0.12240700  1
  H  736  1  0.79635000  0.60631600  0.02511000  1
  H  737  1  0.75721400  0.67321000  0.99788800  1
  H  738  1  0.73255200  0.63686000  0.06682000  1
  H  745  1  0.23075300  0.61790700  0.84110500  1
  H  746  1  0.29474300  0.57684400  0.87213400  1
  H  747  1  0.25654100  0.54931500  0.80484100  1
  H  754  1  0.23342000  0.60679300  0.90176800  1
  H  755  1  0.27276500  0.67356400  0.92901200  1
  H  756  1  0.29748900  0.63698300  0.86023100  1
  H  763  1  0.23160300  0.41224700  0.08561700  1
  H  764  1  0.29593500  0.45280900  0.05466600  1
  H  765  1  0.25761800  0.48084100  0.12170600  1
  H  772  1  0.23451700  0.42321900  0.02501300  1
  H  773  1  0.27314300  0.35588500  0.99813500  1
  H  774  1  0.29824900  0.39256700  0.06674400  1
  H  781  1  0.79871300  0.41187100  0.84106600  1
  H  782  1  0.73456400  0.45275100  0.87200200  1
  H  783  1  0.77293300  0.48048500  0.80487000  1
  H  790  1  0.79610700  0.42351700  0.90153000  1
  H  791  1  0.75801000  0.35622200  0.92924200  1
  H  792  1  0.73220500  0.39224600  0.86053500  1
  H  799  1  0.61813900  0.89247000  0.17937900  1
  H  800  1  0.57690300  0.92327600  0.24336000  1
  H  801  1  0.54955100  0.85603900  0.20493800  1
  H  808  1  0.60651200  0.95312700  0.18216700  1
  H  809  1  0.67344700  0.98062900  0.22102800  1
  H  810  1  0.63732000  0.91169000  0.24601100  1
  H  817  1  0.61785100  0.13675500  0.74744100  1
  H  818  1  0.57666300  0.10623600  0.68329200  1
  H  819  1  0.54933600  0.17336800  0.72194900  1
  H  826  1  0.60668200  0.07637400  0.74472000  1
  H  827  1  0.67355200  0.04922400  0.70549000  1
  H  828  1  0.63675300  0.11781400  0.68053200  1
  H  835  1  0.41197000  0.89284800  0.74746100  1
  H  836  1  0.45307000  0.92376500  0.68343800  1
  H  837  1  0.48061500  0.85656700  0.72182500  1
  H  844  1  0.42322700  0.95361200  0.74457400  1
  H  845  1  0.35606000  0.98047900  0.70565500  1
  H  846  1  0.39272900  0.91175000  0.68085300  1
  H  853  1  0.41193100  0.13645600  0.18032400  1
  H  854  1  0.45302200  0.10624200  0.24467900  1
  H  855  1  0.48060700  0.17296800  0.20549100  1
  H  862  1  0.42335900  0.07616600  0.18339700  1
  H  863  1  0.35588700  0.04927600  0.22176200  1
  H  864  1  0.39250700  0.11787000  0.24705300  1
  H  870  1  0.23191000  0.20966600  0.35696800  1
  H  872  1  0.16372100  0.19970600  0.42157900  1
  H  874  1  0.21028100  0.14483800  0.42066700  1
  H  875  1  0.17667900  0.15082700  0.42249200  1
  H  876  1  0.19821800  0.16657300  0.44447000  1
  H  878  1  0.18453700  0.26362200  0.35648100  1
  H  879  1  0.19795700  0.24192600  0.33350800  1
  H  880  1  0.21835100  0.25848500  0.35596900  1
  H  886  1  0.79711200  0.81998000  0.35646500  1
  H  888  1  0.86519800  0.83026700  0.42114100  1
  H  890  1  0.81837700  0.88489900  0.42020000  1
  H  891  1  0.85200300  0.87906500  0.42205200  1
  H  892  1  0.83052600  0.86322100  0.44401800  1
  H  894  1  0.84492700  0.76640400  0.35582800  1
  H  895  1  0.83133200  0.78806200  0.33292700  1
  H  896  1  0.81106500  0.77125000  0.35531600  1
  H  902  1  0.79787900  0.20941000  0.57047500  1
  H  904  1  0.86588000  0.19999800  0.50558700  1
  H  906  1  0.81969800  0.14481900  0.50661200  1
  H  907  1  0.85324200  0.15106600  0.50462100  1
  H  908  1  0.83147800  0.16667200  0.48276600  1
  H  910  1  0.84509800  0.26351300  0.57106100  1
  H  911  1  0.83183700  0.24165600  0.59397000  1
  H  912  1  0.81129600  0.25827900  0.57169000  1
  H  918  1  0.23158900  0.82003300  0.57084100  1
  H  920  1  0.16322400  0.83053200  0.50648300  1
  H  922  1  0.20951800  0.88559200  0.50804900  1
  H  923  1  0.17597200  0.87939600  0.50601500  1
  H  924  1  0.19769000  0.86405300  0.48393200  1
  H  926  1  0.18416900  0.76611200  0.57103800  1
  H  927  1  0.19768800  0.78759700  0.59414300  1
  H  928  1  0.21799700  0.77121100  0.57147600  1
  H  934  1  0.40781900  0.23118200  0.15832900  1
  H  936  1  0.47238000  0.16293300  0.14833300  1
  H  938  1  0.47078400  0.20892700  0.09301000  1
  H  939  1  0.47288400  0.17541700  0.09938200  1
  H  940  1  0.49489500  0.19726700  0.11464400  1
  H  942  1  0.40773900  0.18415100  0.21258200  1
  H  943  1  0.38459500  0.19740000  0.19096700  1
  H  944  1  0.40715500  0.21793400  0.20721900  1
  H  950  1  0.40803700  0.79782700  0.76862000  1
  H  952  1  0.47268700  0.86592500  0.77895600  1
  H  954  1  0.47159800  0.81921700  0.83367600  1
  H  955  1  0.47349200  0.85282700  0.82777200  1
  H  956  1  0.49547400  0.83129500  0.81202100  1
  H  958  1  0.40756800  0.84553000  0.71494100  1
  H  959  1  0.38459800  0.83195800  0.73654300  1
  H  960  1  0.40706100  0.81167600  0.71984900  1
  H  966  1  0.62201900  0.79741600  0.15782700  1
  H  968  1  0.55739500  0.86559900  0.14793700  1
  H  970  1  0.55830000  0.81912100  0.09302600  1
  H  971  1  0.55642300  0.85270100  0.09909500  1
  H  972  1  0.53448400  0.83109500  0.11480400  1
  H  974  1  0.62274600  0.84497900  0.21163300  1
  H  975  1  0.64561000  0.83142000  0.18991400  1
  H  976  1  0.62318000  0.81113300  0.20664600  1
  H  982  1  0.62223200  0.23177200  0.76859900  1
  H  984  1  0.55761100  0.16367900  0.77925600  1
  H  986  1  0.55941100  0.21004000  0.83424600  1
  H  987  1  0.55722900  0.17649900  0.82807900  1
  H  988  1  0.53521800  0.19829800  0.81274200  1
  H  990  1  0.62220800  0.18423000  0.71477300  1
  H  991  1  0.64537600  0.19769400  0.73622900  1
  H  992  1  0.62280600  0.21806900  0.71979500  1
  H  998  1  0.20978000  0.40808200  0.18010500  1
  H  1000  1  0.20042500  0.47320500  0.11231600  1
  H  1002  1  0.14518100  0.47196900  0.15843700  1
  H  1003  1  0.15143900  0.47405700  0.12489800  1
  H  1004  1  0.16701400  0.49586500  0.14673100  1
  H  1006  1  0.26406400  0.40784300  0.13310400  1
  H  1007  1  0.24220300  0.38480100  0.14613900  1
  H  1008  1  0.25866800  0.40702100  0.16687400  1
  H  1014  1  0.81996800  0.40792600  0.74617100  1
  H  1016  1  0.83006400  0.47264400  0.81425300  1
  H  1018  1  0.88486800  0.47161200  0.76762500  1
  H  1019  1  0.87893100  0.47348800  0.80123200  1
  H  1020  1  0.86317400  0.49545600  0.77969200  1
  H  1022  1  0.76617400  0.40742400  0.79374000  1
  H  1023  1  0.78786300  0.38446400  0.78029000  1
  H  1024  1  0.77119200  0.40685100  0.75990600  1
  H  1030  1  0.20952100  0.62180300  0.74608900  1
  H  1032  1  0.19951700  0.55703200  0.81412500  1
  H  1034  1  0.14481000  0.55786400  0.76739500  1
  H  1035  1  0.15070400  0.55598800  0.80100800  1
  H  1036  1  0.16658200  0.53410000  0.77947600  1
  H  1038  1  0.26320300  0.62249500  0.79379100  1
  H  1039  1  0.24149200  0.64536300  0.78022600  1
  H  1040  1  0.25830000  0.62299300  0.75993500  1
  H  1046  1  0.82010300  0.62221000  0.18102100  1
  H  1048  1  0.83081800  0.55743700  0.11309100  1
  H  1050  1  0.88539400  0.55878700  0.15995100  1
  H  1051  1  0.87958300  0.55678700  0.12633300  1
  H  1052  1  0.86383700  0.53482100  0.14788100  1
  H  1054  1  0.76659900  0.62246900  0.13310700  1
  H  1055  1  0.78809700  0.64550900  0.14672000  1
  H  1056  1  0.77137300  0.62304800  0.16698000  1
  H  1062  1  0.20965200  0.23187900  0.56985700  1
  H  1064  1  0.19970000  0.16371900  0.50521300  1
  H  1066  1  0.14484400  0.21029100  0.50612500  1
  H  1067  1  0.15082800  0.17668900  0.50428400  1
  H  1068  1  0.16658600  0.19823700  0.48232500  1
  H  1070  1  0.26359400  0.18448800  0.57034800  1
  H  1071  1  0.24189300  0.19790600  0.59331700  1
  H  1072  1  0.25846800  0.21830400  0.57087200  1
  H  1078  1  0.81997200  0.79709600  0.57030500  1
  H  1080  1  0.83029000  0.86518400  0.50563400  1
  H  1082  1  0.88491100  0.81834800  0.50658400  1
  H  1083  1  0.87908500  0.85197400  0.50473400  1
  H  1084  1  0.86324000  0.83050100  0.48276400  1
  H  1086  1  0.76641000  0.84492800  0.57093400  1
  H  1087  1  0.78805800  0.83132300  0.59383900  1
  H  1088  1  0.77124400  0.81106500  0.57144500  1
  H  1094  1  0.20941000  0.79791100  0.35630900  1
  H  1096  1  0.19997500  0.86591300  0.42119300  1
  H  1098  1  0.14479500  0.81973300  0.42014900  1
  H  1099  1  0.15104000  0.85327500  0.42213800  1
  H  1100  1  0.16663900  0.83151500  0.44400100  1
  H  1102  1  0.26351100  0.84513100  0.35574100  1
  H  1103  1  0.24166300  0.83186400  0.33282600  1
  H  1104  1  0.25828300  0.81132800  0.35511300  1
  H  1110  1  0.82010700  0.23148400  0.35594700  1
  H  1112  1  0.83047300  0.16312400  0.42033000  1
  H  1114  1  0.88560400  0.20933600  0.41877600  1
  H  1115  1  0.87935700  0.17580000  0.42082100  1
  H  1116  1  0.86403300  0.19755200  0.44288700  1
  H  1118  1  0.76610200  0.18416500  0.35575400  1
  H  1119  1  0.78762000  0.19762600  0.33264700  1
  H  1120  1  0.77127100  0.21798100  0.35529700  1
  H  1126  1  0.23160100  0.40806500  0.76851300  1
  H  1128  1  0.16336500  0.47265200  0.77834400  1
  H  1130  1  0.20973600  0.47163500  0.83337200  1
  H  1131  1  0.17614900  0.47345700  0.82728700  1
  H  1132  1  0.19772300  0.49547700  0.81164900  1
  H  1134  1  0.18434900  0.40759700  0.71444000  1
  H  1135  1  0.19773500  0.38461600  0.73614700  1
  H  1136  1  0.21815600  0.40709800  0.71964900  1
  H  1142  1  0.79784800  0.40801600  0.15818700  1
  H  1144  1  0.86589000  0.47272800  0.14783400  1
  H  1146  1  0.81917600  0.47157700  0.09311400  1
  H  1147  1  0.85278600  0.47349600  0.09900700  1
  H  1148  1  0.83124300  0.49546600  0.11475700  1
  H  1150  1  0.84551700  0.40764200  0.21189600  1
  H  1151  1  0.83198900  0.38463700  0.19030300  1
  H  1152  1  0.81166800  0.40709300  0.20696200  1
  H  1158  1  0.79715100  0.62222200  0.76878200  1
  H  1160  1  0.86523100  0.55754500  0.77903000  1
  H  1162  1  0.81844100  0.55847800  0.83367800  1
  H  1163  1  0.85205600  0.55658600  0.82781200  1
  H  1164  1  0.83053800  0.53466100  0.81196800  1
  H  1166  1  0.84496200  0.62287800  0.71519800  1
  H  1167  1  0.83133800  0.64577200  0.73684500  1
  H  1168  1  0.81109800  0.62335000  0.72004400  1
  H  1174  1  0.23165500  0.62231700  0.15817800  1
  H  1176  1  0.16365600  0.55758400  0.14762700  1
  H  1178  1  0.20994600  0.55944200  0.09257700  1
  H  1179  1  0.17641500  0.55720800  0.09878300  1
  H  1180  1  0.19826900  0.53523800  0.11410100  1
  H  1182  1  0.18420400  0.62221400  0.21207900  1
  H  1183  1  0.19757700  0.64540900  0.19059600  1
  H  1184  1  0.21803200  0.62288200  0.20699300  1
  H  1190  1  0.40812300  0.20984900  0.74649800  1
  H  1192  1  0.47306300  0.20026700  0.81443100  1
  H  1194  1  0.47199000  0.14519900  0.76809600  1
  H  1195  1  0.47396900  0.15132600  0.80166600  1
  H  1196  1  0.49583600  0.16700000  0.77996300  1
  H  1198  1  0.40772800  0.26395700  0.79369700  1
  H  1199  1  0.38473900  0.24214100  0.78049900  1
  H  1200  1  0.40702600  0.25869200  0.75990600  1
  H  1206  1  0.40793200  0.81997400  0.18066100  1
  H  1208  1  0.47256500  0.83017300  0.11251600  1
  H  1210  1  0.47159300  0.88490700  0.15922300  1
  H  1211  1  0.47342800  0.87901600  0.12560500  1
  H  1212  1  0.49541900  0.86322900  0.14709700  1
  H  1214  1  0.40738900  0.76623200  0.13303600  1
  H  1215  1  0.38443500  0.78789700  0.14653600  1
  H  1216  1  0.40685700  0.77121700  0.16687600  1
  H  1222  1  0.62170800  0.20958800  0.18052300  1
  H  1224  1  0.55661700  0.20011100  0.11272300  1
  H  1226  1  0.55761500  0.14509400  0.15910500  1
  H  1227  1  0.55558300  0.15121300  0.12553900  1
  H  1228  1  0.53380200  0.16695300  0.14728000  1
  H  1230  1  0.62225500  0.26356700  0.13316100  1
  H  1231  1  0.64516200  0.24169600  0.14641100  1
  H  1232  1  0.62298000  0.25842100  0.16697500  1
  H  1238  1  0.62221200  0.82012200  0.74557100  1
  H  1240  1  0.55753100  0.83066200  0.81361600  1
  H  1242  1  0.55877000  0.88532400  0.76684800  1
  H  1243  1  0.55683000  0.87945500  0.80046000  1
  H  1244  1  0.53483400  0.86373100  0.77892300  1
  H  1246  1  0.62257100  0.76651900  0.79336600  1
  H  1247  1  0.64558500  0.78807600  0.77980100  1
  H  1248  1  0.62313200  0.77138300  0.75950800  1
  H  1254  1  0.73144900  0.70953200  0.85630600  1
  H  1256  1  0.66357300  0.70118100  0.92146600  1
  H  1258  1  0.70908900  0.64543900  0.92045500  1
  H  1259  1  0.67562500  0.65208300  0.92254400  1
  H  1260  1  0.69765100  0.66750200  0.94426800  1
  H  1262  1  0.68505500  0.76433900  0.85587400  1
  H  1263  1  0.69781300  0.74224000  0.83290200  1
  H  1264  1  0.71875900  0.75854800  0.85504000  1
  H  1270  1  0.29762200  0.32037100  0.85550900  1
  H  1272  1  0.36547600  0.32995500  0.92053300  1
  H  1274  1  0.31916900  0.38501300  0.91940900  1
  H  1275  1  0.35273300  0.37888100  0.92143900  1
  H  1276  1  0.33099900  0.36319300  0.94326300  1
  H  1278  1  0.34490900  0.26632100  0.85508100  1
  H  1279  1  0.33168600  0.28813000  0.83210200  1
  H  1280  1  0.31110500  0.27153600  0.85436600  1
  H  1286  1  0.29803700  0.70954300  0.07043600  1
  H  1288  1  0.36573900  0.70111700  0.00511200  1
  H  1290  1  0.32021500  0.64540000  0.00625200  1
  H  1291  1  0.35366600  0.65205900  0.00405700  1
  H  1292  1  0.33156800  0.66745900  0.98239200  1
  H  1294  1  0.34454400  0.76425300  0.07080800  1
  H  1295  1  0.33179400  0.74215900  0.09378800  1
  H  1296  1  0.31082900  0.75854200  0.07172500  1
  H  1302  1  0.73149400  0.32016300  0.07101400  1
  H  1304  1  0.66355000  0.32949900  0.00603000  1
  H  1306  1  0.70905600  0.38521000  0.00783500  1
  H  1307  1  0.67561700  0.37853900  0.00552200  1
  H  1308  1  0.69774500  0.36344800  0.98367000  1
  H  1310  1  0.68493200  0.26550300  0.07086200  1
  H  1311  1  0.69776800  0.28728600  0.09408600  1
  H  1312  1  0.71865300  0.27119100  0.07173800  1
  H  1318  1  0.90749800  0.73161900  0.65799700  1
  H  1320  1  0.97263900  0.66378600  0.64914000  1
  H  1322  1  0.97155200  0.70961900  0.59367000  1
  H  1323  1  0.97362300  0.67611000  0.60009600  1
  H  1324  1  0.99537900  0.69802200  0.61563400  1
  H  1326  1  0.90724500  0.68500200  0.71261300  1
  H  1327  1  0.88419600  0.69786800  0.69065900  1
  H  1328  1  0.90641500  0.71872800  0.70696000  1
  H  1334  1  0.90730500  0.29827100  0.26896500  1
  H  1336  1  0.97239800  0.36614800  0.27782400  1
  H  1338  1  0.97127600  0.32041200  0.33333333  1
  H  1339  1  0.97337700  0.35390000  0.32684400  1
  H  1340  1  0.99513300  0.33193800  0.31137600  1
  H  1342  1  0.90686300  0.34505100  0.21447500  1
  H  1343  1  0.88390200  0.33202100  0.23642000  1
  H  1344  1  0.90614800  0.31129000  0.21998500  1
  H  1350  1  0.12249600  0.29762000  0.65811000  1
  H  1352  1  0.05731500  0.36528700  0.64831600  1
  H  1354  1  0.05848200  0.31876200  0.59344200  1
  H  1355  1  0.05638500  0.35234400  0.59944900  1
  H  1356  1  0.03462600  0.33061700  0.61524100  1
  H  1358  1  0.12281800  0.34509200  0.71200000  1
  H  1359  1  0.14582200  0.33183400  0.69023800  1
  H  1360  1  0.12359900  0.31127100  0.70690800  1
  H  1366  1  0.12238100  0.73126800  0.26877000  1
  H  1368  1  0.05743900  0.66333000  0.27838700  1
  H  1370  1  0.05927200  0.70901200  0.33394600  1
  H  1371  1  0.05694700  0.67555700  0.32737000  1
  H  1372  1  0.03509200  0.69764800  0.31222900  1
  H  1374  1  0.12228100  0.68444700  0.21432700  1
  H  1375  1  0.14547200  0.69746800  0.23603200  1
  H  1376  1  0.12306500  0.71820500  0.21982600  1
  H  1382  1  0.70961000  0.90777300  0.68001700  1
  H  1384  1  0.70151800  0.97319400  0.61236600  1
  H  1386  1  0.64579300  0.97228500  0.65790500  1
  H  1387  1  0.65242400  0.97443900  0.62444200  1
  H  1388  1  0.66795000  0.99603300  0.64652000  1
  H  1390  1  0.76442300  0.90728600  0.63364400  1
  H  1391  1  0.74222300  0.88435200  0.64629600  1
  H  1392  1  0.75860600  0.90633900  0.66733900  1
  H  1398  1  0.32024100  0.90722900  0.24643000  1
  H  1400  1  0.32941900  0.97249100  0.31411800  1
  H  1402  1  0.38480500  0.97112800  0.26819700  1
  H  1403  1  0.37844300  0.97328200  0.30171200  1
  H  1404  1  0.36294400  0.99505500  0.27979100  1
  H  1406  1  0.26580500  0.90711400  0.29327200  1
  H  1407  1  0.28769200  0.88402400  0.28036800  1
  H  1408  1  0.27131000  0.90620100  0.25952100  1
  H  1414  1  0.70952600  0.12211700  0.24627600  1
  H  1416  1  0.69979400  0.05702700  0.31404300  1
  H  1418  1  0.64474900  0.05830900  0.26772800  1
  H  1419  1  0.65089900  0.05620200  0.30128200  1
  H  1420  1  0.66653200  0.03439400  0.27949100  1
  H  1422  1  0.76358300  0.12233300  0.29355700  1
  H  1423  1  0.74183500  0.14538500  0.28036000  1
  H  1424  1  0.75837700  0.12310400  0.25975300  1
  H  1430  1  0.32029500  0.12278100  0.68046900  1
  H  1432  1  0.32977000  0.05760200  0.61275700  1
  H  1434  1  0.38484000  0.05874000  0.65904800  1
  H  1435  1  0.37868500  0.05662000  0.62549400  1
  H  1436  1  0.36296700  0.03489400  0.64730900  1
  H  1438  1  0.26617900  0.12310800  0.63326600  1
  H  1439  1  0.28799900  0.14611500  0.64642200  1
  H  1440  1  0.27144200  0.12387300  0.66705800  1
  H  1446  1  0.70968400  0.73129300  0.07088900  1
  H  1448  1  0.70049100  0.66310600  0.00615300  1
  H  1450  1  0.64481100  0.70865300  0.00759700  1
  H  1451  1  0.65147900  0.67520400  0.00542400  1
  H  1452  1  0.66666667  0.69725000  0.98354700  1
  H  1454  1  0.76429000  0.68466300  0.07111000  1
  H  1455  1  0.74246800  0.69767300  0.09419900  1
  H  1456  1  0.75866100  0.71840000  0.07177600  1
  H  1462  1  0.32052300  0.29789500  0.07121300  1
  H  1464  1  0.32992900  0.36573500  0.00614700  1
  H  1466  1  0.38519800  0.31968700  0.00741800  1
  H  1467  1  0.37889100  0.35321200  0.00532000  1
  H  1468  1  0.36336300  0.33135700  0.98349800  1
  H  1470  1  0.26632700  0.34502000  0.07156600  1
  H  1471  1  0.28816100  0.33187300  0.09456500  1
  H  1472  1  0.27162700  0.31122800  0.07231400  1
  H  1478  1  0.70944000  0.29808400  0.85635500  1
  H  1480  1  0.70114200  0.36577800  0.92170400  1
  H  1482  1  0.64536500  0.32032800  0.92058400  1
  H  1483  1  0.65207100  0.35377100  0.92278700  1
  H  1484  1  0.66745400  0.33164400  0.94443400  1
  H  1486  1  0.76420100  0.34453700  0.85595300  1
  H  1487  1  0.74207500  0.33181500  0.83298800  1
  H  1488  1  0.75845400  0.31082700  0.85503000  1
  H  1494  1  0.32020200  0.73139300  0.85575100  1
  H  1496  1  0.32958100  0.66344100  0.92071500  1
  H  1498  1  0.38524300  0.70900600  0.91895600  1
  H  1499  1  0.37860500  0.67556100  0.92126400  1
  H  1500  1  0.36347200  0.69767300  0.94310000  1
  H  1502  1  0.26557300  0.68479600  0.85588900  1
  H  1503  1  0.28732900  0.69769200  0.83267200  1
  H  1504  1  0.27122800  0.71852500  0.85506700  1
  H  1510  1  0.73161100  0.90751800  0.26875000  1
  H  1512  1  0.66381500  0.97268600  0.27771100  1
  H  1514  1  0.70967200  0.97151300  0.33315900  1
  H  1515  1  0.67616100  0.97360300  0.32675000  1
  H  1516  1  0.69807200  0.99536900  0.31122600  1
  H  1518  1  0.68494400  0.90733100  0.21417300  1
  H  1519  1  0.69782300  0.88426000  0.23609600  1
  H  1520  1  0.71867500  0.90648100  0.21978700  1
  H  1526  1  0.29827600  0.90738300  0.65783900  1
  H  1528  1  0.36611300  0.97252600  0.64905000  1
  H  1530  1  0.32043900  0.97136500  0.59347100  1
  H  1531  1  0.35391700  0.97349600  0.60001800  1
  H  1532  1  0.33192000  0.99523400  0.61545900  1
  H  1534  1  0.34497300  0.90700300  0.71239700  1
  H  1535  1  0.33201400  0.88401700  0.69043700  1
  H  1536  1  0.31122600  0.90624000  0.70682800  1
  H  1542  1  0.29766500  0.12247700  0.26869400  1
  H  1544  1  0.36525200  0.05722200  0.27858100  1
  H  1546  1  0.31868800  0.05847600  0.33341800  1
  H  1547  1  0.35227200  0.05634000  0.32743600  1
  H  1548  1  0.33053500  0.03459300  0.31164500  1
  H  1550  1  0.34522400  0.12274800  0.21487200  1
  H  1551  1  0.33194300  0.14576100  0.23661100  1
  H  1552  1  0.31139100  0.12355600  0.21990000  1
  H  1558  1  0.73130100  0.12241000  0.65801600  1
  H  1560  1  0.66336100  0.05745500  0.64852000  1
  H  1562  1  0.70896500  0.05926900  0.59289700  1
  H  1563  1  0.67552000  0.05693800  0.59952300  1
  H  1564  1  0.69763800  0.03509600  0.61464300  1
  H  1566  1  0.68456000  0.12232300  0.71252500  1
  H  1567  1  0.69754000  0.14551000  0.69079300  1
  H  1568  1  0.71830900  0.12311500  0.70697400  1
  H  1574  1  0.90779800  0.70964700  0.24671600  1
  H  1576  1  0.97319400  0.70151000  0.31438500  1
  H  1578  1  0.97227900  0.64579700  0.26883000  1
  H  1579  1  0.97442500  0.65242000  0.30229700  1
  H  1580  1  0.99603300  0.66794400  0.28022900  1
  H  1582  1  0.90731100  0.76444200  0.29311100  1
  H  1583  1  0.88437700  0.74225600  0.28043800  1
  H  1584  1  0.90638000  0.75864100  0.25941200  1
  H  1590  1  0.90721000  0.32028000  0.68036800  1
  H  1592  1  0.97247400  0.32941700  0.61267700  1
  H  1594  1  0.97111000  0.38483000  0.65856300  1
  H  1595  1  0.97327400  0.37844100  0.62505600  1
  H  1596  1  0.99504000  0.36295800  0.64699500  1
  H  1598  1  0.90708900  0.26582300  0.63355100  1
  H  1599  1  0.88399900  0.28771900  0.64643800  1
  H  1600  1  0.90617000  0.27134700  0.66730000  1
  H  1606  1  0.12197500  0.70954500  0.68045400  1
  H  1608  1  0.05695500  0.69990700  0.61260500  1
  H  1610  1  0.05813100  0.64483700  0.65889700  1
  H  1611  1  0.05608500  0.65099400  0.62534000  1
  H  1612  1  0.03425300  0.66666667  0.64709800  1
  H  1614  1  0.12229900  0.76362800  0.63320400  1
  H  1615  1  0.14531200  0.74184900  0.64642200  1
  H  1616  1  0.12302100  0.75840600  0.66700600  1
  H  1622  1  0.12281600  0.32021300  0.24620600  1
  H  1624  1  0.05774600  0.32985900  0.31400000  1
  H  1626  1  0.05884000  0.38483400  0.26759500  1
  H  1627  1  0.05677100  0.37874900  0.30116500  1
  H  1628  1  0.03500300  0.36299700  0.27941900  1
  H  1630  1  0.12321500  0.26621200  0.29354500  1
  H  1631  1  0.14619700  0.28799200  0.28028000  1
  H  1632  1  0.12390900  0.27138600  0.25973400  1
  H  1638  1  0.22299300  0.04324500  0.29753600  1
  H  1640  1  0.25199300  0.00068900  0.37638200  1
  H  1642  1  0.27492900  0.06104500  0.37521200  1
  H  1643  1  0.26236000  0.03833000  0.39757900  1
  H  1644  1  0.24316500  0.06515600  0.38871400  1
  H  1646  1  0.21660800  0.97144500  0.29618400  1
  H  1647  1  0.23041000  0.99613400  0.27643100  1
  H  1648  1  0.19787500  0.99890800  0.28780300  1
  H  1654  1  0.80602400  0.98612400  0.29805200  1
  H  1656  1  0.77698700  0.02895200  0.37675100  1
  H  1658  1  0.75376400  0.96871800  0.37564000  1
  H  1659  1  0.76643100  0.99138700  0.39800600  1
  H  1660  1  0.78549700  0.96445600  0.38917200  1
  H  1662  1  0.81277300  0.05790500  0.29663400  1
  H  1663  1  0.79896100  0.03324500  0.27685000  1
  H  1664  1  0.83143400  0.03035400  0.28837500  1
  H  1670  1  0.80658600  0.04383900  0.62751600  1
  H  1672  1  0.77683100  0.99976000  0.54974100  1
  H  1674  1  0.76043300  0.06817400  0.54919200  1
  H  1675  1  0.74786600  0.03731400  0.54273300  1
  H  1676  1  0.77740000  0.04735600  0.52787700  1
  H  1678  1  0.81559700  0.97230800  0.62894000  1
  H  1679  1  0.80137600  0.99651000  0.64899200  1
  H  1680  1  0.83349100  0.00049300  0.63680400  1
  H  1686  1  0.22450400  0.98621400  0.62921100  1
  H  1688  1  0.25192100  0.02940500  0.55015600  1
  H  1690  1  0.27400200  0.96832100  0.54960300  1
  H  1691  1  0.26125100  0.99187000  0.52824100  1
  H  1692  1  0.24153500  0.96552500  0.53742900  1
  H  1694  1  0.21747100  0.05794100  0.63103400  1
  H  1695  1  0.23166100  0.03324900  0.65051100  1
  H  1696  1  0.19904000  0.03028100  0.63943900  1
  H  1702  1  0.34909300  0.22405800  0.99189800  1
  H  1704  1  0.42801500  0.25230300  0.94899600  1
  H  1706  1  0.42842800  0.27380700  0.01032700  1
  H  1707  1  0.44985400  0.26145400  0.98662100  1
  H  1708  1  0.44080100  0.24138900  0.01274800  1
  H  1710  1  0.34732000  0.21767500  0.92011300  1
  H  1711  1  0.32778300  0.23159100  0.94491300  1
  H  1712  1  0.33898500  0.19899300  0.94762100  1
  H  1718  1  0.35079500  0.80663700  0.93426400  1
  H  1720  1  0.42842800  0.77637500  0.97824700  1
  H  1722  1  0.42905700  0.76038100  0.90974000  1
  H  1723  1  0.43539700  0.74760900  0.94054400  1
  H  1724  1  0.45037000  0.77714800  0.93072700  1
  H  1726  1  0.34929100  0.81517500  0.00585200  1
  H  1727  1  0.32923800  0.80117100  0.98152500  1
  H  1728  1  0.34153700  0.83327000  0.97777000  1
  H  1734  1  0.67924000  0.80617500  0.99218400  1
  H  1736  1  0.60117500  0.77708800  0.94816000  1
  H  1738  1  0.60082800  0.76006900  0.01636600  1
  H  1739  1  0.59389200  0.74808600  0.98541100  1
  H  1740  1  0.57950500  0.77765700  0.99606800  1
  H  1742  1  0.68057400  0.81536900  0.92067200  1
  H  1743  1  0.70059700  0.80097300  0.94479400  1
  H  1744  1  0.68860400  0.83314600  0.94888500  1
  H  1750  1  0.68061500  0.22414600  0.93469100  1
  H  1752  1  0.60141700  0.25105200  0.97793700  1
  H  1754  1  0.60093200  0.27361000  0.91708200  1
  H  1755  1  0.57953000  0.26055800  0.94043300  1
  H  1756  1  0.58884900  0.24113900  0.91391400  1
  H  1758  1  0.68235300  0.21673600  0.00638500  1
  H  1759  1  0.70182000  0.23109200  0.98177900  1
  H  1760  1  0.69085500  0.19844800  0.97865600  1
  H  1766  1  0.04334700  0.34904200  0.17177400  1
  H  1768  1  0.00083800  0.42794500  0.20069900  1
  H  1770  1  0.06115500  0.42656700  0.22386800  1
  H  1771  1  0.03847800  0.44900300  0.21134500  1
  H  1772  1  0.06531500  0.44016200  0.19215000  1
  H  1774  1  0.97156600  0.34786200  0.16506800  1
  H  1775  1  0.99614200  0.32803200  0.17896400  1
  H  1776  1  0.99909900  0.33943900  0.14645500  1
  H  1782  1  0.98632700  0.34944900  0.75468700  1
  H  1784  1  0.02901500  0.42805400  0.72519400  1
  H  1786  1  0.96862600  0.42688500  0.70232200  1
  H  1787  1  0.99138700  0.44928000  0.71476900  1
  H  1788  1  0.96457300  0.44052400  0.73403600  1
  H  1790  1  0.05813400  0.34800800  0.76106700  1
  H  1791  1  0.03340800  0.32821300  0.74738900  1
  H  1792  1  0.03065800  0.33979300  0.77985200  1
  H  1798  1  0.04331800  0.68024900  0.75503200  1
  H  1800  1  0.00038300  0.60147700  0.72638100  1
  H  1802  1  0.06053300  0.60260500  0.70287800  1
  H  1803  1  0.03793600  0.58023900  0.71566700  1
  H  1804  1  0.06495600  0.58910000  0.73459500  1
  H  1806  1  0.97157700  0.68168100  0.76208700  1
  H  1807  1  0.99616900  0.70141300  0.74808000  1
  H  1808  1  0.99921200  0.69003100  0.78059000  1
  H  1814  1  0.98637200  0.68081000  0.17249900  1
  H  1816  1  0.02914100  0.60155100  0.20001400  1
  H  1818  1  0.96912900  0.60251700  0.22371200  1
  H  1819  1  0.99160600  0.58026700  0.21051700  1
  H  1820  1  0.96454600  0.58946800  0.19181700  1
  H  1822  1  0.05810200  0.68210000  0.16526700  1
  H  1823  1  0.03358700  0.70176700  0.17950300  1
  H  1824  1  0.03046500  0.69071100  0.14689000  1
  H  1830  1  0.04324200  0.22301800  0.62924600  1
  H  1832  1  0.00067600  0.25203200  0.55041000  1
  H  1834  1  0.06103400  0.27497200  0.55158000  1
  H  1835  1  0.03831800  0.26240600  0.52921300  1
  H  1836  1  0.06514600  0.24321200  0.53807200  1
  H  1838  1  0.97144300  0.21660400  0.63059400  1
  H  1839  1  0.99612700  0.23040800  0.65035300  1
  H  1840  1  0.99891300  0.19787700  0.63896600  1
  H  1846  1  0.98609500  0.80599600  0.62874000  1
  H  1848  1  0.02894700  0.77714600  0.54998700  1
  H  1850  1  0.96874900  0.75381500  0.55109100  1
  H  1851  1  0.99139300  0.76654000  0.52873600  1
  H  1852  1  0.96443700  0.78555500  0.53759400  1
  H  1854  1  0.05786300  0.81286800  0.63014400  1
  H  1855  1  0.03323100  0.79898800  0.64991500  1
  H  1856  1  0.03028500  0.83147300  0.63843800  1
  H  1862  1  0.04383300  0.80661400  0.29925000  1
  H  1864  1  0.99975800  0.77683900  0.37702100  1
  H  1866  1  0.06816900  0.76046100  0.37757100  1
  H  1867  1  0.03731900  0.74787600  0.38402200  1
  H  1868  1  0.04735000  0.77741300  0.39889200  1
  H  1870  1  0.97229800  0.81560700  0.29782600  1
  H  1871  1  0.99650500  0.80139500  0.27777500  1
  H  1872  1  0.00048000  0.83351000  0.28996500  1
  H  1878  1  0.98629800  0.22454500  0.29752800  1
  H  1880  1  0.02944300  0.25202600  0.37658700  1
  H  1882  1  0.96831300  0.27403100  0.37712100  1
  H  1883  1  0.99189400  0.26133900  0.39848500  1
  H  1884  1  0.96558800  0.24156600  0.38931200  1
  H  1886  1  0.05803200  0.21757000  0.29572500  1
  H  1887  1  0.03333600  0.23174100  0.27623800  1
  H  1888  1  0.03038600  0.19912200  0.28731600  1
  H  1894  1  0.22343300  0.34909500  0.93524400  1
  H  1896  1  0.25264500  0.42791500  0.97770400  1
  H  1898  1  0.27542800  0.42666500  0.91727800  1
  H  1899  1  0.26297700  0.44906700  0.94002800  1
  H  1900  1  0.24367500  0.44022400  0.91327000  1
  H  1902  1  0.21718800  0.34777200  0.00705700  1
  H  1903  1  0.23093200  0.32799100  0.98235500  1
  H  1904  1  0.19840700  0.33940400  0.97962400  1
  H  1910  1  0.80669800  0.35079100  0.99249000  1
  H  1912  1  0.77639200  0.42842000  0.94852400  1
  H  1914  1  0.76036700  0.42899300  0.01700700  1
  H  1915  1  0.74761800  0.43536600  0.98620800  1
  H  1916  1  0.77715000  0.45034500  0.99607800  1
  H  1918  1  0.81519600  0.34928900  0.92090200  1
  H  1919  1  0.80120500  0.32923400  0.94523200  1
  H  1920  1  0.83330600  0.34153300  0.94897400  1
  H  1926  1  0.80577600  0.68018900  0.93482100  1
  H  1928  1  0.77765100  0.60129800  0.97789400  1
  H  1930  1  0.75343300  0.60261300  0.91797200  1
  H  1931  1  0.76638400  0.58020200  0.94043500  1
  H  1932  1  0.78509900  0.58907700  0.91327000  1
  H  1934  1  0.81372200  0.68140000  0.00648300  1
  H  1935  1  0.79944000  0.70122200  0.98212100  1
  H  1936  1  0.83190100  0.68982100  0.97865600  1
  H  1942  1  0.22411900  0.68075800  0.99205400  1
  H  1944  1  0.25099900  0.60148100  0.94893300  1
  H  1946  1  0.27348200  0.60104100  0.00980900  1
  H  1947  1  0.26043300  0.57962600  0.98646900  1
  H  1948  1  0.24099900  0.58898500  0.01296000  1
  H  1950  1  0.21686500  0.68244200  0.92034400  1
  H  1951  1  0.23120100  0.70191000  0.94496000  1
  H  1952  1  0.19853500  0.69099800  0.94802800  1
  H  1958  1  0.34915300  0.04351300  0.75497900  1
  H  1960  1  0.42800900  0.00086900  0.72612700  1
  H  1962  1  0.42671000  0.06114100  0.70285400  1
  H  1963  1  0.44911800  0.03847200  0.71543900  1
  H  1964  1  0.44028600  0.06535500  0.73457300  1
  H  1966  1  0.34790100  0.97174500  0.76181600  1
  H  1967  1  0.32809400  0.99632100  0.74788500  1
  H  1968  1  0.33951100  0.99931700  0.78038800  1
  H  1974  1  0.34941000  0.98632500  0.17207700  1
  H  1976  1  0.42805200  0.02892500  0.20159500  1
  H  1978  1  0.42683800  0.96854500  0.22442800  1
  H  1979  1  0.44925200  0.99129000  0.21198500  1
  H  1980  1  0.44047300  0.96448700  0.19271400  1
  H  1982  1  0.34802300  0.05814200  0.16577000  1
  H  1983  1  0.32820600  0.03341300  0.17940900  1
  H  1984  1  0.33979500  0.03069600  0.14694600  1
  H  1990  1  0.68025900  0.04334800  0.17167200  1
  H  1992  1  0.60147300  0.00051100  0.20043500  1
  H  1994  1  0.60264000  0.06070500  0.22380100  1
  H  1995  1  0.58025500  0.03809800  0.21106000  1
  H  1996  1  0.58913100  0.06507600  0.19207800  1
  H  1998  1  0.68165400  0.97159300  0.16475700  1
  H  1999  1  0.70140300  0.99620300  0.17870900  1
  H  2000  1  0.69000600  0.99918800  0.14620000  1
  H  2006  1  0.68081600  0.98630900  0.75427400  1
  H  2008  1  0.60159800  0.02917200  0.72679000  1
  H  2010  1  0.60253100  0.96918500  0.70301000  1
  H  2011  1  0.58029400  0.99166400  0.71621700  1
  H  2012  1  0.58946300  0.96457900  0.73489100  1
  H  2014  1  0.68215200  0.05802800  0.76161400  1
  H  2015  1  0.70180600  0.03352200  0.74734800  1
  H  2016  1  0.69073800  0.03035700  0.77995300  1
  H  2022  1  0.72288200  0.54253200  0.79784100  1
  H  2024  1  0.75201500  0.50042300  0.87688300  1
  H  2026  1  0.77463000  0.56085600  0.87548100  1
  H  2027  1  0.76208900  0.53822800  0.89795900  1
  H  2028  1  0.74283400  0.56495200  0.88891200  1
  H  2030  1  0.71690800  0.47068900  0.79675800  1
  H  2031  1  0.73056700  0.49539200  0.77692200  1
  H  2032  1  0.69800200  0.49799600  0.78824900  1
  H  2038  1  0.30608700  0.48695400  0.79815400  1
  H  2040  1  0.27657300  0.52938200  0.87691500  1
  H  2042  1  0.25325900  0.46914400  0.87521800  1
  H  2043  1  0.26571800  0.49169300  0.89781900  1
  H  2044  1  0.28487100  0.46481600  0.88899900  1
  H  2046  1  0.31295400  0.55874800  0.79721700  1
  H  2047  1  0.29924100  0.53423000  0.77718700  1
  H  2048  1  0.33164000  0.53123100  0.78889000  1
  H  2054  1  0.30689600  0.54341700  0.12779800  1
  H  2056  1  0.27706400  0.50014800  0.04961100  1
  H  2058  1  0.26203800  0.56885000  0.04898900  1
  H  2059  1  0.24885500  0.53826500  0.04246100  1
  H  2060  1  0.27872600  0.54764900  0.02785800  1
  H  2062  1  0.31461100  0.47173900  0.12903700  1
  H  2063  1  0.30069000  0.49613800  0.14906200  1
  H  2064  1  0.33295800  0.49956600  0.13711500  1
  H  2070  1  0.72374700  0.48690700  0.12935200  1
  H  2072  1  0.75213600  0.52924800  0.05016000  1
  H  2074  1  0.77317100  0.46788400  0.04988700  1
  H  2075  1  0.76071800  0.49146100  0.02837700  1
  H  2076  1  0.74067200  0.46542400  0.03772100  1
  H  2078  1  0.71810200  0.55877400  0.13085500  1
  H  2079  1  0.73176900  0.53389000  0.15046300  1
  H  2080  1  0.69911400  0.53151900  0.13934300  1
  H  2086  1  0.84922700  0.72271300  0.49090600  1
  H  2088  1  0.92809500  0.75240600  0.44882600  1
  H  2090  1  0.92671800  0.77471300  0.50936400  1
  H  2091  1  0.94920800  0.76233500  0.48665900  1
  H  2092  1  0.94023800  0.74293400  0.51330600  1
  H  2094  1  0.84806800  0.71709100  0.41902700  1
  H  2095  1  0.82821400  0.73055300  0.44382400  1
  H  2096  1  0.83967300  0.69802200  0.44625500  1
  H  2102  1  0.85049200  0.30640700  0.43521400  1
  H  2104  1  0.92854700  0.27619700  0.47846500  1
  H  2106  1  0.92904200  0.26112800  0.40975500  1
  H  2107  1  0.93554200  0.24794700  0.44035300  1
  H  2108  1  0.95028100  0.27773400  0.43092900  1
  H  2110  1  0.84930300  0.31415000  0.50689400  1
  H  2111  1  0.82920900  0.30030000  0.48251200  1
  H  2112  1  0.84129800  0.33251200  0.47905700  1
  H  2118  1  0.18009800  0.30643400  0.49142600  1
  H  2120  1  0.10104500  0.27771900  0.44900700  1
  H  2122  1  0.10236600  0.25453100  0.50921600  1
  H  2123  1  0.07991400  0.26737300  0.48673200  1
  H  2124  1  0.08903400  0.28632400  0.51365100  1
  H  2126  1  0.18119200  0.31305300  0.41962300  1
  H  2127  1  0.20102900  0.29920200  0.44422100  1
  H  2128  1  0.18970100  0.33174700  0.44708100  1
  H  2134  1  0.18072600  0.72414500  0.43539500  1
  H  2136  1  0.10125800  0.75151600  0.47785900  1
  H  2138  1  0.10105400  0.77324500  0.41667800  1
  H  2139  1  0.07956400  0.76051100  0.44012300  1
  H  2140  1  0.08900900  0.74073100  0.41392200  1
  H  2142  1  0.18211200  0.71773200  0.50719200  1
  H  2143  1  0.20167300  0.73180900  0.48250100  1
  H  2144  1  0.19080300  0.69910300  0.47975200  1
  H  2150  1  0.54263400  0.84959000  0.67130100  1
  H  2152  1  0.50079100  0.92854300  0.70105200  1
  H  2154  1  0.56134100  0.92700600  0.72329500  1
  H  2155  1  0.53866600  0.94955300  0.71096900  1
  H  2156  1  0.56527200  0.94055200  0.69152700  1
  H  2158  1  0.47075100  0.84858500  0.66581300  1
  H  2159  1  0.49552800  0.82867900  0.67924000  1
  H  2160  1  0.49793200  0.84013500  0.64670300  1
  H  2166  1  0.48718100  0.84918300  0.25501800  1
  H  2168  1  0.52941500  0.92803100  0.22548200  1
  H  2170  1  0.46896100  0.92660700  0.20285200  1
  H  2171  1  0.49164600  0.94910300  0.21525600  1
  H  2172  1  0.46493100  0.94019100  0.23459100  1
  H  2174  1  0.55903500  0.84802400  0.26100600  1
  H  2175  1  0.53431400  0.82816300  0.24741300  1
  H  2176  1  0.53170400  0.83963200  0.27992900  1
  H  2182  1  0.54285600  0.18051600  0.25500400  1
  H  2184  1  0.50059500  0.10117100  0.22694300  1
  H  2186  1  0.56074500  0.10251700  0.20360400  1
  H  2187  1  0.53830200  0.08010000  0.21656700  1
  H  2188  1  0.56522900  0.08932200  0.23544800  1
  H  2190  1  0.47107100  0.18151700  0.26167000  1
  H  2191  1  0.49561600  0.20129200  0.24763700  1
  H  2192  1  0.49853000  0.19022200  0.28026600  1
  H  2198  1  0.48707200  0.18057400  0.67209500  1
  H  2200  1  0.52915000  0.10141600  0.70101000  1
  H  2202  1  0.46883400  0.10285600  0.72385400  1
  H  2203  1  0.49135400  0.08036500  0.71114400  1
  H  2204  1  0.46456500  0.08952700  0.69203600  1
  H  2206  1  0.55891200  0.18152400  0.66585600  1
  H  2207  1  0.53428900  0.20141600  0.67958300  1
  H  2208  1  0.53156200  0.19007900  0.64703000  1
  H  2214  1  0.54282100  0.72354700  0.12876400  1
  H  2216  1  0.50030800  0.75176000  0.04961500  1
  H  2218  1  0.56158600  0.77324700  0.04947700  1
  H  2219  1  0.53806200  0.76077000  0.02792000  1
  H  2220  1  0.56420100  0.74081800  0.03717800  1
  H  2222  1  0.47100600  0.71733700  0.13020500  1
  H  2223  1  0.49577400  0.73116700  0.14984900  1
  H  2224  1  0.49839900  0.69854600  0.13869100  1
  H  2230  1  0.48661900  0.30634100  0.12767100  1
  H  2232  1  0.52999400  0.27608600  0.04966800  1
  H  2234  1  0.46145000  0.26036700  0.04945000  1
  H  2235  1  0.49214700  0.24749100  0.04288400  1
  H  2236  1  0.48233500  0.27711300  0.02803600  1
  H  2238  1  0.55826900  0.31455100  0.12872600  1
  H  2239  1  0.53400300  0.30065500  0.14892800  1
  H  2240  1  0.53034300  0.33279300  0.13670300  1
  H  2246  1  0.54322800  0.30688400  0.79905800  1
  H  2248  1  0.49999700  0.27693700  0.87721500  1
  H  2250  1  0.56876600  0.26216700  0.87788100  1
  H  2251  1  0.53822800  0.24883000  0.88435400  1
  H  2252  1  0.54745300  0.27872800  0.89899800  1
  H  2254  1  0.47154000  0.31442600  0.79777600  1
  H  2255  1  0.49598000  0.30055700  0.77776600  1
  H  2256  1  0.49933200  0.33283400  0.78971200  1
  H  2262  1  0.48698900  0.72375100  0.79750700  1
  H  2264  1  0.52946800  0.75220200  0.87660500  1
  H  2266  1  0.46809400  0.77331500  0.87689900  1
  H  2267  1  0.49169300  0.76089500  0.89840500  1
  H  2268  1  0.46563400  0.74084200  0.88912800  1
  H  2270  1  0.55883800  0.71794300  0.79594500  1
  H  2271  1  0.53396900  0.73164800  0.77634600  1
  H  2272  1  0.53152900  0.69901300  0.78750700  1
  H  2278  1  0.72274000  0.84921400  0.43585500  1
  H  2280  1  0.75239300  0.92809100  0.47794500  1
  H  2282  1  0.77469600  0.92674100  0.41741000  1
  H  2283  1  0.76230200  0.94922000  0.44011700  1
  H  2284  1  0.74290800  0.94023800  0.41346800  1
  H  2286  1  0.71712200  0.84804300  0.50773400  1
  H  2287  1  0.73059200  0.82819600  0.48293300  1
  H  2288  1  0.69805500  0.83964400  0.48050600  1
  H  2294  1  0.30645900  0.85045500  0.49154500  1
  H  2296  1  0.27629100  0.92853900  0.44833700  1
  H  2298  1  0.26137200  0.92905900  0.51708500  1
  H  2299  1  0.24811500  0.93555500  0.48651500  1
  H  2300  1  0.27793300  0.95027600  0.49585100  1
  H  2302  1  0.31409900  0.84924100  0.41986500  1
  H  2303  1  0.30025300  0.82916800  0.44426800  1
  H  2304  1  0.33248500  0.84122000  0.44768000  1
  H  2310  1  0.30644600  0.18005100  0.43539500  1
  H  2312  1  0.27767000  0.10101000  0.47779700  1
  H  2314  1  0.25449000  0.10236000  0.41758400  1
  H  2315  1  0.26731300  0.07989500  0.44006600  1
  H  2316  1  0.28627600  0.08900600  0.41315400  1
  H  2318  1  0.31305900  0.18112400  0.50720000  1
  H  2319  1  0.29922700  0.20097800  0.48260400  1
  H  2320  1  0.33176200  0.18962500  0.47974600  1
  H  2326  1  0.72412100  0.18074700  0.49138300  1
  H  2328  1  0.75141100  0.10125400  0.44891500  1
  H  2330  1  0.77318200  0.10105000  0.51008300  1
  H  2331  1  0.76042600  0.07956300  0.48665000  1
  H  2332  1  0.74066400  0.08901900  0.51286200  1
  H  2334  1  0.71768000  0.18213100  0.41959000  1
  H  2335  1  0.73178600  0.20168100  0.44427400  1
  H  2336  1  0.69907000  0.19084200  0.44703600  1
  H  2342  1  0.84952000  0.54271700  0.25543700  1
  H  2344  1  0.92850000  0.50085200  0.22579800  1
  H  2346  1  0.92699800  0.56139000  0.20352400  1
  H  2347  1  0.94952800  0.53871800  0.21588900  1
  H  2348  1  0.94050500  0.56533200  0.23530900  1
  H  2350  1  0.84849900  0.47083900  0.26095500  1
  H  2351  1  0.82861300  0.49561200  0.24749900  1
  H  2352  1  0.84003300  0.49802700  0.28004600  1
  H  2358  1  0.84915300  0.48722200  0.67183400  1
  H  2360  1  0.92794100  0.52946400  0.70151600  1
  H  2362  1  0.92659700  0.46895900  0.72398300  1
  H  2363  1  0.94907000  0.49168300  0.71160800  1
  H  2364  1  0.94016800  0.46499700  0.69222900  1
  H  2366  1  0.84792600  0.55908300  0.66599800  1
  H  2367  1  0.82807700  0.53431600  0.67952300  1
  H  2368  1  0.83958200  0.53178400  0.64701300  1
  H  2374  1  0.18040300  0.54280900  0.67162800  1
  H  2376  1  0.10120800  0.50051100  0.70005900  1
  H  2378  1  0.10252800  0.56074100  0.72320800  1
  H  2379  1  0.08010700  0.53822400  0.71037700  1
  H  2380  1  0.08923400  0.56511000  0.69139100  1
  H  2382  1  0.18149300  0.47100800  0.66515300  1
  H  2383  1  0.20127000  0.49561600  0.67907100  1
  H  2384  1  0.19010500  0.49843600  0.64646700  1
  H  2390  1  0.18051500  0.48689300  0.25455800  1
  H  2392  1  0.10139300  0.52909800  0.22573000  1
  H  2394  1  0.10281300  0.46883400  0.20271900  1
  H  2395  1  0.08033000  0.49134000  0.21546800  1
  H  2396  1  0.08946700  0.46450000  0.23452200  1
  H  2398  1  0.18150500  0.55871500  0.26099800  1
  H  2399  1  0.20138700  0.53412100  0.24720900  1
  H  2400  1  0.19003900  0.53130900  0.27975000  1
  C  1  1  0.26430500  0.13648500  0.36139300  1
  C  2  1  0.24289800  0.15349300  0.36321900  1
  C  3  1  0.23954200  0.16907200  0.38552000  1
  C  4  1  0.25745900  0.16710000  0.40623200  1
  C  5  1  0.27870200  0.14957700  0.40511000  1
  C  6  1  0.28254100  0.13513800  0.38201200  1
  C  10  1  0.26468100  0.11725100  0.34185400  1
  C  11  1  0.24647300  0.09659200  0.34287500  1
  C  12  1  0.25040000  0.07368300  0.32817200  1
  C  13  1  0.27168400  0.07282000  0.31068400  1
  C  14  1  0.28955600  0.09360000  0.30900300  1
  C  15  1  0.28611000  0.11570600  0.32483400  1
  C  19  1  0.76409900  0.89301400  0.36144200  1
  C  20  1  0.78553400  0.87600700  0.36299700  1
  C  21  1  0.78912800  0.86037900  0.38522200  1
  C  22  1  0.77135900  0.86220000  0.40607400  1
  C  23  1  0.75004700  0.87965900  0.40518200  1
  C  24  1  0.74600800  0.89421200  0.38219100  1
  C  28  1  0.76371200  0.91242800  0.34208200  1
  C  29  1  0.78199300  0.93301500  0.34327200  1
  C  30  1  0.77824700  0.95598500  0.32861700  1
  C  31  1  0.75701100  0.95700300  0.31107800  1
  C  32  1  0.73907700  0.93629600  0.30922300  1
  C  33  1  0.74235300  0.91412100  0.32499900  1
  C  37  1  0.76502100  0.13661000  0.56562200  1
  C  38  1  0.78652900  0.15351800  0.56396900  1
  C  39  1  0.79020500  0.16899400  0.54164200  1
  C  40  1  0.77246000  0.16705600  0.52077300  1
  C  41  1  0.75110500  0.14966200  0.52174300  1
  C  42  1  0.74700900  0.13525400  0.54480700  1
  C  46  1  0.76443100  0.11740800  0.58518700  1
  C  47  1  0.78224200  0.09640800  0.58385100  1
  C  48  1  0.77750500  0.07331200  0.59799000  1
  C  49  1  0.75627700  0.07254200  0.61547600  1
  C  50  1  0.73889600  0.09369000  0.61752400  1
  C  51  1  0.74290700  0.11601900  0.60212200  1
  C  55  1  0.26519600  0.89273100  0.56579200  1
  C  56  1  0.24360000  0.87589000  0.56452400  1
  C  57  1  0.23939400  0.86053500  0.54220700  1
  C  58  1  0.25664400  0.86254500  0.52095200  1
  C  59  1  0.27797800  0.87992200  0.52160800  1
  C  60  1  0.28293100  0.89396400  0.54472400  1
  C  64  1  0.26582900  0.91238700  0.58489300  1
  C  65  1  0.24783400  0.93321000  0.58345900  1
  C  66  1  0.25176300  0.95620500  0.59802100  1
  C  67  1  0.27307300  0.95715900  0.61547300  1
  C  68  1  0.29083000  0.93630300  0.61743000  1
  C  69  1  0.28726700  0.91401400  0.60188000  1
  C  73  1  0.41267900  0.26438700  0.08554900  1
  C  74  1  0.41409100  0.24281100  0.10240100  1
  C  75  1  0.43642400  0.23878600  0.11778600  1
  C  76  1  0.45755800  0.25618300  0.11577900  1
  C  77  1  0.45677500  0.27743600  0.09831500  1
  C  78  1  0.43361900  0.28226900  0.08429400  1
  C  82  1  0.39344800  0.26501600  0.06602800  1
  C  83  1  0.39474300  0.24706500  0.04515100  1
  C  84  1  0.38017100  0.25114800  0.02218400  1
  C  85  1  0.36271600  0.27246300  0.02138200  1
  C  86  1  0.36088100  0.29016000  0.04229800  1
  C  87  1  0.37647600  0.28647800  0.06452900  1
  C  91  1  0.41271200  0.76478300  0.84152900  1
  C  92  1  0.41434600  0.78626400  0.82459500  1
  C  93  1  0.43667300  0.78992600  0.80913000  1
  C  94  1  0.45753300  0.77217500  0.81104900  1
  C  95  1  0.45657300  0.75080900  0.82844600  1
  C  96  1  0.43351400  0.74675400  0.84288100  1
  C  100  1  0.39314800  0.76426100  0.86072800  1
  C  101  1  0.39440200  0.78220900  0.88161500  1
  C  102  1  0.38024300  0.77756100  0.90472200  1
  C  103  1  0.36273600  0.75634100  0.90553100  1
  C  104  1  0.36071400  0.73888800  0.88444300  1
  C  105  1  0.37618200  0.74277200  0.86214600  1
  C  109  1  0.61712600  0.76456500  0.08488100  1
  C  110  1  0.61554700  0.78599500  0.10188600  1
  C  111  1  0.59323600  0.78966500  0.11737700  1
  C  112  1  0.57231700  0.77198400  0.11538100  1
  C  113  1  0.57321500  0.75071400  0.09787700  1
  C  114  1  0.59625700  0.74662500  0.08342900  1
  C  118  1  0.63669700  0.76403100  0.06569400  1
  C  119  1  0.63537400  0.78187400  0.04472600  1
  C  120  1  0.64959200  0.77721100  0.02166200  1
  C  121  1  0.66716300  0.75605100  0.02092800  1
  C  122  1  0.66922000  0.73866800  0.04207500  1
  C  123  1  0.65371300  0.74257700  0.06434700  1
  C  127  1  0.61741100  0.26546400  0.84134200  1
  C  128  1  0.61603500  0.24387400  0.82449100  1
  C  129  1  0.59369100  0.23975000  0.80914800  1
  C  130  1  0.57250400  0.25708100  0.81119100  1
  C  131  1  0.57325400  0.27841000  0.82857200  1
  C  132  1  0.59641100  0.28328600  0.84257500  1
  C  136  1  0.63646300  0.26597300  0.86106900  1
  C  137  1  0.63494300  0.24785000  0.88177800  1
  C  138  1  0.64944000  0.25160500  0.90484300  1
  C  139  1  0.66692400  0.27288200  0.90598900  1
  C  140  1  0.66899600  0.29076700  0.88525000  1
  C  141  1  0.65348900  0.28737000  0.86289600  1
  C  145  1  0.13678300  0.41275100  0.21271200  1
  C  146  1  0.15370300  0.41452400  0.19122500  1
  C  147  1  0.16931100  0.43679400  0.18777700  1
  C  148  1  0.16745300  0.45752300  0.20568600  1
  C  149  1  0.15000900  0.45646200  0.22699400  1
  C  150  1  0.13555700  0.43339100  0.23093100  1
  C  154  1  0.11749700  0.39326100  0.21321300  1
  C  155  1  0.09673800  0.39432000  0.19512300  1
  C  156  1  0.07382600  0.37965500  0.19916800  1
  C  157  1  0.07301900  0.36220000  0.22048000  1
  C  158  1  0.09387700  0.36050500  0.23826200  1
  C  159  1  0.11600800  0.37627300  0.23467400  1
  C  163  1  0.89302000  0.41291700  0.71327500  1
  C  164  1  0.87602800  0.41445700  0.73472200  1
  C  165  1  0.86038700  0.43667300  0.73830800  1
  C  166  1  0.86217100  0.45751900  0.72053100  1
  C  167  1  0.87961600  0.45663100  0.69921200  1
  C  168  1  0.89419600  0.43366000  0.69517600  1
  C  172  1  0.91237800  0.39351200  0.71281400  1
  C  173  1  0.93307000  0.39466900  0.73098000  1
  C  174  1  0.95600000  0.37998400  0.72709200  1
  C  175  1  0.95687300  0.36245900  0.70584200  1
  C  176  1  0.93607400  0.36066700  0.68801100  1
  C  177  1  0.91393000  0.37644900  0.69142800  1
  C  181  1  0.13645500  0.61690400  0.71330500  1
  C  182  1  0.15345700  0.61524700  0.73473700  1
  C  183  1  0.16912300  0.59302300  0.73819800  1
  C  184  1  0.16728700  0.57224300  0.72034200  1
  C  185  1  0.14981200  0.57324500  0.69906000  1
  C  186  1  0.13526100  0.59624500  0.69511300  1
  C  190  1  0.11707100  0.63628800  0.71294200  1
  C  191  1  0.09638600  0.63500400  0.73110800  1
  C  192  1  0.07341800  0.64963800  0.72727100  1
  C  193  1  0.07244700  0.66720000  0.70606200  1
  C  194  1  0.09322100  0.66909000  0.68820600  1
  C  195  1  0.11542100  0.65337400  0.69158200  1
  C  199  1  0.89320900  0.61734200  0.21426300  1
  C  200  1  0.87620900  0.61581500  0.19281600  1
  C  201  1  0.86058600  0.59359400  0.18917300  1
  C  202  1  0.86245000  0.57269100  0.20687800  1
  C  203  1  0.87991800  0.57351500  0.22817600  1
  C  204  1  0.89445300  0.59651200  0.23226700  1
  C  208  1  0.91273200  0.63660100  0.21467900  1
  C  209  1  0.93328400  0.63537400  0.19636900  1
  C  210  1  0.95628700  0.64997500  0.20008000  1
  C  211  1  0.95745000  0.66741800  0.22138400  1
  C  212  1  0.93678800  0.66930600  0.23937500  1
  C  213  1  0.91455100  0.65360400  0.23609800  1
  C  217  1  0.13649200  0.26431300  0.56541400  1
  C  218  1  0.15349000  0.24289800  0.56358900  1
  C  219  1  0.16907200  0.23953400  0.54129200  1
  C  220  1  0.16711300  0.25745700  0.52058200  1
  C  221  1  0.14960000  0.27870800  0.52170400  1
  C  222  1  0.13515900  0.28255100  0.54479800  1
  C  226  1  0.11725200  0.26469900  0.58494700  1
  C  227  1  0.09658400  0.24650200  0.58391700  1
  C  228  1  0.07367400  0.25043800  0.59861600  1
  C  229  1  0.07281600  0.27171900  0.61610800  1
  C  230  1  0.09360500  0.28957900  0.61780000  1
  C  231  1  0.11571400  0.28612400  0.60197400  1
  C  235  1  0.89300800  0.76406800  0.56533000  1
  C  236  1  0.87599900  0.78550300  0.56378000  1
  C  237  1  0.86037300  0.78910000  0.54155400  1
  C  238  1  0.86219600  0.77133600  0.52070100  1
  C  239  1  0.87965700  0.75002600  0.52158900  1
  C  240  1  0.89421000  0.74598000  0.54457800  1
  C  244  1  0.91242600  0.76367900  0.58468400  1
  C  245  1  0.93300800  0.78196700  0.58349800  1
  C  246  1  0.95598300  0.77822200  0.59814600  1
  C  247  1  0.95701100  0.75698400  0.61568100  1
  C  248  1  0.93630500  0.73904600  0.61753900  1
  C  249  1  0.91413100  0.74231800  0.60176500  1
  C  253  1  0.13660300  0.76505400  0.36115200  1
  C  254  1  0.15351100  0.78656200  0.36280400  1
  C  255  1  0.16898600  0.79023800  0.38513000  1
  C  256  1  0.16704900  0.77249500  0.40600000  1
  C  257  1  0.14965500  0.75114000  0.40503200  1
  C  258  1  0.13524600  0.74704400  0.38196900  1
  C  262  1  0.11740400  0.76446200  0.34158400  1
  C  263  1  0.09640600  0.78227500  0.34291200  1
  C  264  1  0.07330900  0.77753200  0.32877400  1
  C  265  1  0.07253500  0.75629400  0.31130200  1
  C  266  1  0.09368100  0.73890900  0.30926600  1
  C  267  1  0.11601200  0.74292800  0.32466200  1
  C  271  1  0.89278000  0.26506100  0.36101200  1
  C  272  1  0.87595000  0.24345500  0.36228400  1
  C  273  1  0.86060100  0.23924200  0.38460200  1
  C  274  1  0.86260500  0.25649400  0.40585600  1
  C  275  1  0.87998100  0.27782600  0.40519900  1
  C  276  1  0.89401700  0.28279100  0.38208400  1
  C  280  1  0.91240700  0.26572700  0.34188400  1
  C  281  1  0.93325900  0.24776200  0.34329000  1
  C  282  1  0.95623600  0.25174200  0.32871800  1
  C  283  1  0.95714400  0.27306300  0.31127700  1
  C  284  1  0.93625700  0.29078700  0.30934600  1
  C  285  1  0.91398500  0.28717700  0.32491000  1
  C  289  1  0.26408500  0.41286200  0.84171400  1
  C  290  1  0.24266300  0.41449600  0.82471000  1
  C  291  1  0.23918400  0.43672000  0.80905100  1
  C  292  1  0.25699300  0.45753700  0.81092200  1
  C  293  1  0.27822900  0.45659600  0.82845700  1
  C  294  1  0.28220300  0.43358400  0.84299000  1
  C  298  1  0.26462100  0.39338100  0.86099100  1
  C  299  1  0.24658000  0.39442700  0.88179400  1
  C  300  1  0.25069000  0.37974000  0.90468200  1
  C  301  1  0.27200900  0.36229100  0.90541200  1
  C  302  1  0.28973300  0.36062600  0.88450500  1
  C  303  1  0.28609000  0.37640400  0.86239700  1
  C  307  1  0.76482000  0.41263000  0.08527400  1
  C  308  1  0.78631700  0.41430000  0.10218500  1
  C  309  1  0.78993600  0.43662000  0.11766700  1
  C  310  1  0.77214200  0.45744300  0.11577900  1
  C  311  1  0.75075600  0.45644400  0.09841000  1
  C  312  1  0.74672600  0.43337900  0.08397600  1
  C  316  1  0.76432100  0.39308900  0.06605500  1
  C  317  1  0.78225800  0.39437700  0.04516000  1
  C  318  1  0.77762000  0.38022400  0.02204600  1
  C  319  1  0.75640900  0.36270600  0.02123100  1
  C  320  1  0.73896200  0.36066700  0.04231900  1
  C  321  1  0.74284200  0.37611200  0.06463100  1
  C  325  1  0.76387900  0.61703300  0.84174200  1
  C  326  1  0.78536000  0.61557800  0.82476800  1
  C  327  1  0.78909800  0.59337600  0.80912800  1
  C  328  1  0.77142100  0.57243600  0.81092200  1
  C  329  1  0.75010600  0.57322100  0.82836800  1
  C  330  1  0.74591200  0.59617700  0.84292600  1
  C  334  1  0.76340200  0.63630900  0.86124400  1
  C  335  1  0.78158700  0.63498400  0.88190500  1
  C  336  1  0.77779500  0.64958400  0.90489800  1
  C  337  1  0.75659400  0.66714600  0.90594400  1
  C  338  1  0.73870100  0.66909400  0.88520300  1
  C  339  1  0.74203400  0.65338800  0.86297400  1
  C  343  1  0.26534000  0.61752000  0.08546000  1
  C  344  1  0.24373800  0.61611500  0.10229600  1
  C  345  1  0.23963600  0.59376700  0.11763900  1
  C  346  1  0.25699700  0.57260600  0.11561000  1
  C  347  1  0.27833000  0.57338100  0.09823800  1
  C  348  1  0.28318600  0.59654300  0.08423900  1
  C  352  1  0.26585000  0.63658800  0.06574900  1
  C  353  1  0.24772100  0.63509500  0.04504300  1
  C  354  1  0.25149800  0.64958000  0.02197400  1
  C  355  1  0.27279400  0.66703900  0.02082700  1
  C  356  1  0.29067800  0.66909400  0.04156700  1
  C  357  1  0.28726500  0.65359200  0.06392300  1
  C  361  1  0.41282900  0.13685200  0.71381900  1
  C  362  1  0.41457600  0.15377400  0.73530600  1
  C  363  1  0.43683700  0.16938600  0.73878100  1
  C  364  1  0.45758700  0.16752900  0.72089500  1
  C  365  1  0.45655300  0.15008500  0.69958600  1
  C  366  1  0.43348400  0.13563600  0.69561600  1
  C  370  1  0.39337400  0.11753000  0.71333400  1
  C  371  1  0.39445300  0.09680900  0.73146900  1
  C  372  1  0.37978100  0.07388800  0.72748900  1
  C  373  1  0.36231300  0.07303300  0.70619100  1
  C  374  1  0.36060100  0.09385100  0.68836400  1
  C  375  1  0.37637300  0.11599100  0.69188800  1
  C  379  1  0.41288600  0.89302000  0.21354800  1
  C  380  1  0.41443800  0.87602800  0.19210400  1
  C  381  1  0.43666100  0.86039900  0.18852500  1
  C  382  1  0.45750800  0.86219400  0.20630400  1
  C  383  1  0.45660200  0.87964000  0.22762300  1
  C  384  1  0.43362300  0.89421000  0.23165100  1
  C  388  1  0.39347100  0.91237000  0.21399200  1
  C  389  1  0.39460700  0.93303300  0.19579500  1
  C  390  1  0.37992600  0.95596700  0.19966900  1
  C  391  1  0.36241000  0.95686100  0.22092600  1
  C  392  1  0.36063000  0.93607900  0.23877900  1
  C  393  1  0.37641900  0.91393800  0.23538100  1
  C  397  1  0.61689800  0.13658100  0.21321100  1
  C  398  1  0.61514900  0.15355700  0.19176000  1
  C  399  1  0.59289500  0.16919900  0.18833800  1
  C  400  1  0.57216700  0.16734100  0.20625500  1
  C  401  1  0.57325200  0.14989400  0.22755700  1
  C  402  1  0.59628600  0.13538600  0.23145600  1
  C  406  1  0.63632600  0.11722800  0.21359200  1
  C  407  1  0.63504700  0.09650200  0.19547100  1
  C  408  1  0.64966000  0.07352900  0.19936700  1
  C  409  1  0.66719300  0.07258200  0.22059900  1
  C  410  1  0.66907200  0.09337900  0.23843000  1
  C  411  1  0.65338600  0.11559100  0.23498200  1
  C  415  1  0.61729200  0.89322800  0.71245300  1
  C  416  1  0.61578000  0.87621500  0.73388800  1
  C  417  1  0.59355900  0.86059500  0.73753800  1
  C  418  1  0.57264100  0.86247700  0.71985500  1
  C  419  1  0.57345100  0.87996100  0.69857100  1
  C  420  1  0.59644600  0.89449400  0.69447100  1
  C  424  1  0.63655600  0.91274400  0.71203700  1
  C  425  1  0.63534500  0.93328400  0.73035800  1
  C  426  1  0.64996600  0.95627700  0.72665900  1
  C  427  1  0.66740900  0.95743800  0.70535700  1
  C  428  1  0.66928300  0.93678300  0.68735700  1
  C  429  1  0.65356300  0.91455500  0.69062000  1
  C  433  1  0.76693400  0.91060300  0.54833300  1
  C  434  1  0.78644500  0.89154900  0.55095500  1
  C  435  1  0.78806600  0.87108500  0.53285300  1
  C  436  1  0.77063600  0.87016900  0.51171500  1
  C  437  1  0.75063200  0.88891900  0.50891400  1
  C  438  1  0.74881400  0.90902300  0.52768600  1
  C  442  1  0.76482000  0.92985000  0.56761100  1
  C  443  1  0.78287500  0.95055000  0.56912900  1
  C  444  1  0.78091500  0.96945600  0.58908300  1
  C  445  1  0.76090900  0.96664900  0.60785600  1
  C  446  1  0.74353200  0.94545800  0.60701900  1
  C  447  1  0.74526300  0.92727500  0.58662800  1
  C  451  1  0.26343500  0.11876200  0.54820600  1
  C  452  1  0.24376700  0.13767600  0.55072700  1
  C  453  1  0.24194200  0.15800900  0.53248700  1
  C  454  1  0.25932300  0.15891000  0.51131000  1
  C  455  1  0.27948700  0.14030800  0.50862400  1
  C  456  1  0.28148600  0.12033500  0.52750100  1
  C  460  1  0.26584400  0.09973400  0.56767600  1
  C  461  1  0.24804100  0.07883800  0.56948500  1
  C  462  1  0.25030200  0.06014900  0.58962000  1
  C  463  1  0.27040200  0.06334000  0.60821500  1
  C  464  1  0.28747200  0.08476600  0.60713600  1
  C  465  1  0.28544200  0.10273700  0.58658900  1
  C  469  1  0.26334100  0.91101200  0.37834400  1
  C  470  1  0.24378600  0.89199500  0.37574900  1
  C  471  1  0.24217600  0.87150100  0.39382900  1
  C  472  1  0.25965000  0.87054900  0.41493500  1
  C  473  1  0.27964300  0.88932100  0.41773400  1
  C  474  1  0.28149900  0.90939200  0.39894500  1
  C  478  1  0.26560900  0.93016200  0.35899400  1
  C  479  1  0.24774100  0.95101600  0.35730700  1
  C  480  1  0.24989300  0.96973100  0.33718100  1
  C  481  1  0.26994500  0.96667100  0.31852300  1
  C  482  1  0.28711300  0.94532600  0.31955500  1
  C  483  1  0.28519300  0.92729600  0.34005300  1
  C  487  1  0.76598500  0.11859200  0.37847200  1
  C  488  1  0.78575200  0.13734400  0.37562300  1
  C  489  1  0.78783400  0.15781900  0.39365600  1
  C  490  1  0.77064800  0.15902000  0.41497400  1
  C  491  1  0.75038800  0.14058100  0.41800500  1
  C  492  1  0.74809200  0.12047500  0.39928700  1
  C  496  1  0.76347400  0.09931700  0.35927800  1
  C  497  1  0.78136300  0.07848800  0.35761300  1
  C  498  1  0.77928700  0.05979700  0.33747700  1
  C  499  1  0.75926700  0.06282300  0.31877600  1
  C  500  1  0.74208600  0.08416600  0.31975800  1
  C  501  1  0.74394900  0.10220000  0.34027100  1
  C  505  1  0.59981700  0.76700600  0.85898000  1
  C  506  1  0.60258300  0.78653700  0.83996900  1
  C  507  1  0.58452500  0.78830000  0.81948100  1
  C  508  1  0.56326700  0.77102000  0.81851900  1
  C  509  1  0.56032200  0.75098800  0.83722100  1
  C  510  1  0.57907400  0.74900300  0.85732700  1
  C  514  1  0.61903700  0.76477100  0.87827200  1
  C  515  1  0.62062700  0.78283800  0.89895700  1
  C  516  1  0.64056700  0.78081000  0.91787100  1
  C  517  1  0.65924900  0.76071200  0.91508500  1
  C  518  1  0.65834300  0.74332300  0.89390800  1
  C  519  1  0.63796900  0.74513100  0.87571500  1
  C  523  1  0.59974500  0.26311100  0.06729700  1
  C  524  1  0.60223500  0.24361700  0.08638500  1
  C  525  1  0.58413900  0.24218100  0.10687900  1
  C  526  1  0.56312300  0.25976900  0.10775300  1
  C  527  1  0.56046300  0.27974600  0.08892900  1
  C  528  1  0.57927500  0.28141900  0.06887400  1
  C  532  1  0.61914800  0.26529900  0.04819600  1
  C  533  1  0.62090900  0.24740000  0.02737600  1
  C  534  1  0.64096000  0.24964400  0.00858700  1
  C  535  1  0.65949500  0.26983200  0.01159600  1
  C  536  1  0.65842300  0.28699000  0.03294000  1
  C  537  1  0.63798400  0.28498200  0.05101100  1
  C  541  1  0.42998000  0.26377200  0.85947300  1
  C  542  1  0.42750800  0.24413700  0.84052200  1
  C  543  1  0.44569200  0.24247000  0.82012200  1
  C  544  1  0.46677900  0.25996800  0.81920700  1
  C  545  1  0.46946200  0.28003300  0.83791800  1
  C  546  1  0.45058300  0.28193400  0.85790100  1
  C  550  1  0.41052100  0.26609400  0.87851000  1
  C  551  1  0.40879300  0.24833300  0.89945000  1
  C  552  1  0.38863600  0.25057500  0.91812000  1
  C  553  1  0.36996200  0.27058100  0.91489400  1
  C  554  1  0.37100800  0.28762200  0.89344600  1
  C  555  1  0.39155600  0.28563500  0.87548100  1
  C  559  1  0.42992800  0.76653800  0.06740000  1
  C  560  1  0.42726900  0.78611800  0.08637600  1
  C  561  1  0.44541100  0.78789300  0.10678300  1
  C  562  1  0.46664900  0.77059400  0.10769100  1
  C  563  1  0.46949300  0.75051700  0.08902300  1
  C  564  1  0.45067600  0.74853600  0.06897500  1
  C  568  1  0.41065300  0.76437000  0.04816200  1
  C  569  1  0.40915300  0.78240400  0.02744700  1
  C  570  1  0.38911600  0.78050400  0.00863400  1
  C  571  1  0.37028700  0.76056200  0.01147200  1
  C  572  1  0.37112300  0.74321200  0.03268800  1
  C  573  1  0.39157000  0.74488700  0.05081900  1
  C  577  1  0.91062300  0.59992800  0.71544300  1
  C  578  1  0.89160000  0.60273500  0.73496700  1
  C  579  1  0.87108500  0.58469400  0.73674900  1
  C  580  1  0.87009900  0.56344100  0.71945800  1
  C  581  1  0.88881600  0.56045900  0.69944900  1
  C  582  1  0.90895300  0.57917000  0.69746600  1
  C  586  1  0.92988500  0.61916600  0.71305300  1
  C  587  1  0.95076800  0.62078200  0.73089000  1
  C  588  1  0.96961000  0.64077500  0.72867500  1
  C  589  1  0.96665700  0.65938000  0.70854600  1
  C  590  1  0.94530500  0.65843500  0.69137900  1
  C  591  1  0.92713100  0.63806600  0.69340700  1
  C  595  1  0.11855000  0.59946500  0.21163100  1
  C  596  1  0.13746500  0.60228000  0.19201300  1
  C  597  1  0.15801700  0.58430100  0.19019600  1
  C  598  1  0.15914100  0.56306900  0.20750100  1
  C  599  1  0.14053600  0.56010800  0.22762700  1
  C  600  1  0.12036800  0.57877500  0.22966800  1
  C  604  1  0.09938100  0.61876600  0.21410300  1
  C  605  1  0.07865300  0.62070500  0.19612000  1
  C  606  1  0.05996700  0.64084400  0.19834400  1
  C  607  1  0.06299500  0.65931500  0.21858900  1
  C  608  1  0.08426800  0.65808800  0.23583300  1
  C  609  1  0.10223700  0.63754800  0.23383900  1
  C  613  1  0.91118600  0.43028000  0.21148100  1
  C  614  1  0.89219800  0.42757100  0.19191200  1
  C  615  1  0.87172000  0.44565100  0.19015300  1
  C  616  1  0.87073000  0.46686100  0.20748800  1
  C  617  1  0.88941800  0.46974400  0.22753300  1
  C  618  1  0.90953800  0.45101100  0.22949900  1
  C  622  1  0.93026300  0.41086800  0.21391800  1
  C  623  1  0.95115800  0.40905200  0.19611200  1
  C  624  1  0.96978000  0.38885300  0.19835000  1
  C  625  1  0.96657700  0.37023300  0.21841200  1
  C  626  1  0.94519200  0.37138000  0.23552600  1
  C  627  1  0.92725000  0.39195200  0.23351300  1
  C  631  1  0.11866300  0.43005800  0.71432700  1
  C  632  1  0.13750000  0.42740300  0.73404800  1
  C  633  1  0.15790200  0.44554600  0.73597600  1
  C  634  1  0.15895000  0.46676400  0.71865500  1
  C  635  1  0.14042100  0.46960000  0.69844600  1
  C  636  1  0.12037800  0.45079900  0.69633100  1
  C  640  1  0.09949900  0.41073100  0.71190800  1
  C  641  1  0.07861600  0.40907000  0.72973700  1
  C  642  1  0.05997600  0.38888400  0.72766000  1
  C  643  1  0.06310000  0.37013900  0.70769900  1
  C  644  1  0.08448600  0.37112500  0.69056900  1
  C  645  1  0.10246900  0.39168300  0.69243300  1
  C  649  1  0.91060700  0.76691600  0.37843000  1
  C  650  1  0.89155300  0.78642800  0.37581000  1
  C  651  1  0.87109000  0.78804700  0.39391100  1
  C  652  1  0.87017700  0.77061900  0.41505200  1
  C  653  1  0.88893100  0.75061400  0.41785100  1
  C  654  1  0.90903100  0.74879900  0.39907900  1
  C  658  1  0.92985600  0.76480800  0.35914900  1
  C  659  1  0.95055000  0.78286900  0.35763600  1
  C  660  1  0.96945800  0.78091700  0.33768000  1
  C  661  1  0.96665500  0.76091300  0.31890400  1
  C  662  1  0.94547000  0.74353000  0.31974000  1
  C  663  1  0.92728700  0.74525400  0.34013000  1
  C  667  1  0.11881300  0.26348700  0.37858900  1
  C  668  1  0.13771400  0.24380600  0.37607300  1
  C  669  1  0.15803600  0.24196100  0.39432200  1
  C  670  1  0.15894000  0.25933400  0.41550500  1
  C  671  1  0.14035100  0.27951300  0.41818800  1
  C  672  1  0.12038900  0.28153200  0.39930300  1
  C  676  1  0.09979600  0.26591200  0.35911400  1
  C  677  1  0.07889000  0.24812200  0.35729500  1
  C  678  1  0.06021600  0.25038800  0.33714600  1
  C  679  1  0.06343000  0.27047800  0.31855000  1
  C  680  1  0.08486400  0.28753800  0.31963700  1
  C  681  1  0.10282200  0.28550400  0.34019500  1
  C  685  1  0.91098900  0.26334100  0.54846200  1
  C  686  1  0.89196000  0.24379800  0.55105800  1
  C  687  1  0.87147400  0.24218700  0.53296800  1
  C  688  1  0.87054100  0.25965400  0.51185500  1
  C  689  1  0.88932600  0.27963300  0.50905400  1
  C  690  1  0.90939200  0.28149000  0.52784900  1
  C  694  1  0.93013600  0.26560700  0.56781600  1
  C  695  1  0.95100200  0.24775000  0.56949300  1
  C  696  1  0.96971900  0.24990900  0.58961300  1
  C  697  1  0.96665300  0.26995400  0.60827700  1
  C  698  1  0.94530100  0.28711300  0.60725400  1
  C  699  1  0.92726700  0.28518700  0.58676100  1
  C  703  1  0.11858800  0.76610600  0.54828600  1
  C  704  1  0.13737100  0.78584200  0.55115400  1
  C  705  1  0.15786300  0.78788900  0.53313400  1
  C  706  1  0.15905100  0.77070300  0.51181600  1
  C  707  1  0.14058300  0.75047000  0.50877400  1
  C  708  1  0.12046200  0.74820500  0.52747700  1
  C  712  1  0.09930800  0.76360500  0.56747700  1
  C  713  1  0.07848200  0.78149800  0.56914400  1
  C  714  1  0.05978000  0.77940800  0.58927000  1
  C  715  1  0.06279100  0.75937000  0.60795200  1
  C  716  1  0.08412800  0.74218400  0.60696400  1
  C  717  1  0.10217400  0.74406000  0.58646700  1
  C  721  1  0.76714400  0.59950400  0.06755700  1
  C  722  1  0.78668300  0.60233800  0.08655200  1
  C  723  1  0.78843200  0.58436100  0.10711800  1
  C  724  1  0.77112700  0.56312500  0.10817400  1
  C  725  1  0.75107400  0.56013900  0.08950600  1
  C  726  1  0.74909500  0.57881700  0.06933600  1
  C  730  1  0.76469700  0.61877600  0.04835100  1
  C  731  1  0.78250300  0.62049800  0.02744900  1
  C  732  1  0.78021200  0.64055300  0.00868000  1
  C  733  1  0.76007700  0.65912800  0.01176000  1
  C  734  1  0.74296100  0.65806700  0.03314400  1
  C  735  1  0.74503900  0.63763900  0.05123200  1
  C  739  1  0.26285000  0.59968500  0.85952200  1
  C  740  1  0.24334200  0.60239800  0.84047400  1
  C  741  1  0.24168500  0.58434200  0.81996600  1
  C  742  1  0.25906200  0.56316000  0.81901200  1
  C  743  1  0.27906600  0.56029700  0.83775600  1
  C  744  1  0.28093400  0.57901800  0.85788400  1
  C  748  1  0.26523500  0.61904700  0.87864800  1
  C  749  1  0.24735500  0.62089900  0.89947500  1
  C  750  1  0.24966700  0.64097200  0.91822900  1
  C  751  1  0.26990600  0.65944400  0.91518300  1
  C  752  1  0.28705100  0.65829500  0.89383000  1
  C  753  1  0.28496700  0.63783200  0.87578700  1
  C  757  1  0.26391000  0.43017300  0.06729500  1
  C  758  1  0.24428300  0.42768200  0.08624800  1
  C  759  1  0.24262900  0.44583000  0.10667700  1
  C  760  1  0.26013100  0.46691200  0.10761900  1
  C  761  1  0.28019400  0.46961700  0.08890500  1
  C  762  1  0.28209000  0.45076000  0.06890000  1
  C  766  1  0.26618700  0.41074300  0.04822400  1
  C  767  1  0.24831900  0.40899400  0.02737500  1
  C  768  1  0.25044000  0.38879000  0.00874400  1
  C  769  1  0.27044500  0.37010000  0.01190000  1
  C  770  1  0.28760200  0.37118300  0.03325300  1
  C  771  1  0.28572000  0.39176500  0.05119300  1
  C  775  1  0.76649500  0.42996500  0.85939500  1
  C  776  1  0.78607900  0.42734500  0.84041900  1
  C  777  1  0.78779500  0.44546400  0.81998400  1
  C  778  1  0.77041400  0.46663700  0.81903900  1
  C  779  1  0.75033800  0.46944400  0.83771400  1
  C  780  1  0.74843100  0.45065900  0.85779800  1
  C  784  1  0.76435700  0.41067500  0.87862700  1
  C  785  1  0.78240900  0.40916300  0.89932500  1
  C  786  1  0.78052600  0.38911600  0.91813000  1
  C  787  1  0.76058300  0.37028600  0.91529700  1
  C  788  1  0.74321800  0.37112900  0.89409500  1
  C  789  1  0.74487800  0.39158700  0.87597600  1
  C  793  1  0.59985100  0.91075900  0.21151000  1
  C  794  1  0.60263600  0.89175300  0.19196900  1
  C  795  1  0.58459700  0.87123700  0.19019800  1
  C  796  1  0.56337500  0.87022200  0.20751900  1
  C  797  1  0.56041400  0.88891700  0.22755100  1
  C  798  1  0.57912100  0.90906200  0.22952000  1
  C  802  1  0.61909000  0.93002100  0.21387300  1
  C  803  1  0.62071600  0.95088100  0.19600900  1
  C  804  1  0.64074200  0.96969600  0.19817100  1
  C  805  1  0.65937200  0.96672900  0.21827500  1
  C  806  1  0.65842300  0.94539200  0.23545700  1
  C  807  1  0.63802300  0.92725000  0.23348600  1
  C  811  1  0.59952700  0.11856500  0.71527400  1
  C  812  1  0.60231100  0.13748400  0.73489300  1
  C  813  1  0.58432200  0.15803100  0.73668300  1
  C  814  1  0.56311600  0.15914900  0.71934700  1
  C  815  1  0.56019000  0.14054400  0.69921800  1
  C  816  1  0.57885800  0.12037600  0.69720900  1
  C  820  1  0.61884600  0.09941300  0.71281000  1
  C  821  1  0.62077700  0.07866600  0.73077100  1
  C  822  1  0.64090800  0.05997300  0.72852900  1
  C  823  1  0.65938400  0.06301500  0.70829100  1
  C  824  1  0.65816400  0.08430500  0.69106600  1
  C  825  1  0.63763200  0.10228000  0.69307800  1
  C  829  1  0.43022200  0.91122800  0.71535600  1
  C  830  1  0.42751200  0.89222300  0.73491000  1
  C  831  1  0.44558800  0.87174100  0.73665000  1
  C  832  1  0.46679500  0.87076300  0.71930600  1
  C  833  1  0.46967600  0.88946700  0.69927600  1
  C  834  1  0.45094700  0.90959200  0.69733400  1
  C  838  1  0.41081700  0.93031800  0.71293800  1
  C  839  1  0.40903900  0.95122200  0.73073800  1
  C  840  1  0.38886600  0.96987300  0.72850000  1
  C  841  1  0.37023500  0.96668800  0.70844500  1
  C  842  1  0.37134500  0.94529700  0.69133600  1
  C  843  1  0.39189300  0.92732600  0.69334900  1
  C  847  1  0.43014600  0.11848000  0.21267300  1
  C  848  1  0.42745400  0.13724000  0.19289000  1
  C  849  1  0.44555500  0.15766300  0.19089700  1
  C  850  1  0.46677700  0.15881700  0.20820300  1
  C  851  1  0.46965300  0.14035800  0.22847200  1
  C  852  1  0.45088300  0.12029200  0.23066400  1
  C  856  1  0.41084600  0.09930300  0.21511200  1
  C  857  1  0.40913000  0.07849400  0.19720300  1
  C  858  1  0.38889400  0.05990200  0.19920500  1
  C  859  1  0.37013400  0.06302600  0.21915200  1
  C  860  1  0.37115800  0.08436900  0.23633200  1
  C  861  1  0.39177400  0.10229000  0.23455700  1
  C  865  1  0.17789300  0.22337500  0.39101300  1
  C  866  1  0.19755900  0.22641100  0.37180100  1
  C  867  1  0.21722900  0.20733600  0.37033800  1
  C  868  1  0.21780200  0.18579000  0.38743500  1
  C  869  1  0.19781700  0.18252700  0.40634300  1
  C  871  1  0.17818400  0.20168700  0.40792400  1
  C  873  1  0.19582000  0.15990500  0.42441900  1
  C  877  1  0.19952100  0.24890200  0.35353400  1
  C  881  1  0.85117100  0.80654600  0.39054700  1
  C  882  1  0.83157600  0.80344100  0.37127500  1
  C  883  1  0.81177800  0.82238600  0.36984100  1
  C  884  1  0.81104100  0.84387700  0.38700000  1
  C  885  1  0.83102300  0.84726600  0.40588900  1
  C  887  1  0.85076200  0.82822000  0.40746900  1
  C  889  1  0.83290400  0.86989800  0.42396700  1
  C  893  1  0.82981500  0.78100100  0.35292800  1
  C  897  1  0.85167600  0.22352700  0.53624800  1
  C  898  1  0.83211000  0.22635700  0.55559100  1
  C  899  1  0.81253300  0.20718200  0.55705600  1
  C  900  1  0.81199000  0.18569000  0.53988500  1
  C  901  1  0.83194200  0.18258600  0.52091300  1
  C  903  1  0.85145400  0.20187000  0.51929800  1
  C  905  1  0.83402400  0.16000200  0.50280000  1
  C  909  1  0.83016400  0.24873800  0.57398900  1
  C  913  1  0.17753900  0.80658100  0.53676700  1
  C  914  1  0.19717800  0.80343300  0.55598600  1
  C  915  1  0.21682800  0.82251600  0.55758700  1
  C  916  1  0.21735600  0.84418600  0.54064900  1
  C  917  1  0.19727300  0.84765400  0.52187700  1
  C  919  1  0.17769300  0.82846700  0.52012200  1
  C  921  1  0.19517900  0.87046700  0.50405200  1
  C  925  1  0.19918200  0.78078700  0.57405300  1
  C  929  1  0.44204100  0.17732500  0.17216700  1
  C  930  1  0.42277100  0.19693600  0.17517300  1
  C  931  1  0.42112700  0.21645000  0.15595900  1
  C  932  1  0.43806800  0.21687500  0.13428900  1
  C  933  1  0.45692900  0.19684700  0.13099000  1
  C  935  1  0.45871700  0.17739100  0.15030400  1
  C  937  1  0.47479100  0.19467500  0.10821300  1
  C  941  1  0.40467100  0.19903400  0.19778500  1
  C  945  1  0.44214900  0.85186500  0.75518200  1
  C  946  1  0.42289200  0.83225800  0.75205800  1
  C  947  1  0.42140000  0.81250000  0.77104000  1
  C  948  1  0.43849000  0.81181100  0.79259100  1
  C  949  1  0.45737900  0.83179000  0.79598400  1
  C  951  1  0.45901100  0.85149100  0.77690300  1
  C  953  1  0.47540900  0.83370500  0.81865000  1
  C  957  1  0.40462700  0.83044200  0.72955600  1
  C  961  1  0.58800400  0.85144400  0.17156200  1
  C  962  1  0.60725800  0.83181300  0.17454800  1
  C  963  1  0.60866100  0.81210900  0.15550000  1
  C  964  1  0.59149600  0.81149700  0.13400400  1
  C  965  1  0.57262100  0.83151300  0.13074000  1
  C  967  1  0.57106900  0.85115000  0.14989500  1
  C  969  1  0.55452900  0.83353700  0.10813200  1
  C  973  1  0.62560700  0.82991800  0.19697300  1
  C  977  1  0.58792200  0.17783700  0.75525200  1
  C  978  1  0.60721500  0.19739800  0.75206200  1
  C  979  1  0.60891000  0.21707500  0.77111000  1
  C  980  1  0.59200600  0.21770400  0.79280500  1
  C  981  1  0.57314100  0.19770900  0.79630200  1
  C  983  1  0.57128700  0.17810500  0.77714200  1
  C  985  1  0.55533600  0.19570700  0.81913900  1
  C  989  1  0.62529400  0.19926400  0.72941600  1
  C  993  1  0.22397700  0.44254200  0.12647800  1
  C  994  1  0.22679900  0.42314100  0.14598900  1
  C  995  1  0.20756800  0.42155200  0.16549800  1
  C  996  1  0.18603500  0.43866800  0.16603200  1
  C  997  1  0.18296300  0.45773300  0.14616600  1
  C  999  1  0.20228900  0.45945300  0.12670400  1
  C  1001  1  0.16036300  0.47583300  0.14412500  1
  C  1005  1  0.24922300  0.40479400  0.14794800  1
  C  1009  1  0.80635700  0.44207800  0.80013700  1
  C  1010  1  0.80330600  0.42278700  0.78055300  1
  C  1011  1  0.82233500  0.42130400  0.76084100  1
  C  1012  1  0.84384900  0.43843800  0.76018600  1
  C  1013  1  0.84718400  0.45734200  0.78016000  1
  C  1015  1  0.82806000  0.45896300  0.79981800  1
  C  1017  1  0.86982600  0.47540100  0.78210400  1
  C  1021  1  0.78084500  0.40447500  0.77870800  1
  C  1025  1  0.22313300  0.58771100  0.80009800  1
  C  1026  1  0.22616800  0.60699300  0.78050200  1
  C  1027  1  0.20717800  0.60840600  0.76074300  1
  C  1028  1  0.18571300  0.59120800  0.76004200  1
  C  1029  1  0.18241700  0.57227600  0.77999800  1
  C  1031  1  0.20150400  0.57073200  0.79970100  1
  C  1033  1  0.15984600  0.55412800  0.78189100  1
  C  1037  1  0.24857800  0.62537200  0.77870100  1
  C  1041  1  0.80692300  0.58794500  0.12700800  1
  C  1042  1  0.80369600  0.60725100  0.14655300  1
  C  1043  1  0.82260400  0.60882800  0.16637900  1
  C  1044  1  0.84417900  0.59177900  0.16718900  1
  C  1045  1  0.84769600  0.57287100  0.14724400  1
  C  1047  1  0.82868900  0.57114700  0.12748300  1
  C  1049  1  0.87041600  0.55489600  0.14543500  1
  C  1053  1  0.78114700  0.62546900  0.14824700  1
  C  1057  1  0.22336100  0.17787200  0.53579700  1
  C  1058  1  0.22639600  0.19752800  0.55501800  1
  C  1059  1  0.20732400  0.21720200  0.55648100  1
  C  1060  1  0.18578300  0.21779000  0.53937700  1
  C  1061  1  0.18252400  0.19781300  0.52045900  1
  C  1063  1  0.20168100  0.17817600  0.51887500  1
  C  1065  1  0.15991000  0.19583000  0.50237300  1
  C  1069  1  0.24887800  0.19947600  0.57329300  1
  C  1073  1  0.80655900  0.85116200  0.53622300  1
  C  1074  1  0.80344700  0.83156600  0.55549500  1
  C  1075  1  0.82238400  0.81176000  0.55693100  1
  C  1076  1  0.84387900  0.81102000  0.53977600  1
  C  1077  1  0.84727800  0.83100300  0.52088800  1
  C  1079  1  0.82823700  0.85074700  0.51930800  1
  C  1081  1  0.86991400  0.83287700  0.50281500  1
  C  1085  1  0.78100100  0.82981100  0.57383700  1
  C  1089  1  0.22351500  0.85170700  0.39054100  1
  C  1090  1  0.22635100  0.83214100  0.37119900  1
  C  1091  1  0.20717600  0.81256500  0.36972600  1
  C  1092  1  0.18567900  0.81202500  0.38688900  1
  C  1093  1  0.18256700  0.83197700  0.40586200  1
  C  1095  1  0.20185100  0.85148700  0.40748400  1
  C  1097  1  0.15997600  0.83405900  0.42396500  1
  C  1101  1  0.24873800  0.83019500  0.35280900  1
  C  1105  1  0.80655500  0.17746800  0.39003300  1
  C  1106  1  0.80344800  0.19710600  0.37080600  1
  C  1107  1  0.82256500  0.21672100  0.36920400  1
  C  1108  1  0.84422900  0.21722100  0.38614900  1
  C  1109  1  0.84765600  0.19714300  0.40493400  1
  C  1111  1  0.82843600  0.17759100  0.40668700  1
  C  1113  1  0.87045500  0.19502100  0.42277300  1
  C  1117  1  0.78081000  0.19914500  0.35273300  1
  C  1121  1  0.17763900  0.44213900  0.75466400  1
  C  1122  1  0.19728700  0.42290000  0.75168600  1
  C  1123  1  0.21689800  0.42141300  0.77082200  1
  C  1124  1  0.21740800  0.43850400  0.79237500  1
  C  1125  1  0.19739000  0.45737900  0.79562200  1
  C  1127  1  0.17782700  0.45899200  0.77639600  1
  C  1129  1  0.19531600  0.47541000  0.81827000  1
  C  1133  1  0.19930500  0.40465000  0.72918800  1
  C  1137  1  0.85184700  0.44218900  0.17162100  1
  C  1138  1  0.83225800  0.42291700  0.17475500  1
  C  1139  1  0.81251000  0.42139000  0.15576400  1
  C  1140  1  0.81181700  0.43846500  0.13420300  1
  C  1141  1  0.83177300  0.45737900  0.13080500  1
  C  1143  1  0.85146800  0.45904000  0.14989100  1
  C  1145  1  0.83366800  0.47540300  0.10813300  1
  C  1149  1  0.83044400  0.40466900  0.19727100  1
  C  1153  1  0.85123000  0.58815900  0.75532200  1
  C  1154  1  0.83162800  0.60743400  0.75224300  1
  C  1155  1  0.81182600  0.60885900  0.77119200  1
  C  1156  1  0.81107200  0.59168700  0.79267300  1
  C  1157  1  0.83106700  0.57280400  0.79604700  1
  C  1159  1  0.85080900  0.57123800  0.77699800  1
  C  1161  1  0.83294700  0.55470500  0.81865900  1
  C  1165  1  0.82984600  0.62576500  0.72979300  1
  C  1169  1  0.17780100  0.58791800  0.17160900  1
  C  1170  1  0.19733200  0.60724700  0.17476600  1
  C  1171  1  0.21697800  0.60897200  0.15568800  1
  C  1172  1  0.21760500  0.59206500  0.13399500  1
  C  1173  1  0.19763700  0.57316500  0.13053200  1
  C  1175  1  0.17806300  0.57128300  0.14971800  1
  C  1177  1  0.19563700  0.55534900  0.10770300  1
  C  1181  1  0.19920300  0.62533100  0.19740800  1
  C  1185  1  0.44241900  0.22385200  0.80028300  1
  C  1186  1  0.42308100  0.22674600  0.78072100  1
  C  1187  1  0.42155800  0.20758900  0.76113300  1
  C  1188  1  0.43869100  0.18607200  0.76055600  1
  C  1189  1  0.45769500  0.18292500  0.78047300  1
  C  1191  1  0.45934600  0.20217600  0.80001600  1
  C  1193  1  0.47580000  0.16032700  0.78248000  1
  C  1197  1  0.40473400  0.24917200  0.77878600  1
  C  1201  1  0.44201200  0.80644600  0.12663300  1
  C  1202  1  0.42275000  0.80336100  0.14624000  1
  C  1203  1  0.42129100  0.82236000  0.16598000  1
  C  1204  1  0.43842600  0.84387300  0.16664300  1
  C  1205  1  0.45730500  0.84724300  0.14665000  1
  C  1207  1  0.45889600  0.82814900  0.12696300  1
  C  1209  1  0.47536200  0.86988500  0.14471900  1
  C  1213  1  0.40445100  0.78088600  0.14808600  1
  C  1217  1  0.58736300  0.22361800  0.12677700  1
  C  1218  1  0.60675000  0.22647600  0.14629500  1
  C  1219  1  0.60823200  0.20735500  0.16592300  1
  C  1220  1  0.59102700  0.18589600  0.16656700  1
  C  1221  1  0.57198200  0.18277900  0.14668600  1
  C  1223  1  0.57035800  0.20200500  0.12711600  1
  C  1225  1  0.55381400  0.16022700  0.14472400  1
  C  1229  1  0.62520200  0.24882400  0.14812500  1
  C  1233  1  0.58803100  0.80681200  0.79960100  1
  C  1234  1  0.60731300  0.80363700  0.78002500  1
  C  1235  1  0.60884800  0.82258400  0.76023500  1
  C  1236  1  0.59177900  0.84414700  0.75949300  1
  C  1237  1  0.57289400  0.84761500  0.77946800  1
  C  1239  1  0.57121500  0.82856600  0.79919600  1
  C  1241  1  0.55490900  0.87032100  0.78134600  1
  C  1245  1  0.62555300  0.78111000  0.77826600  1
  C  1249  1  0.67798000  0.72446400  0.89071300  1
  C  1250  1  0.69751900  0.72698500  0.87129900  1
  C  1251  1  0.71682100  0.70753300  0.86978700  1
  C  1252  1  0.71713600  0.68606900  0.88699700  1
  C  1253  1  0.69723700  0.68329800  0.90607400  1
  C  1255  1  0.67798400  0.70284100  0.90771200  1
  C  1257  1  0.69495400  0.66079800  0.92426700  1
  C  1261  1  0.69972200  0.74931300  0.85286600  1
  C  1265  1  0.35136400  0.30637000  0.88986400  1
  C  1266  1  0.33187100  0.30350100  0.87045200  1
  C  1267  1  0.31226400  0.32264000  0.86893200  1
  C  1268  1  0.31162900  0.34409400  0.88614000  1
  C  1269  1  0.33156200  0.34729700  0.90511000  1
  C  1271  1  0.35110700  0.32806500  0.90676600  1
  C  1273  1  0.33354500  0.36988000  0.92323700  1
  C  1277  1  0.32997400  0.28108200  0.85209300  1
  C  1281  1  0.35143200  0.72441500  0.03590200  1
  C  1282  1  0.33195300  0.72695100  0.05537300  1
  C  1283  1  0.31262600  0.70752900  0.05691700  1
  C  1284  1  0.31224300  0.68606600  0.03970500  1
  C  1285  1  0.33209300  0.68327200  0.02058000  1
  C  1287  1  0.35135800  0.70279800  0.01889500  1
  C  1289  1  0.33433000  0.66076500  0.00238900  1
  C  1293  1  0.32984800  0.74926000  0.07383900  1
  C  1297  1  0.67799000  0.30580900  0.03646300  1
  C  1298  1  0.69748600  0.30300600  0.05587900  1
  C  1299  1  0.71682200  0.32238900  0.05761600  1
  C  1300  1  0.71716100  0.34403000  0.04063900  1
  C  1301  1  0.69722700  0.34713900  0.02165100  1
  C  1303  1  0.67795500  0.32765600  0.01976700  1
  C  1305  1  0.69496500  0.36987800  0.00375000  1
  C  1309  1  0.69964400  0.28044900  0.07403800  1
  C  1313  1  0.94192900  0.67806800  0.67256100  1
  C  1314  1  0.92252800  0.69760100  0.67524700  1
  C  1315  1  0.92096600  0.71699400  0.65589300  1
  C  1316  1  0.93813400  0.71741100  0.63440000  1
  C  1317  1  0.95720000  0.69752700  0.63146500  1
  C  1319  1  0.95887300  0.67817100  0.65089700  1
  C  1321  1  0.97537000  0.69538000  0.60893300  1
  C  1325  1  0.90418900  0.69973000  0.69765900  1
  C  1329  1  0.94168500  0.35184700  0.25441400  1
  C  1330  1  0.92226700  0.33233300  0.25174700  1
  C  1331  1  0.92074800  0.31291900  0.27108200  1
  C  1332  1  0.93795100  0.31248600  0.29255200  1
  C  1333  1  0.95696500  0.33241700  0.29551200  1
  C  1335  1  0.95862200  0.35176700  0.27608200  1
  C  1337  1  0.97511900  0.33460800  0.31805500  1
  C  1341  1  0.90388500  0.33024300  0.22936800  1
  C  1345  1  0.08803900  0.35135600  0.67192800  1
  C  1346  1  0.10747000  0.33188900  0.67487100  1
  C  1347  1  0.10902600  0.31221200  0.65580300  1
  C  1348  1  0.09182700  0.31146400  0.63434400  1
  C  1349  1  0.07279200  0.33133000  0.63110000  1
  C  1351  1  0.07110700  0.35094900  0.65026000  1
  C  1353  1  0.05464100  0.33318400  0.60852400  1
  C  1357  1  0.12583600  0.33011100  0.69729300  1
  C  1361  1  0.08786800  0.67767000  0.25463600  1
  C  1362  1  0.10726900  0.69717200  0.25175900  1
  C  1363  1  0.10899800  0.71659500  0.27106500  1
  C  1364  1  0.09202800  0.71702500  0.29271300  1
  C  1365  1  0.07306400  0.69707500  0.29590000  1
  C  1367  1  0.07118100  0.67772300  0.27649100  1
  C  1369  1  0.05517500  0.69488200  0.31865500  1
  C  1373  1  0.12541700  0.69925500  0.22918700  1
  C  1377  1  0.72468200  0.94230100  0.62667100  1
  C  1378  1  0.72712500  0.92281000  0.64614600  1
  C  1379  1  0.70766700  0.92131400  0.66543800  1
  C  1380  1  0.68627400  0.93861200  0.66581100  1
  C  1381  1  0.68358000  0.95777100  0.64598200  1
  C  1383  1  0.70312900  0.95939000  0.62673300  1
  C  1385  1  0.66115800  0.97606900  0.64376900  1
  C  1389  1  0.74937700  0.90427800  0.64829000  1
  C  1393  1  0.30588300  0.94182600  0.29992000  1
  C  1394  1  0.30312100  0.92235100  0.28047300  1
  C  1395  1  0.32241300  0.92071500  0.26102900  1
  C  1396  1  0.34391900  0.93786200  0.26051700  1
  C  1397  1  0.34698100  0.95692900  0.28037700  1
  C  1399  1  0.32760000  0.95869800  0.29976500  1
  C  1401  1  0.36958000  0.97502700  0.28245400  1
  C  1405  1  0.28069100  0.90401500  0.27848400  1
  C  1409  1  0.72343600  0.08767500  0.29999400  1
  C  1410  1  0.72637100  0.10707200  0.28049400  1
  C  1411  1  0.70723500  0.10866300  0.26088500  1
  C  1412  1  0.68571500  0.09153500  0.26023800  1
  C  1413  1  0.68250300  0.07251400  0.28012400  1
  C  1415  1  0.70173000  0.07079100  0.29967500  1
  C  1417  1  0.65988400  0.05442800  0.28208400  1
  C  1421  1  0.74883200  0.12537900  0.27862200  1
  C  1425  1  0.30623300  0.08834200  0.62678800  1
  C  1426  1  0.30338400  0.10777000  0.64627000  1
  C  1427  1  0.32254300  0.10932200  0.66585800  1
  C  1428  1  0.34400100  0.09211400  0.66651500  1
  C  1429  1  0.34714500  0.07307600  0.64663500  1
  C  1431  1  0.32790000  0.07140300  0.62709700  1
  C  1433  1  0.36969100  0.05490000  0.64469500  1
  C  1437  1  0.28096200  0.12612400  0.64817300  1
  C  1441  1  0.72409400  0.67761200  0.03662100  1
  C  1442  1  0.72685200  0.69720000  0.05595200  1
  C  1443  1  0.70748400  0.71657100  0.05754200  1
  C  1444  1  0.68589400  0.71687500  0.04049500  1
  C  1445  1  0.68283200  0.69685900  0.02158500  1
  C  1447  1  0.70230100  0.67755300  0.01984900  1
  C  1449  1  0.66015300  0.69454300  0.00361500  1
  C  1453  1  0.74936400  0.69942200  0.07415900  1
  C  1457  1  0.30636200  0.35154500  0.03679100  1
  C  1458  1  0.30354200  0.33206200  0.05621900  1
  C  1459  1  0.32275300  0.31253100  0.05777700  1
  C  1460  1  0.34424800  0.31197800  0.04061200  1
  C  1461  1  0.34738600  0.33190100  0.02162000  1
  C  1463  1  0.32807100  0.35135800  0.01991200  1
  C  1465  1  0.36999500  0.33397300  0.00353600  1
  C  1469  1  0.28112500  0.33012400  0.07457300  1
  C  1473  1  0.72440400  0.35145100  0.89089600  1
  C  1474  1  0.72690100  0.33197700  0.87141800  1
  C  1475  1  0.70745500  0.31267100  0.86988300  1
  C  1476  1  0.68600100  0.31230900  0.88710800  1
  C  1477  1  0.68324700  0.33215800  0.90624000  1
  C  1479  1  0.70279800  0.35139900  0.90791900  1
  C  1481  1  0.66075100  0.33442100  0.92444300  1
  C  1485  1  0.74919200  0.32985500  0.85293000  1
  C  1489  1  0.30589300  0.67784500  0.89026500  1
  C  1490  1  0.30307400  0.69735900  0.87087000  1
  C  1491  1  0.32244200  0.71671500  0.86914100  1
  C  1492  1  0.34408500  0.71707400  0.88611800  1
  C  1493  1  0.34719700  0.69713500  0.90510400  1
  C  1495  1  0.32773400  0.67783800  0.90697200  1
  C  1497  1  0.36992100  0.69489900  0.92302700  1
  C  1501  1  0.28050200  0.69952700  0.85273000  1
  C  1505  1  0.67807500  0.94199500  0.25424900  1
  C  1506  1  0.69759100  0.92258300  0.25153300  1
  C  1507  1  0.71699400  0.92098900  0.27087600  1
  C  1508  1  0.71743000  0.93813800  0.29238400  1
  C  1509  1  0.69755600  0.95720800  0.29535300  1
  C  1511  1  0.67819400  0.95891400  0.27593200  1
  C  1513  1  0.69542700  0.97535200  0.31790700  1
  C  1517  1  0.69968700  0.90425700  0.22910700  1
  C  1521  1  0.35180800  0.94181000  0.67245000  1
  C  1522  1  0.33230200  0.92237800  0.67509700  1
  C  1523  1  0.31291300  0.92083900  0.65573700  1
  C  1524  1  0.31249800  0.93803500  0.63426200  1
  C  1525  1  0.33241100  0.95707000  0.63132600  1
  C  1527  1  0.35173600  0.95874700  0.65078000  1
  C  1529  1  0.33461400  0.97522200  0.60878500  1
  C  1533  1  0.33019600  0.90400000  0.69747800  1
  C  1537  1  0.35137000  0.08794800  0.25494200  1
  C  1538  1  0.33193600  0.10740700  0.25197300  1
  C  1539  1  0.31224100  0.10899100  0.27102000  1
  C  1540  1  0.31145600  0.09180000  0.29248500  1
  C  1541  1  0.33129900  0.07274700  0.29576000  1
  C  1543  1  0.35092900  0.07102800  0.27661800  1
  C  1545  1  0.33311800  0.05461000  0.31834700  1
  C  1549  1  0.33021400  0.12577600  0.22955100  1
  C  1553  1  0.67772700  0.08789500  0.67223900  1
  C  1554  1  0.69723100  0.10730000  0.67507900  1
  C  1555  1  0.71662600  0.10902400  0.65574700  1
  C  1556  1  0.71703100  0.09204500  0.63410400  1
  C  1557  1  0.69707900  0.07307600  0.63095400  1
  C  1559  1  0.67775400  0.07119900  0.65039000  1
  C  1561  1  0.69485600  0.05517500  0.60821100  1
  C  1565  1  0.69934200  0.12545800  0.69764000  1
  C  1569  1  0.94231300  0.72468800  0.30007800  1
  C  1570  1  0.92283000  0.72714400  0.28059900  1
  C  1571  1  0.92133400  0.70769500  0.26130000  1
  C  1572  1  0.93862100  0.68629300  0.26092400  1
  C  1573  1  0.95777700  0.68358800  0.28075700  1
  C  1575  1  0.95939500  0.70312900  0.30001400  1
  C  1577  1  0.97606500  0.66115800  0.28297200  1
  C  1581  1  0.90430600  0.74940300  0.27845700  1
  C  1585  1  0.94180600  0.30589100  0.62688500  1
  C  1586  1  0.92232700  0.30314400  0.64633300  1
  C  1587  1  0.92069300  0.32244600  0.66576700  1
  C  1588  1  0.93784400  0.34395000  0.66627100  1
  C  1589  1  0.95691200  0.34699700  0.64640900  1
  C  1591  1  0.95867900  0.32760600  0.62703300  1
  C  1593  1  0.97501200  0.36959200  0.64432100  1
  C  1597  1  0.90399000  0.28071800  0.64833100  1
  C  1601  1  0.08760800  0.72351100  0.62670600  1
  C  1602  1  0.10698300  0.72642400  0.64623100  1
  C  1603  1  0.10853100  0.70727800  0.66583100  1
  C  1604  1  0.09138300  0.68577300  0.66643900  1
  C  1605  1  0.07238400  0.68258300  0.64653100  1
  C  1607  1  0.07070300  0.70182200  0.62699000  1
  C  1609  1  0.05428600  0.65997800  0.64453700  1
  C  1613  1  0.12531100  0.74886700  0.64813500  1
  C  1617  1  0.08845800  0.30628400  0.29997500  1
  C  1618  1  0.10785700  0.30338600  0.28047100  1
  C  1619  1  0.10938200  0.32250000  0.26083600  1
  C  1620  1  0.09217600  0.34395600  0.26015500  1
  C  1621  1  0.07317800  0.34715600  0.28006400  1
  C  1623  1  0.07152900  0.32795800  0.29964600  1
  C  1625  1  0.05501600  0.36971700  0.28198600  1
  C  1629  1  0.12620200  0.28095400  0.27858900  1
  C  1633  1  0.23708200  0.99430300  0.33865000  1
  C  1634  1  0.22675200  0.00690300  0.31622800  1
  C  1635  1  0.22754500  0.03437400  0.31485100  1
  C  1636  1  0.23859700  0.04949100  0.33505800  1
  C  1637  1  0.24544200  0.03699700  0.35889200  1
  C  1639  1  0.24389000  0.00962500  0.36046600  1
  C  1641  1  0.25719800  0.05106500  0.38133800  1
  C  1645  1  0.21747500  0.99242600  0.29290000  1
  C  1649  1  0.79202400  0.03519400  0.33903400  1
  C  1650  1  0.80239300  0.02251900  0.31667600  1
  C  1651  1  0.80146700  0.99504900  0.31533800  1
  C  1652  1  0.79026300  0.98005100  0.33554900  1
  C  1653  1  0.78341100  0.99259300  0.35934200  1
  C  1655  1  0.78509900  0.01995400  0.36087300  1
  C  1657  1  0.77154200  0.97861100  0.38178000  1
  C  1661  1  0.81183600  0.03692400  0.29337400  1
  C  1665  1  0.79333100  0.99419600  0.58697100  1
  C  1666  1  0.80362000  0.00729400  0.60910300  1
  C  1667  1  0.80164100  0.03470200  0.61044700  1
  C  1668  1  0.78893100  0.04917300  0.59074000  1
  C  1669  1  0.78124900  0.03625400  0.56738900  1
  C  1671  1  0.78504500  0.00912300  0.56538700  1
  C  1673  1  0.76594800  0.04809700  0.54575600  1
  C  1677  1  0.81403100  0.99325200  0.63221300  1
  C  1681  1  0.23765500  0.03547400  0.58821600  1
  C  1682  1  0.22769900  0.02268500  0.61068900  1
  C  1683  1  0.22873500  0.99521300  0.61188100  1
  C  1684  1  0.23953600  0.98026300  0.59140100  1
  C  1685  1  0.24578500  0.99295900  0.56751600  1
  C  1687  1  0.24421700  0.02034100  0.56619700  1
  C  1689  1  0.25635800  0.97898500  0.54444500  1
  C  1693  1  0.21853800  0.03695100  0.63419000  1
  C  1697  1  0.39005100  0.23788800  0.94276300  1
  C  1698  1  0.36761700  0.22770700  0.95546100  1
  C  1699  1  0.36640300  0.22846100  0.98294100  1
  C  1700  1  0.38683300  0.23920100  0.99799300  1
  C  1701  1  0.41068100  0.24574400  0.98538000  1
  C  1703  1  0.41201300  0.24443300  0.95798500  1
  C  1705  1  0.43368900  0.25631500  0.99946100  1
  C  1709  1  0.34415900  0.21856500  0.94111100  1
  C  1713  1  0.39122700  0.79288700  0.98388800  1
  C  1714  1  0.36915200  0.80335300  0.97082000  1
  C  1715  1  0.36783700  0.80158600  0.94339400  1
  C  1716  1  0.38753200  0.78890600  0.92889600  1
  C  1717  1  0.41085200  0.78106200  0.94176100  1
  C  1719  1  0.41281700  0.78468500  0.96891700  1
  C  1721  1  0.43246200  0.76576300  0.92987300  1
  C  1725  1  0.34605400  0.81375100  0.98489300  1
  C  1729  1  0.63853000  0.79329800  0.94257900  1
  C  1730  1  0.66074100  0.80342100  0.95566500  1
  C  1731  1  0.66212800  0.80134300  0.98306400  1
  C  1732  1  0.64238600  0.78867800  0.99752600  1
  C  1733  1  0.61895300  0.78120200  0.98463000  1
  C  1735  1  0.61690000  0.78515600  0.95752400  1
  C  1737  1  0.59726000  0.76596500  0.99645500  1
  C  1741  1  0.68388400  0.81373300  0.94160400  1
  C  1745  1  0.63951700  0.23689100  0.98396600  1
  C  1746  1  0.66202100  0.22704300  0.97114700  1
  C  1747  1  0.66325600  0.22826200  0.94368600  1
  C  1748  1  0.64278800  0.23914900  0.92878300  1
  C  1749  1  0.61885200  0.24520600  0.94147900  1
  C  1751  1  0.61748500  0.24343400  0.96884900  1
  C  1753  1  0.59578700  0.25584200  0.92754800  1
  C  1757  1  0.68553400  0.21790100  0.98540200  1
  C  1761  1  0.99443000  0.39025500  0.18568300  1
  C  1762  1  0.00702500  0.36780600  0.17540900  1
  C  1763  1  0.03449000  0.36636200  0.17632700  1
  C  1764  1  0.04960700  0.38654100  0.18742800  1
  C  1765  1  0.03713100  0.41037700  0.19428900  1
  C  1767  1  0.00977300  0.41201700  0.19261700  1
  C  1769  1  0.05120100  0.43276400  0.20614400  1
  C  1773  1  0.99253500  0.34452700  0.16603200  1
  C  1777  1  0.03533700  0.39039500  0.74033900  1
  C  1778  1  0.02271000  0.36804900  0.75079500  1
  C  1779  1  0.99523400  0.36671900  0.75003400  1
  C  1780  1  0.98016800  0.38691800  0.73890000  1
  C  1781  1  0.99268500  0.41067700  0.73187400  1
  C  1783  1  0.02005700  0.41219800  0.73339100  1
  C  1785  1  0.97863700  0.43307700  0.72001700  1
  C  1789  1  0.03714800  0.34475700  0.76021900  1
  C  1793  1  0.99421600  0.63920700  0.74142200  1
  C  1794  1  0.00692500  0.66160600  0.75163900  1
  C  1795  1  0.03438600  0.66294400  0.75056200  1
  C  1796  1  0.04937800  0.64273100  0.73933800  1
  C  1797  1  0.03677600  0.61892000  0.73260800  1
  C  1799  1  0.00941800  0.61737000  0.73442200  1
  C  1801  1  0.05072500  0.59647700  0.72070500  1
  C  1805  1  0.99255400  0.68494500  0.76104300  1
  C  1809  1  0.03538900  0.63948200  0.18551400  1
  C  1810  1  0.02271900  0.66202300  0.17556900  1
  C  1811  1  0.99526400  0.66342700  0.17673700  1
  C  1812  1  0.98025100  0.64313800  0.18780200  1
  C  1813  1  0.99279800  0.61918700  0.19412700  1
  C  1815  1  0.02014100  0.61758000  0.19220700  1
  C  1817  1  0.97884300  0.59661100  0.20576000  1
  C  1821  1  0.03713800  0.68541700  0.16637400  1
  C  1825  1  0.99429600  0.23710500  0.58813800  1
  C  1826  1  0.00689800  0.22677200  0.61055600  1
  C  1827  1  0.03436900  0.22757400  0.61193300  1
  C  1828  1  0.04948200  0.23863600  0.59172800  1
  C  1829  1  0.03698700  0.24548300  0.56789600  1
  C  1831  1  0.00961500  0.24392500  0.56632400  1
  C  1833  1  0.05105400  0.25724000  0.54545200  1
  C  1837  1  0.99242200  0.21747800  0.63387800  1
  C  1841  1  0.03517400  0.79214300  0.58772100  1
  C  1842  1  0.02248800  0.80246300  0.61009600  1
  C  1843  1  0.99502000  0.80147900  0.61144400  1
  C  1844  1  0.98003500  0.79027300  0.59122700  1
  C  1845  1  0.99258100  0.78347900  0.56741600  1
  C  1847  1  0.01993900  0.78522400  0.56587800  1
  C  1849  1  0.97861300  0.77161400  0.54496900  1
  C  1853  1  0.03688500  0.81189300  0.63340900  1
  C  1857  1  0.99419200  0.79334100  0.33979300  1
  C  1858  1  0.00728800  0.80363500  0.31766400  1
  C  1859  1  0.03469700  0.80166400  0.31632200  1
  C  1860  1  0.04917000  0.78895800  0.33602600  1
  C  1861  1  0.03625200  0.78126800  0.35937500  1
  C  1863  1  0.00912100  0.78505900  0.36137800  1
  C  1865  1  0.04810000  0.76596400  0.38100500  1
  C  1869  1  0.99324400  0.81404700  0.29455600  1
  C  1873  1  0.03553600  0.23774800  0.33853500  1
  C  1874  1  0.02276300  0.22778100  0.31605900  1
  C  1875  1  0.99529100  0.22879000  0.31485900  1
  C  1876  1  0.98032300  0.23957100  0.33533500  1
  C  1877  1  0.99300600  0.24584900  0.35922000  1
  C  1879  1  0.02039000  0.24431000  0.36054400  1
  C  1881  1  0.97901600  0.25641100  0.38228600  1
  C  1885  1  0.03704200  0.21862400  0.29256300  1
  C  1889  1  0.23767400  0.39021200  0.98414300  1
  C  1890  1  0.22731100  0.36778800  0.97157600  1
  C  1891  1  0.22803800  0.36640100  0.94410300  1
  C  1892  1  0.23904100  0.38660700  0.92894800  1
  C  1893  1  0.24598200  0.41041800  0.94142400  1
  C  1895  1  0.24450100  0.41200300  0.96879600  1
  C  1897  1  0.25774100  0.43283200  0.92731600  1
  C  1901  1  0.21802400  0.34448000  0.98607700  1
  C  1905  1  0.79291600  0.39122300  0.94287400  1
  C  1906  1  0.80338800  0.36914800  0.95593600  1
  C  1907  1  0.80163900  0.36783300  0.98336400  1
  C  1908  1  0.78895400  0.38752200  0.99787000  1
  C  1909  1  0.78108900  0.41083400  0.98500400  1
  C  1911  1  0.78471200  0.41280800  0.95785100  1
  C  1913  1  0.76576700  0.43242300  0.99690200  1
  C  1917  1  0.81378200  0.34605000  0.94186100  1
  C  1921  1  0.79277800  0.63901100  0.98398000  1
  C  1922  1  0.80283700  0.66144200  0.97120500  1
  C  1923  1  0.80139500  0.66286800  0.94376600  1
  C  1924  1  0.79000400  0.64268600  0.92886400  1
  C  1925  1  0.78341100  0.61885000  0.94148500  1
  C  1927  1  0.78558400  0.61721600  0.96880800  1
  C  1929  1  0.77133600  0.59644800  0.92762200  1
  C  1933  1  0.81243200  0.68473100  0.98553000  1
  C  1937  1  0.23690500  0.63959500  0.94284400  1
  C  1938  1  0.22707200  0.66212800  0.95562000  1
  C  1939  1  0.22822700  0.66338200  0.98308400  1
  C  1940  1  0.23906300  0.64291400  0.99802800  1
  C  1941  1  0.24511700  0.61896100  0.98536600  1
  C  1943  1  0.24339100  0.61756800  0.95799700  1
  C  1945  1  0.25571700  0.59589800  0.99933300  1
  C  1949  1  0.21799300  0.68564300  0.94132500  1
  C  1953  1  0.39031000  0.99452700  0.74115100  1
  C  1954  1  0.36788000  0.00716500  0.75141300  1
  C  1955  1  0.36646600  0.03462900  0.75044300  1
  C  1956  1  0.38665500  0.04970300  0.73930300  1
  C  1957  1  0.41048000  0.03719100  0.73247400  1
  C  1959  1  0.41209100  0.00983400  0.73419800  1
  C  1961  1  0.43288600  0.05121900  0.72060300  1
  C  1965  1  0.34458700  0.99271400  0.76081900  1
  C  1969  1  0.39038800  0.03528900  0.18647800  1
  C  1970  1  0.36803400  0.02269100  0.17600200  1
  C  1971  1  0.36668800  0.99521500  0.17673400  1
  C  1972  1  0.38687800  0.98012700  0.18785600  1
  C  1973  1  0.41064600  0.99261800  0.19488500  1
  C  1975  1  0.41218600  0.01998900  0.19339100  1
  C  1977  1  0.43303800  0.97855300  0.20673800  1
  C  1981  1  0.34475700  0.03715700  0.16658900  1
  C  1985  1  0.63919800  0.99429000  0.18539800  1
  C  1986  1  0.66159800  0.00697000  0.17515100  1
  C  1987  1  0.66295000  0.03443400  0.17616700  1
  C  1988  1  0.64274300  0.04946200  0.18735300  1
  C  1989  1  0.61893200  0.03688200  0.19411800  1
  C  1991  1  0.61737000  0.00952000  0.19237100  1
  C  1993  1  0.59650000  0.05086700  0.20599600  1
  C  1997  1  0.68492800  0.99257000  0.16576000  1
  C  2001  1  0.63952500  0.03537400  0.74131900  1
  C  2002  1  0.66205400  0.02267400  0.75125100  1
  C  2003  1  0.66344100  0.99521900  0.75004200  1
  C  2004  1  0.64314400  0.98023800  0.73895000  1
  C  2005  1  0.61920700  0.99280700  0.73263100  1
  C  2007  1  0.61761700  0.02015000  0.73458900  1
  C  2009  1  0.59662500  0.97888400  0.72097000  1
  C  2013  1  0.68545400  0.03706300  0.76047600  1
  C  2017  1  0.73716600  0.49383900  0.83915100  1
  C  2018  1  0.72679400  0.50628600  0.81667500  1
  C  2019  1  0.72745200  0.53375500  0.81520000  1
  C  2020  1  0.73839500  0.54901900  0.83536200  1
  C  2021  1  0.74525400  0.53663000  0.85924700  1
  C  2023  1  0.74386300  0.50925500  0.86093000  1
  C  2025  1  0.75691800  0.55085800  0.88163800  1
  C  2029  1  0.71763900  0.49166200  0.79339200  1
  C  2033  1  0.29195200  0.53576300  0.83935200  1
  C  2034  1  0.30242300  0.52324600  0.81696300  1
  C  2035  1  0.30143400  0.49578900  0.81545900  1
  C  2036  1  0.29009900  0.48067900  0.83551600  1
  C  2037  1  0.28306300  0.49311100  0.85932300  1
  C  2039  1  0.28480500  0.52045500  0.86105700  1
  C  2041  1  0.27097700  0.47901000  0.88156800  1
  C  2045  1  0.31201900  0.53778900  0.79381000  1
  C  2049  1  0.29302300  0.49414900  0.08698700  1
  C  2050  1  0.30341700  0.50699900  0.10922200  1
  C  2051  1  0.30195200  0.53443700  0.11064500  1
  C  2052  1  0.28963200  0.54919000  0.09090600  1
  C  2053  1  0.28197900  0.53650400  0.06741400  1
  C  2055  1  0.28529600  0.50931300  0.06536200  1
  C  2057  1  0.26713600  0.54865100  0.04563300  1
  C  2061  1  0.31340400  0.49269800  0.13236200  1
  C  2065  1  0.73792800  0.53572800  0.08817400  1
  C  2066  1  0.72766800  0.52323500  0.11067800  1
  C  2067  1  0.72814400  0.49575400  0.11198500  1
  C  2068  1  0.73873200  0.48055900  0.09158200  1
  C  2069  1  0.74527300  0.49299400  0.06764400  1
  C  2071  1  0.74421700  0.52039300  0.06621400  1
  C  2073  1  0.75566100  0.47873700  0.04466000  1
  C  2077  1  0.71875100  0.53778000  0.13410200  1
  C  2081  1  0.89041500  0.73741300  0.44222400  1
  C  2082  1  0.86799300  0.72688700  0.45464600  1
  C  2083  1  0.86655400  0.72738400  0.48212100  1
  C  2084  1  0.88670700  0.73834700  0.49737700  1
  C  2085  1  0.91055100  0.74539400  0.48502500  1
  C  2087  1  0.91218900  0.74414500  0.45764200  1
  C  2089  1  0.93291600  0.75706400  0.49928200  1
  C  2093  1  0.84473000  0.71770900  0.44000800  1
  C  2097  1  0.89125900  0.29236700  0.48447400  1
  C  2098  1  0.86905700  0.30284000  0.47163400  1
  C  2099  1  0.86761900  0.30137700  0.44419800  1
  C  2100  1  0.88731200  0.28899500  0.42944100  1
  C  2101  1  0.91076100  0.28119900  0.44211700  1
  C  2103  1  0.91283300  0.28450300  0.46930600  1
  C  2105  1  0.93245000  0.26623400  0.42995500  1
  C  2109  1  0.84596700  0.31294000  0.48593700  1
  C  2113  1  0.13880300  0.29259100  0.44262800  1
  C  2114  1  0.16127400  0.30289500  0.45513900  1
  C  2115  1  0.16273600  0.30197500  0.48259800  1
  C  2116  1  0.14257700  0.29083200  0.49771900  1
  C  2117  1  0.11866700  0.28412500  0.48529200  1
  C  2119  1  0.11698200  0.28579600  0.45793200  1
  C  2121  1  0.09625600  0.27236400  0.49940800  1
  C  2125  1  0.18455900  0.31216100  0.44059000  1
  C  2129  1  0.13934300  0.73748600  0.48427100  1
  C  2130  1  0.16194200  0.72752800  0.47171300  1
  C  2131  1  0.16331000  0.72834800  0.44424400  1
  C  2132  1  0.14289400  0.73897200  0.42908200  1
  C  2133  1  0.11888900  0.74519700  0.44157000  1
  C  2135  1  0.11738400  0.74380400  0.46895100  1
  C  2137  1  0.09588000  0.75562200  0.42737600  1
  C  2141  1  0.18540100  0.71862800  0.48621300  1
  C  2145  1  0.49406500  0.89087900  0.68612200  1
  C  2146  1  0.50642800  0.86843700  0.67555700  1
  C  2147  1  0.53390100  0.86693900  0.67599100  1
  C  2148  1  0.54924300  0.88704200  0.68692500  1
  C  2149  1  0.53693800  0.91090900  0.69399100  1
  C  2151  1  0.50955900  0.91261500  0.69278200  1
  C  2153  1  0.55125100  0.93323900  0.70566300  1
  C  2157  1  0.49172600  0.84520300  0.66640000  1
  C  2161  1  0.53594100  0.89037100  0.24055900  1
  C  2162  1  0.52346700  0.86794100  0.25100700  1
  C  2163  1  0.49599600  0.86650300  0.25037000  1
  C  2164  1  0.48079800  0.88666000  0.23933800  1
  C  2165  1  0.49318700  0.91048400  0.23230000  1
  C  2167  1  0.52055800  0.91212800  0.23370200  1
  C  2169  1  0.47899100  0.93283200  0.22052100  1
  C  2173  1  0.53805800  0.84468300  0.26027500  1
  C  2177  1  0.49410400  0.13901800  0.24153700  1
  C  2178  1  0.50661200  0.16158800  0.25162300  1
  C  2179  1  0.53406700  0.16310500  0.25066400  1
  C  2180  1  0.54924100  0.14290800  0.23965700  1
  C  2181  1  0.53683500  0.11893200  0.23314300  1
  C  2183  1  0.50948300  0.11720100  0.23487500  1
  C  2185  1  0.55096500  0.09647700  0.22147600  1
  C  2189  1  0.49203000  0.18491600  0.26072700  1
  C  2193  1  0.53570700  0.13917100  0.68619800  1
  C  2194  1  0.52330700  0.16168600  0.67586100  1
  C  2195  1  0.49584200  0.16319500  0.67660300  1
  C  2196  1  0.48060700  0.14304800  0.68761200  1
  C  2197  1  0.49295100  0.11911800  0.69440000  1
  C  2199  1  0.52031300  0.11738700  0.69290300  1
  C  2201  1  0.47873500  0.09672800  0.70607800  1
  C  2205  1  0.53794900  0.18493300  0.66666667  1
  C  2209  1  0.49391700  0.73740400  0.08758100  1
  C  2210  1  0.50648500  0.72719300  0.11006400  1
  C  2211  1  0.53395800  0.72792500  0.11139900  1
  C  2212  1  0.54912000  0.73867400  0.09105000  1
  C  2213  1  0.53661100  0.74514900  0.06712300  1
  C  2215  1  0.50921800  0.74386900  0.06565200  1
  C  2217  1  0.55081300  0.75570600  0.04418000  1
  C  2221  1  0.49199300  0.71813900  0.13346900  1
  C  2225  1  0.53587400  0.29248300  0.08689200  1
  C  2226  1  0.52304600  0.30295900  0.10908900  1
  C  2227  1  0.49562200  0.30130300  0.11055700  1
  C  2228  1  0.48093900  0.28871800  0.09092900  1
  C  2229  1  0.49363500  0.28089200  0.06749900  1
  C  2231  1  0.52078800  0.28441300  0.06534800  1
  C  2233  1  0.48155000  0.26568300  0.04593500  1
  C  2237  1  0.53732600  0.31324200  0.13210900  1
  C  2241  1  0.49397800  0.29288900  0.83984100  1
  C  2242  1  0.50681400  0.30331000  0.81761100  1
  C  2243  1  0.53425600  0.30190900  0.81620700  1
  C  2244  1  0.54905400  0.28964700  0.83596200  1
  C  2245  1  0.53634800  0.28196500  0.85943200  1
  C  2247  1  0.50914600  0.28519600  0.86147000  1
  C  2249  1  0.54853000  0.26716300  0.88121500  1
  C  2253  1  0.49250300  0.31326300  0.79446300  1
  C  2257  1  0.53588400  0.73789100  0.83862100  1
  C  2258  1  0.52334400  0.72762200  0.81614700  1
  C  2259  1  0.49586300  0.72816500  0.81485900  1
  C  2260  1  0.48070300  0.73880600  0.83525900  1
  C  2261  1  0.49317900  0.74537400  0.85916900  1
  C  2263  1  0.52058000  0.74427000  0.86057600  1
  C  2265  1  0.47895000  0.75581300  0.88214900  1
  C  2269  1  0.53784400  0.71863800  0.79272000  1
  C  2273  1  0.73742500  0.89040400  0.48454200  1
  C  2274  1  0.72690900  0.86797800  0.47211900  1
  C  2275  1  0.72740300  0.86654400  0.44464200  1
  C  2276  1  0.73835600  0.88670300  0.42939000  1
  C  2277  1  0.74538800  0.91054900  0.44174500  1
  C  2279  1  0.74414100  0.91218300  0.46912900  1
  C  2281  1  0.75704200  0.93292400  0.42749100  1
  C  2285  1  0.71774200  0.84470600  0.48675300  1
  C  2289  1  0.29239800  0.89123000  0.44230400  1
  C  2290  1  0.30285800  0.86901600  0.45513500  1
  C  2291  1  0.30143000  0.86758800  0.48257500  1
  C  2292  1  0.28911400  0.88730800  0.49736900  1
  C  2293  1  0.28133800  0.91074900  0.48467500  1
  C  2295  1  0.28459300  0.91281600  0.45748000  1
  C  2297  1  0.26642500  0.93245800  0.49686000  1
  C  2301  1  0.31291100  0.84591000  0.44082400  1
  C  2305  1  0.29256700  0.13875700  0.48418400  1
  C  2306  1  0.30288700  0.16122300  0.47168000  1
  C  2307  1  0.30197300  0.16269100  0.44421900  1
  C  2308  1  0.29081800  0.14254200  0.42909400  1
  C  2309  1  0.28409200  0.11863500  0.44151500  1
  C  2311  1  0.28575900  0.11694400  0.46887500  1
  C  2313  1  0.27231700  0.09623500  0.42739300  1
  C  2317  1  0.31217100  0.18449700  0.48623300  1
  C  2321  1  0.73740600  0.13934700  0.44250700  1
  C  2322  1  0.72747200  0.16195600  0.45506700  1
  C  2323  1  0.72830700  0.16332800  0.48253600  1
  C  2324  1  0.73892700  0.14290700  0.49769400  1
  C  2325  1  0.74512700  0.11889500  0.48520800  1
  C  2327  1  0.74371700  0.11738600  0.45782500  1
  C  2329  1  0.75555200  0.09588200  0.49939700  1
  C  2333  1  0.71858900  0.18542100  0.44056900  1
  C  2337  1  0.89081900  0.49413700  0.24068500  1
  C  2338  1  0.86836700  0.50650800  0.25122000  1
  C  2339  1  0.86687300  0.53398100  0.25076800  1
  C  2340  1  0.88698700  0.54931500  0.23984800  1
  C  2341  1  0.91086200  0.53700400  0.23282000  1
  C  2343  1  0.91256500  0.50962300  0.23404500  1
  C  2345  1  0.93321000  0.55130800  0.22116800  1
  C  2349  1  0.84512100  0.49181400  0.26035700  1
  C  2353  1  0.89027900  0.53598700  0.68644000  1
  C  2354  1  0.86787100  0.52351700  0.67594400  1
  C  2355  1  0.86646400  0.49604000  0.67650900  1
  C  2356  1  0.88663100  0.48083700  0.68751700  1
  C  2357  1  0.91044100  0.49323200  0.69458900  1
  C  2359  1  0.91205000  0.52061100  0.69326900  1
  C  2361  1  0.93280500  0.47902800  0.70632700  1
  C  2365  1  0.84460700  0.53810300  0.66666667  1
  C  2369  1  0.13901600  0.49403400  0.68535600  1
  C  2370  1  0.16153900  0.50654500  0.67517100  1
  C  2371  1  0.16301800  0.53400600  0.67604600  1
  C  2372  1  0.14282700  0.54918400  0.68706100  1
  C  2373  1  0.11889200  0.53676300  0.69369100  1
  C  2375  1  0.11720000  0.50940100  0.69205100  1
  C  2377  1  0.09645000  0.55089500  0.70538300  1
  C  2381  1  0.18486300  0.49197500  0.66603700  1
  C  2385  1  0.13914500  0.53559400  0.24058000  1
  C  2386  1  0.16165000  0.52314900  0.25088800  1
  C  2387  1  0.16314400  0.49568600  0.25006800  1
  C  2388  1  0.14299000  0.48049600  0.23901400  1
  C  2389  1  0.11907300  0.49287100  0.23224100  1
  C  2391  1  0.11735600  0.52022900  0.23381700  1
  C  2393  1  0.09668200  0.47869800  0.22051500  1
  C  2397  1  0.18490300  0.53775200  0.26014700  1
