# generated using pymatgen
data_H11C15(N2O)2
_symmetry_space_group_name_H-M   'P 1'
_cell_length_a   39.32520000
_cell_length_b   39.32520000
_cell_length_c   56.34120000
_cell_angle_alpha   90.00000000
_cell_angle_beta   90.00000000
_cell_angle_gamma   90.00000000
_symmetry_Int_Tables_number   1
_chemical_formula_structural   H11C15(N2O)2
_chemical_formula_sum   'H352 C480 N128 O64'
_cell_volume   87130.05190858
_cell_formula_units_Z   32
loop_
 _symmetry_equiv_pos_site_id
 _symmetry_equiv_pos_as_xyz
  1  'x, y, z'
loop_
 _atom_site_type_symbol
 _atom_site_label
 _atom_site_symmetry_multiplicity
 _atom_site_fract_x
 _atom_site_fract_y
 _atom_site_fract_z
 _atom_site_occupancy
  H  7  1  0.20060600  0.45857400  0.90723000  1
  H  8  1  0.19375200  0.36673900  0.86947900  1
  H  9  1  0.22399800  0.36598200  0.94105200  1
  H  16  1  0.13686400  0.44348400  0.88363600  1
  H  17  1  0.12986700  0.45501100  0.80950900  1
  H  18  1  0.22003900  0.41833700  0.84036200  1
  H  23  1  0.17750500  0.41763600  0.78809700  1
  H  24  1  0.19713700  0.31469600  0.89044100  1
  H  25  1  0.24298100  0.42408200  0.95700900  1
  H  26  1  0.08578300  0.46562000  0.86626900  1
  H  33  1  0.30452500  0.51626900  0.40699000  1
  H  34  1  0.31201900  0.60832800  0.36954500  1
  H  35  1  0.28172500  0.60879000  0.44111200  1
  H  42  1  0.36852700  0.53145300  0.38345500  1
  H  43  1  0.37537800  0.52012500  0.30930700  1
  H  44  1  0.28527500  0.55676300  0.34030000  1
  H  49  1  0.32754600  0.55781000  0.28806500  1
  H  50  1  0.30961800  0.66020300  0.39099600  1
  H  51  1  0.26207600  0.55044600  0.45668900  1
  H  52  1  0.41957600  0.50936600  0.36602000  1
  H  59  1  0.78289000  0.93660600  0.15680300  1
  H  60  1  0.87563200  0.92753000  0.12034000  1
  H  61  1  0.87517900  0.95682900  0.19210100  1
  H  68  1  0.79791800  0.87228300  0.13228100  1
  H  69  1  0.78921700  0.86827300  0.05782300  1
  H  70  1  0.82510700  0.95694900  0.09110600  1
  H  75  1  0.83248100  0.92028300  0.04025500  1
  H  76  1  0.92674400  0.92639100  0.14330100  1
  H  77  1  0.81696700  0.97740600  0.20726000  1
  H  78  1  0.77767700  0.82169500  0.11368000  1
  H  85  1  0.72230500  0.03863200  0.65686900  1
  H  86  1  0.62986800  0.04620700  0.61990700  1
  H  87  1  0.62998800  0.01696200  0.69167900  1
  H  94  1  0.70712900  0.10248500  0.63241800  1
  H  95  1  0.71623800  0.10709400  0.55800600  1
  H  96  1  0.68067600  0.01795400  0.59084000  1
  H  101  1  0.67453400  0.05622300  0.53952000  1
  H  102  1  0.57831900  0.04480000  0.64169200  1
  H  103  1  0.68809800  0.99744900  0.70725900  1
  H  104  1  0.72687000  0.15340200  0.61407800  1
  H  111  1  0.32412600  0.45591900  0.59124600  1
  H  112  1  0.29722700  0.37250400  0.63379200  1
  H  113  1  0.28630500  0.36682100  0.55955700  1
  H  120  1  0.37506700  0.42819100  0.62039300  1
  H  121  1  0.37575400  0.45748800  0.69215100  1
  H  122  1  0.28302200  0.43624700  0.65779400  1
  H  127  1  0.31796400  0.47720800  0.70807700  1
  H  128  1  0.27444000  0.32201500  0.61590800  1
  H  129  1  0.32730900  0.41565700  0.53969400  1
  H  130  1  0.42684800  0.42873500  0.64236700  1
  H  137  1  0.18108700  0.51911200  0.09118300  1
  H  138  1  0.20779100  0.60251200  0.13380900  1
  H  139  1  0.21881900  0.60831700  0.05958600  1
  H  146  1  0.13008300  0.54667000  0.12032800  1
  H  147  1  0.12941700  0.51722600  0.19205700  1
  H  148  1  0.22212000  0.53873300  0.15774100  1
  H  153  1  0.18724400  0.49766100  0.20801100  1
  H  154  1  0.23049600  0.65306500  0.11597000  1
  H  155  1  0.17869500  0.55995400  0.03935400  1
  H  156  1  0.07827800  0.54574200  0.14214100  1
  H  163  1  0.72081300  0.91790000  0.33916600  1
  H  164  1  0.63784300  0.93996000  0.38346900  1
  H  165  1  0.62908500  0.95256700  0.30949500  1
  H  172  1  0.70257500  0.86587500  0.36783600  1
  H  173  1  0.73593800  0.86731400  0.43870900  1
  H  174  1  0.69801000  0.95672500  0.40700400  1
  H  179  1  0.74624900  0.92604700  0.45570900  1
  H  180  1  0.58563700  0.95976100  0.36692900  1
  H  181  1  0.67663500  0.91770700  0.28700100  1
  H  182  1  0.73221200  0.81725200  0.38515200  1
  H  189  1  0.78447400  0.05695000  0.83898100  1
  H  190  1  0.86742100  0.03488800  0.88330400  1
  H  191  1  0.87623700  0.02233100  0.80932800  1
  H  198  1  0.80254100  0.10895000  0.86772000  1
  H  199  1  0.76907400  0.10724600  0.93857100  1
  H  200  1  0.80730200  0.01801400  0.90679300  1
  H  205  1  0.75878300  0.04831000  0.95539500  1
  H  206  1  0.91964400  0.01513900  0.86678300  1
  H  207  1  0.82858300  0.05733100  0.78685800  1
  H  208  1  0.77251200  0.15737300  0.88507400  1
  H  215  1  0.80397100  0.51833900  0.09780000  1
  H  216  1  0.81173700  0.61095200  0.13454100  1
  H  217  1  0.78264100  0.61055000  0.06274800  1
  H  224  1  0.86783500  0.53350300  0.12231500  1
  H  225  1  0.87216600  0.52444200  0.19673400  1
  H  226  1  0.78326600  0.56026900  0.16373200  1
  H  231  1  0.82074300  0.56688800  0.21483000  1
  H  232  1  0.81136300  0.66232600  0.11221300  1
  H  233  1  0.76299200  0.55243500  0.04726800  1
  H  234  1  0.91851800  0.51320300  0.14076200  1
  H  241  1  0.70143100  0.45673800  0.59795200  1
  H  242  1  0.69377100  0.36414300  0.63473500  1
  H  243  1  0.72287700  0.36452200  0.56294200  1
  H  250  1  0.63754800  0.44137300  0.62234000  1
  H  251  1  0.63283300  0.45046400  0.69673700  1
  H  252  1  0.72203600  0.41497100  0.66394900  1
  H  257  1  0.68360000  0.40899000  0.71533800  1
  H  258  1  0.69416800  0.31275400  0.61239000  1
  H  259  1  0.74253200  0.42267800  0.54747200  1
  H  260  1  0.58662100  0.46113900  0.64062900  1
  H  267  1  0.22167000  0.04216700  0.84888900  1
  H  268  1  0.13027300  0.03632500  0.88736900  1
  H  269  1  0.13304400  0.00381900  0.81633400  1
  H  276  1  0.20336000  0.10206000  0.87278600  1
  H  277  1  0.21342800  0.11023300  0.94698800  1
  H  278  1  0.18220700  0.01801200  0.91626600  1
  H  283  1  0.17832400  0.06076300  0.96833800  1
  H  284  1  0.08231900  0.00605900  0.86951500  1
  H  285  1  0.19222700  0.99391000  0.79988200  1
  H  286  1  0.21827400  0.15498800  0.88977400  1
  H  293  1  0.28355600  0.93246300  0.34886000  1
  H  294  1  0.37483600  0.93823300  0.38748000  1
  H  295  1  0.37236700  0.97052800  0.31639600  1
  H  302  1  0.30149400  0.87264400  0.37287600  1
  H  303  1  0.29120800  0.86473600  0.44708000  1
  H  304  1  0.32295100  0.95672500  0.41627800  1
  H  309  1  0.32665600  0.91411600  0.46835900  1
  H  310  1  0.42295000  0.96822700  0.36967300  1
  H  311  1  0.31327200  0.98050600  0.29982700  1
  H  312  1  0.28584200  0.81990900  0.38992800  1
  H  319  1  0.68297700  0.51915100  0.41568200  1
  H  320  1  0.70504400  0.60223000  0.37148000  1
  H  321  1  0.71746100  0.61087000  0.44546600  1
  H  328  1  0.63101300  0.53727900  0.38693900  1
  H  329  1  0.63266600  0.50427000  0.31598900  1
  H  330  1  0.72191900  0.54227800  0.34785600  1
  H  335  1  0.69147000  0.49410000  0.29906900  1
  H  336  1  0.72460900  0.65442800  0.38805000  1
  H  337  1  0.68248600  0.56316600  0.46785800  1
  H  338  1  0.58256000  0.50751900  0.36955000  1
  H  345  1  0.82232500  0.45549900  0.91570300  1
  H  346  1  0.80019700  0.37244800  0.87148100  1
  H  347  1  0.78769300  0.36381500  0.94546500  1
  H  354  1  0.87424100  0.43755900  0.88703500  1
  H  355  1  0.87267700  0.47064000  0.81610500  1
  H  356  1  0.78345400  0.43232100  0.84782900  1
  H  361  1  0.81402000  0.48055700  0.79903900  1
  H  362  1  0.78011800  0.32036700  0.88806800  1
  H  363  1  0.82264000  0.41147200  0.96789900  1
  H  364  1  0.92264500  0.46753700  0.86971700  1
  H  371  1  0.28229500  0.05996400  0.66543900  1
  H  372  1  0.36663300  0.03719300  0.62261900  1
  H  373  1  0.37348800  0.02736700  0.69691100  1
  H  380  1  0.30143800  0.11134000  0.63669800  1
  H  381  1  0.26979600  0.10890100  0.56547600  1
  H  382  1  0.30702200  0.01993500  0.59822000  1
  H  387  1  0.25991700  0.05026300  0.54869600  1
  H  388  1  0.41899100  0.02111700  0.64005900  1
  H  389  1  0.32301700  0.06560900  0.71693700  1
  H  390  1  0.27169600  0.15947300  0.61877100  1
  H  397  1  0.22325200  0.91522000  0.16546700  1
  H  398  1  0.13882000  0.93718000  0.12254000  1
  H  399  1  0.13162100  0.94680800  0.19682600  1
  H  406  1  0.20436700  0.86361400  0.13667900  1
  H  407  1  0.23594400  0.86620500  0.06544700  1
  H  408  1  0.19842800  0.95502600  0.09822600  1
  H  413  1  0.24561500  0.92490300  0.04868300  1
  H  414  1  0.08602100  0.95135400  0.13993200  1
  H  415  1  0.18202500  0.90951600  0.21707700  1
  H  416  1  0.23427400  0.81558400  0.11870400  1
  H  424  1  0.24348000  0.39384200  0.72547100  1
  H  429  1  0.24960100  0.54710700  0.81193200  1
  H  430  1  0.23480100  0.50564300  0.81933100  1
  H  431  1  0.19027600  0.56423900  0.80168000  1
  H  432  1  0.19271400  0.54902500  0.83131000  1
  H  433  1  0.17579100  0.52262200  0.80864800  1
  H  443  1  0.26151700  0.58118700  0.22542500  1
  H  448  1  0.25535000  0.42831800  0.31219600  1
  H  449  1  0.26990600  0.46994300  0.31937700  1
  H  450  1  0.31492000  0.41108000  0.30278600  1
  H  451  1  0.31178000  0.42687100  0.33223700  1
  H  452  1  0.32919400  0.45284700  0.30951600  1
  H  462  1  0.84887000  0.98424400  0.97600400  1
  H  467  1  0.68981200  0.97391000  0.05683900  1
  H  468  1  0.73179800  0.96237500  0.06551400  1
  H  469  1  0.67758800  0.91339700  0.04679800  1
  H  470  1  0.69091100  0.91746500  0.07677900  1
  H  471  1  0.71967600  0.90198100  0.05503500  1
  H  481  1  0.65666000  0.99113300  0.47585100  1
  H  486  1  0.81553800  0.00097600  0.55682500  1
  H  487  1  0.77372000  0.01307100  0.56552200  1
  H  488  1  0.82773400  0.06093900  0.54521000  1
  H  489  1  0.81491300  0.05838300  0.57537800  1
  H  490  1  0.78580900  0.07285400  0.55351300  1
  H  500  1  0.75634500  0.58383400  0.27890400  1
  H  505  1  0.76592600  0.42532500  0.19759100  1
  H  506  1  0.77790300  0.46725500  0.18909100  1
  H  507  1  0.82610400  0.41281200  0.20844400  1
  H  508  1  0.82291300  0.42614700  0.17841500  1
  H  509  1  0.83793600  0.45484800  0.20035600  1
  H  519  1  0.74867300  0.39106500  0.77906900  1
  H  524  1  0.73939100  0.54968800  0.69782200  1
  H  525  1  0.72704800  0.50791100  0.68919400  1
  H  526  1  0.67953900  0.56218900  0.70957700  1
  H  527  1  0.68189400  0.54932000  0.67940900  1
  H  528  1  0.66738600  0.52031000  0.70132400  1
  H  538  1  0.15679700  0.99211700  0.03031600  1
  H  543  1  0.31269300  0.99845400  0.94637300  1
  H  544  1  0.27074000  0.01134500  0.93860800  1
  H  545  1  0.32656200  0.05823000  0.95761900  1
  H  546  1  0.31237000  0.05580700  0.92774600  1
  H  547  1  0.28452200  0.07091500  0.95018900  1
  H  557  1  0.34847100  0.98274900  0.53026900  1
  H  562  1  0.19229100  0.97663600  0.44658100  1
  H  563  1  0.23417800  0.96361100  0.43875200  1
  H  564  1  0.17829600  0.91692400  0.45791500  1
  H  565  1  0.19237400  0.91924800  0.42801200  1
  H  566  1  0.22027100  0.90410500  0.45041600  1
  H  576  1  0.74330700  0.89328000  0.22470800  1
  H  581  1  0.74922200  0.04591300  0.31172600  1
  H  582  1  0.73471500  0.00430500  0.31901900  1
  H  583  1  0.68969300  0.06282400  0.30186100  1
  H  584  1  0.69256600  0.04740500  0.33142000  1
  H  585  1  0.67549800  0.02108400  0.30876300  1
  H  595  1  0.76185200  0.08150900  0.72455700  1
  H  600  1  0.75549500  0.92947300  0.81204000  1
  H  601  1  0.76987800  0.97121400  0.81906700  1
  H  602  1  0.81520200  0.91231600  0.80295600  1
  H  603  1  0.81173700  0.92835100  0.83232400  1
  H  604  1  0.82930000  0.95418000  0.80957800  1
  H  614  1  0.34769100  0.47951700  0.47592900  1
  H  619  1  0.19296600  0.48380900  0.56118800  1
  H  620  1  0.23481100  0.47055100  0.56896600  1
  H  621  1  0.17704000  0.42342600  0.55339300  1
  H  622  1  0.19243700  0.42859300  0.58280500  1
  H  623  1  0.21900600  0.41039800  0.56072500  1
  H  633  1  0.15788400  0.49596200  0.97563800  1
  H  638  1  0.31205900  0.49138500  0.06132400  1
  H  639  1  0.27038400  0.50521500  0.06905800  1
  H  640  1  0.32815600  0.55129500  0.05204400  1
  H  641  1  0.31312500  0.54759000  0.08165400  1
  H  642  1  0.28634800  0.56486700  0.05933800  1
  H  652  1  0.25618400  0.08440600  0.77986800  1
  H  657  1  0.26620100  0.92669600  0.69780700  1
  H  658  1  0.27782200  0.96878600  0.68944600  1
  H  659  1  0.32652300  0.91460700  0.70855100  1
  H  660  1  0.32311900  0.92808900  0.67856400  1
  H  661  1  0.33797700  0.95678900  0.70056400  1
  H  671  1  0.24895300  0.89021500  0.27991200  1
  H  676  1  0.23890100  0.04825600  0.19813400  1
  H  677  1  0.22704200  0.00630800  0.18958100  1
  H  678  1  0.17884600  0.06014400  0.20974700  1
  H  679  1  0.18150100  0.04721800  0.17960600  1
  H  680  1  0.16720100  0.01810700  0.20152000  1
  H  690  1  0.65841500  0.49639200  0.53020200  1
  H  695  1  0.81051600  0.49036000  0.44277000  1
  H  696  1  0.76878700  0.50476800  0.43574200  1
  H  697  1  0.82765000  0.55002100  0.45201200  1
  H  698  1  0.81166000  0.54670300  0.42262500  1
  H  699  1  0.78579400  0.56414700  0.44539500  1
  H  709  1  0.84695100  0.47850000  0.03011700  1
  H  714  1  0.69476300  0.48427200  0.94276000  1
  H  715  1  0.73647900  0.46982900  0.93573100  1
  H  716  1  0.67761900  0.42464400  0.95210100  1
  H  717  1  0.69356800  0.42787300  0.92269800  1
  H  718  1  0.71946000  0.41047700  0.94547400  1
  H  728  1  0.17716000  0.20846500  0.89900000  1
  H  733  1  0.31508600  0.31656000  0.96360800  1
  H  734  1  0.27460800  0.33314300  0.95553200  1
  H  735  1  0.33899600  0.33694900  0.92514000  1
  H  736  1  0.32057800  0.37096300  0.94140700  1
  H  737  1  0.29842400  0.35304100  0.91696500  1
  H  747  1  0.32818100  0.76655700  0.39929600  1
  H  752  1  0.19083600  0.65772800  0.46386500  1
  H  753  1  0.23158300  0.64179200  0.45583300  1
  H  754  1  0.16709000  0.63613700  0.42568700  1
  H  755  1  0.18631200  0.60279900  0.44218100  1
  H  756  1  0.20791500  0.62072200  0.41750100  1
  H  766  1  0.03304800  0.90962300  0.15116300  1
  H  771  1  0.92447800  0.04953400  0.21287400  1
  H  772  1  0.90901500  0.00833000  0.20551900  1
  H  773  1  0.90130200  0.07204300  0.17479100  1
  H  774  1  0.86883000  0.05263100  0.19200000  1
  H  775  1  0.88634000  0.03078500  0.16728200  1
  H  785  1  0.47221100  0.06375500  0.64979500  1
  H  790  1  0.58018500  0.92539100  0.71386000  1
  H  791  1  0.59665800  0.96585900  0.70564200  1
  H  792  1  0.60042400  0.90133300  0.67539400  1
  H  793  1  0.63447900  0.91985800  0.69155600  1
  H  794  1  0.61643700  0.94188700  0.66710300  1
  H  804  1  0.30982400  0.21300300  0.61816800  1
  H  809  1  0.19875800  0.28303500  0.57344400  1
  H  810  1  0.18446100  0.28310100  0.54342300  1
  H  811  1  0.20084700  0.34610600  0.57330400  1
  H  812  1  0.15951600  0.33113400  0.56614000  1
  H  813  1  0.18659500  0.34665100  0.54336300  1
  H  823  1  0.19573000  0.76219600  0.11818800  1
  H  828  1  0.30675500  0.69246700  0.07343700  1
  H  829  1  0.32085800  0.69200200  0.04337100  1
  H  830  1  0.30479400  0.62933900  0.07369300  1
  H  831  1  0.34605800  0.64436300  0.06639000  1
  H  832  1  0.31897100  0.62849000  0.04373900  1
  H  842  1  0.47639900  0.92973200  0.36875900  1
  H  847  1  0.54788800  0.04084200  0.32458700  1
  H  848  1  0.54735100  0.05564100  0.29468700  1
  H  849  1  0.61094400  0.03775200  0.32352700  1
  H  850  1  0.59638900  0.07944300  0.31697400  1
  H  851  1  0.61081400  0.05258900  0.29372500  1
  H  861  1  0.02893800  0.04477800  0.86864700  1
  H  866  1  0.95713700  0.93385700  0.82429400  1
  H  867  1  0.95756400  0.91917100  0.79436600  1
  H  868  1  0.89410400  0.93726200  0.82328600  1
  H  869  1  0.90842800  0.89552800  0.81662500  1
  H  870  1  0.89410400  0.92256900  0.79345000  1
  H  880  1  0.82764000  0.76898800  0.10487000  1
  H  885  1  0.69038200  0.65947500  0.04088000  1
  H  886  1  0.73089300  0.64330500  0.04928000  1
  H  887  1  0.66629300  0.63968400  0.07945900  1
  H  888  1  0.68500900  0.60548200  0.06355400  1
  H  889  1  0.70689500  0.62396400  0.08790900  1
  H  899  1  0.67771800  0.20618200  0.60489000  1
  H  904  1  0.81470700  0.31581500  0.54076100  1
  H  905  1  0.77395200  0.33148200  0.54903900  1
  H  906  1  0.83861200  0.33697500  0.57902200  1
  H  907  1  0.81920000  0.37045500  0.56278000  1
  H  908  1  0.79778100  0.35216400  0.58740500  1
  H  918  1  0.69462100  0.76365000  0.38628900  1
  H  923  1  0.80579100  0.69179600  0.43008500  1
  H  924  1  0.82092400  0.69257600  0.45990300  1
  H  925  1  0.80268400  0.62876700  0.43140600  1
  H  926  1  0.84445100  0.64333300  0.43770500  1
  H  927  1  0.81781200  0.62911100  0.46113500  1
  H  937  1  0.80998200  0.21104800  0.88595600  1
  H  942  1  0.69914000  0.28212200  0.93090300  1
  H  943  1  0.68499300  0.28213200  0.96096100  1
  H  944  1  0.70235400  0.34520600  0.93140900  1
  H  945  1  0.66078500  0.33082400  0.93850000  1
  H  946  1  0.68813900  0.34559800  0.96135700  1
  H  956  1  0.53366000  0.41226500  0.64952700  1
  H  961  1  0.42444000  0.54905500  0.71432800  1
  H  962  1  0.40861600  0.50834100  0.70611200  1
  H  963  1  0.40315100  0.57298600  0.67611100  1
  H  964  1  0.36969700  0.55366800  0.69243300  1
  H  965  1  0.38782500  0.53218800  0.66777400  1
  H  975  1  0.97147900  0.56257100  0.14933700  1
  H  980  1  0.08040400  0.42542400  0.21405700  1
  H  981  1  0.09673700  0.46592500  0.20579400  1
  H  982  1  0.10050700  0.40140700  0.17553900  1
  H  983  1  0.13460200  0.42003100  0.19160600  1
  H  984  1  0.11635900  0.44200400  0.16720100  1
  H  994  1  0.97675000  0.43096500  0.86890300  1
  H  999  1  0.04806000  0.54123300  0.82405600  1
  H  1000  1  0.04732100  0.55606600  0.79416700  1
  H  1001  1  0.11107400  0.53791700  0.82275900  1
  H  1002  1  0.09663600  0.57966400  0.81625900  1
  H  1003  1  0.11078300  0.55275200  0.79295600  1
  H  1013  1  0.52855200  0.54428500  0.36859500  1
  H  1018  1  0.45705600  0.43378000  0.32401200  1
  H  1019  1  0.45771900  0.41880000  0.29415600  1
  H  1020  1  0.39406500  0.43733000  0.32273500  1
  H  1021  1  0.40832100  0.39550200  0.31630700  1
  H  1022  1  0.39425900  0.42238100  0.29296200  1
  C  1  1  0.19706000  0.41532900  0.88508100  1
  C  2  1  0.20365800  0.43271500  0.90659300  1
  C  3  1  0.21452000  0.41497100  0.92712300  1
  C  4  1  0.21755600  0.37911100  0.92600800  1
  C  5  1  0.21013000  0.36085000  0.90498400  1
  C  6  1  0.20036100  0.37956600  0.88465800  1
  C  10  1  0.18188900  0.43163200  0.86513800  1
  C  11  1  0.14819600  0.44373100  0.86722900  1
  C  12  1  0.12853000  0.45234400  0.84705500  1
  C  13  1  0.14389500  0.44961800  0.82437700  1
  C  14  1  0.17777300  0.43815400  0.82168500  1
  C  15  1  0.19633500  0.42886200  0.84219600  1
  C  19  1  0.19069900  0.43229000  0.79916800  1
  C  20  1  0.20935700  0.32545300  0.90399900  1
  C  21  1  0.22234500  0.43156600  0.94819600  1
  C  22  1  0.09412500  0.45969800  0.85007600  1
  C  27  1  0.30844100  0.55965600  0.38500100  1
  C  28  1  0.30165600  0.54215400  0.40643800  1
  C  29  1  0.29087500  0.55983400  0.42701600  1
  C  30  1  0.28807700  0.59571700  0.42602800  1
  C  31  1  0.29566000  0.61406200  0.40506800  1
  C  32  1  0.30532600  0.59543500  0.38468000  1
  C  36  1  0.32345700  0.54333900  0.36500800  1
  C  37  1  0.35716300  0.53125500  0.36705800  1
  C  38  1  0.37678900  0.52267500  0.34685600  1
  C  39  1  0.36138400  0.52549800  0.32419600  1
  C  40  1  0.32749700  0.53696100  0.32155500  1
  C  41  1  0.30897200  0.54620700  0.34208900  1
  C  45  1  0.31453400  0.54287800  0.29905800  1
  C  46  1  0.29665200  0.64945100  0.40421200  1
  C  47  1  0.28288700  0.54313300  0.44801200  1
  C  48  1  0.41119900  0.51532400  0.34984200  1
  C  53  1  0.82668400  0.93200300  0.13528000  1
  C  54  1  0.80884300  0.93885600  0.15656800  1
  C  55  1  0.82630500  0.94895600  0.17741400  1
  C  56  1  0.86226600  0.95096500  0.17684500  1
  C  57  1  0.88086000  0.94324300  0.15603200  1
  C  58  1  0.86252800  0.93423600  0.13538700  1
  C  62  1  0.81054400  0.91796900  0.11488400  1
  C  63  1  0.79822900  0.88425500  0.11609700  1
  C  64  1  0.79019100  0.86544300  0.09538900  1
  C  65  1  0.79390800  0.88168100  0.07308000  1
  C  66  1  0.80560600  0.91557800  0.07133300  1
  C  67  1  0.81427900  0.93329200  0.09230400  1
  C  71  1  0.81277700  0.92935800  0.04933000  1
  C  72  1  0.91616800  0.94124900  0.15558400  1
  C  73  1  0.80934400  0.95694900  0.19830300  1
  C  74  1  0.78312100  0.83083400  0.09759600  1
  C  79  1  0.67869700  0.04248400  0.63510400  1
  C  80  1  0.69639300  0.03597500  0.65650200  1
  C  81  1  0.67887000  0.02562400  0.67726100  1
  C  82  1  0.64294900  0.02307900  0.67649600  1
  C  83  1  0.62443200  0.03048600  0.65558600  1
  C  84  1  0.64288800  0.03971700  0.63503500  1
  C  88  1  0.69478600  0.05688900  0.61480400  1
  C  89  1  0.70690000  0.09065100  0.61618500  1
  C  90  1  0.71496400  0.10965800  0.59557500  1
  C  91  1  0.71148300  0.09355800  0.57319700  1
  C  92  1  0.69998900  0.05960700  0.57127100  1
  C  93  1  0.69132000  0.04168000  0.59216200  1
  C  97  1  0.69309000  0.04599600  0.54916500  1
  C  98  1  0.58905500  0.03175400  0.65487800  1
  C  99  1  0.69573200  0.01784600  0.69823900  1
  C  100  1  0.72198500  0.14426600  0.59790900  1
  C  105  1  0.30992900  0.41763800  0.61568600  1
  C  106  1  0.31317800  0.43237200  0.59287000  1
  C  107  1  0.30371100  0.41427100  0.57221200  1
  C  108  1  0.29169300  0.38055000  0.57456400  1
  C  109  1  0.28849900  0.36489300  0.59711400  1
  C  110  1  0.29727200  0.38410500  0.61747500  1
  C  114  1  0.32638900  0.43213500  0.63581400  1
  C  115  1  0.36220800  0.43481800  0.63555600  1
  C  116  1  0.38089300  0.44400800  0.65602100  1
  C  117  1  0.36261200  0.45152000  0.67701600  1
  C  118  1  0.32669100  0.44910900  0.67796600  1
  C  119  1  0.30893700  0.43881800  0.65729000  1
  C  123  1  0.31004300  0.45694900  0.69902700  1
  C  124  1  0.28078400  0.33052300  0.59983600  1
  C  125  1  0.31026400  0.42736000  0.54986900  1
  C  126  1  0.41625700  0.44258400  0.65520500  1
  C  131  1  0.19515500  0.55741100  0.11565800  1
  C  132  1  0.19202500  0.54265700  0.09283300  1
  C  133  1  0.20144100  0.56082400  0.07218900  1
  C  134  1  0.21341200  0.59456300  0.07457800  1
  C  135  1  0.21652700  0.61019900  0.09714000  1
  C  136  1  0.20778400  0.59094200  0.11748300  1
  C  140  1  0.17876100  0.54274100  0.13574900  1
  C  141  1  0.14294300  0.54002800  0.13548700  1
  C  142  1  0.12425700  0.53077200  0.15593900  1
  C  143  1  0.14255200  0.52327500  0.17693500  1
  C  144  1  0.17847000  0.52574700  0.17789500  1
  C  145  1  0.19621100  0.53609600  0.15722900  1
  C  149  1  0.19513200  0.51792500  0.19895400  1
  C  150  1  0.22424400  0.64456600  0.09987700  1
  C  151  1  0.19502700  0.54775600  0.04981400  1
  C  152  1  0.08888500  0.53216300  0.15511100  1
  C  157  1  0.68267700  0.92929700  0.36442300  1
  C  158  1  0.69677200  0.92749400  0.34132000  1
  C  159  1  0.67755800  0.93657500  0.32106400  1
  C  160  1  0.64348600  0.94718100  0.32419100  1
  C  161  1  0.62852100  0.94923100  0.34703600  1
  C  162  1  0.64875700  0.94057500  0.36693400  1
  C  166  1  0.69932500  0.91401700  0.38423000  1
  C  167  1  0.70762500  0.87908800  0.38314200  1
  C  168  1  0.72070100  0.86144000  0.40299500  1
  C  169  1  0.72617300  0.87978400  0.42424700  1
  C  170  1  0.71806900  0.91479300  0.42605600  1
  C  171  1  0.70417400  0.93145600  0.40596800  1
  C  175  1  0.72486100  0.93183000  0.44714500  1
  C  176  1  0.59404900  0.95598200  0.35044500  1
  C  177  1  0.69022400  0.93151700  0.29836800  1
  C  178  1  0.72649300  0.82669900  0.40108300  1
  C  183  1  0.82258500  0.04554500  0.86424700  1
  C  184  1  0.80853000  0.04739700  0.84113600  1
  C  185  1  0.82775400  0.03832300  0.82088600  1
  C  186  1  0.86183400  0.02773700  0.82401700  1
  C  187  1  0.87678100  0.02568300  0.84686900  1
  C  188  1  0.85652000  0.03430300  0.86676400  1
  C  192  1  0.80597200  0.06079400  0.88408100  1
  C  193  1  0.79756000  0.09569500  0.88302000  1
  C  194  1  0.78439000  0.11325300  0.90288100  1
  C  195  1  0.77893100  0.09484700  0.92411100  1
  C  196  1  0.78713900  0.05985900  0.92588400  1
  C  197  1  0.80110500  0.04327800  0.90578700  1
  C  201  1  0.78029600  0.04272000  0.94692400  1
  C  202  1  0.91123800  0.01887100  0.85029400  1
  C  203  1  0.81510100  0.04334600  0.79818200  1
  C  204  1  0.77838100  0.14795700  0.90098400  1
  C  209  1  0.80789400  0.56203900  0.11947000  1
  C  210  1  0.80137200  0.54425700  0.09810600  1
  C  211  1  0.79110600  0.56169800  0.07728900  1
  C  212  1  0.78861900  0.59763200  0.07797700  1
  C  213  1  0.79604900  0.61623100  0.09884800  1
  C  214  1  0.80520900  0.59785800  0.11945300  1
  C  218  1  0.82220100  0.54599300  0.13982000  1
  C  219  1  0.85591400  0.53370600  0.13851600  1
  C  220  1  0.87484400  0.52566500  0.15916800  1
  C  221  1  0.85867600  0.52917500  0.18151900  1
  C  222  1  0.82475600  0.54078600  0.18337700  1
  C  223  1  0.80695800  0.54954100  0.16245100  1
  C  227  1  0.81106500  0.54777300  0.20545000  1
  C  228  1  0.79750900  0.65159700  0.09943600  1
  C  229  1  0.78331200  0.54473700  0.05634300  1
  C  230  1  0.90943500  0.51852200  0.15687800  1
  C  235  1  0.69749900  0.41303500  0.61963000  1
  C  236  1  0.70406000  0.43082000  0.59826900  1
  C  237  1  0.71436600  0.41337400  0.57746600  1
  C  238  1  0.71688900  0.37744500  0.57816700  1
  C  239  1  0.70946400  0.35885600  0.59904300  1
  C  240  1  0.70028900  0.37722900  0.61964300  1
  C  244  1  0.68316800  0.42911700  0.63996000  1
  C  245  1  0.64939500  0.44123100  0.63856800  1
  C  246  1  0.63033100  0.44922600  0.65917000  1
  C  247  1  0.64640700  0.44575000  0.68155600  1
  C  248  1  0.68037000  0.43428100  0.68350500  1
  C  249  1  0.69831600  0.42562300  0.66262000  1
  C  253  1  0.69394700  0.42741800  0.70563700  1
  C  254  1  0.70807500  0.32349200  0.59964300  1
  C  255  1  0.72216000  0.43032000  0.55651600  1
  C  256  1  0.59571500  0.45619900  0.65680000  1
  C  261  1  0.17862500  0.04022400  0.87134300  1
  C  262  1  0.19643800  0.03579100  0.84970500  1
  C  263  1  0.18019000  0.02196100  0.82942300  1
  C  264  1  0.14522400  0.01354000  0.83092900  1
  C  265  1  0.12653500  0.01860100  0.85208000  1
  C  266  1  0.14376400  0.03158800  0.87212900  1
  C  270  1  0.19340300  0.05671800  0.89139900  1
  C  271  1  0.20385800  0.09095500  0.88926200  1
  C  272  1  0.21142200  0.11118200  0.90939900  1
  C  273  1  0.20902600  0.09587500  0.93211700  1
  C  274  1  0.19927200  0.06148900  0.93486800  1
  C  275  1  0.19129400  0.04229700  0.91438600  1
  C  279  1  0.19384000  0.04838200  0.95738300  1
  C  280  1  0.09184100  0.01245900  0.85373100  1
  C  281  1  0.19758700  0.01541400  0.80843900  1
  C  282  1  0.21700300  0.14594800  0.90629600  1
  C  287  1  0.32651300  0.93443400  0.37139400  1
  C  288  1  0.30879400  0.93880800  0.34971400  1
  C  289  1  0.32514300  0.95252900  0.32943400  1
  C  290  1  0.36012000  0.96088300  0.33098700  1
  C  291  1  0.37872900  0.95584000  0.35217400  1
  C  292  1  0.36140200  0.94296000  0.37221400  1
  C  296  1  0.31167500  0.91797600  0.39144900  1
  C  297  1  0.30106400  0.88379200  0.38933900  1
  C  298  1  0.29336200  0.86366300  0.40949600  1
  C  299  1  0.29574200  0.87902900  0.43219700  1
  C  300  1  0.30563600  0.91338100  0.43491600  1
  C  301  1  0.31377300  0.93247100  0.41441400  1
  C  305  1  0.31112600  0.92650500  0.45741700  1
  C  306  1  0.41343500  0.96190700  0.35387100  1
  C  307  1  0.30785100  0.95903100  0.30840100  1
  C  308  1  0.28753800  0.82892900  0.40643800  1
  C  313  1  0.69440500  0.55732200  0.39046400  1
  C  314  1  0.69251000  0.54321900  0.41356100  1
  C  315  1  0.70156300  0.56239000  0.43384400  1
  C  316  1  0.71213900  0.59648300  0.43075600  1
  C  317  1  0.71421400  0.61149300  0.40792400  1
  C  318  1  0.70565200  0.59126500  0.38799900  1
  C  322  1  0.67917000  0.54077800  0.37059200  1
  C  323  1  0.64426900  0.53234600  0.37163200  1
  C  324  1  0.62667700  0.51934400  0.35172800  1
  C  325  1  0.64508000  0.51401600  0.33047900  1
  C  326  1  0.68006800  0.52223000  0.32871300  1
  C  327  1  0.69665800  0.53606300  0.34885500  1
  C  331  1  0.69718400  0.51550400  0.30763800  1
  C  332  1  0.72095200  0.64597800  0.40453700  1
  C  333  1  0.69647200  0.54968600  0.45653500  1
  C  334  1  0.59196400  0.51331200  0.35362200  1
  C  339  1  0.81091300  0.41732300  0.89047600  1
  C  340  1  0.81273800  0.43145400  0.91357100  1
  C  341  1  0.80368100  0.41227800  0.93385100  1
  C  342  1  0.79306700  0.37819800  0.93075800  1
  C  343  1  0.79100700  0.36319200  0.90792400  1
  C  344  1  0.79959400  0.38341100  0.88800000  1
  C  348  1  0.82612900  0.43394800  0.87062600  1
  C  349  1  0.86100800  0.44246900  0.87171600  1
  C  350  1  0.87861000  0.45555300  0.85184400  1
  C  351  1  0.86025200  0.46083400  0.83057200  1
  C  352  1  0.82529300  0.45251400  0.82875100  1
  C  353  1  0.80869000  0.43861200  0.84886600  1
  C  357  1  0.80823200  0.45920400  0.80764500  1
  C  358  1  0.78411300  0.32874300  0.90453400  1
  C  359  1  0.80874100  0.42498700  0.95654500  1
  C  360  1  0.91329500  0.46169900  0.85378200  1
  C  365  1  0.32119100  0.04802200  0.64086200  1
  C  366  1  0.30643200  0.05042200  0.66373500  1
  C  367  1  0.32518100  0.04219100  0.68435900  1
  C  368  1  0.35942900  0.03185000  0.68191300  1
  C  369  1  0.37503900  0.02910200  0.65931700  1
  C  370  1  0.35525800  0.03692000  0.63900500  1
  C  374  1  0.30514800  0.06296400  0.62067900  1
  C  375  1  0.29681700  0.09790600  0.62141600  1
  C  376  1  0.28420200  0.11526600  0.60130400  1
  C  377  1  0.27927400  0.09663200  0.58011400  1
  C  378  1  0.28742900  0.06159300  0.57863000  1
  C  379  1  0.30086300  0.04522200  0.59899900  1
  C  383  1  0.28097000  0.04426300  0.55758900  1
  C  384  1  0.40977000  0.02304200  0.65650400  1
  C  385  1  0.31188900  0.04824700  0.70670900  1
  C  386  1  0.27813700  0.14998100  0.60298900  1
  C  391  1  0.18433500  0.92685100  0.14084400  1
  C  392  1  0.19902500  0.92452400  0.16374000  1
  C  393  1  0.18013100  0.93253400  0.18434100  1
  C  394  1  0.14578000  0.94251300  0.18184700  1
  C  395  1  0.13020600  0.94510900  0.15922800  1
  C  396  1  0.15014200  0.93755200  0.13894400  1
  C  400  1  0.20044800  0.91197800  0.12066500  1
  C  401  1  0.20891500  0.87707100  0.12139700  1
  C  402  1  0.22157900  0.85977200  0.10127600  1
  C  403  1  0.22643700  0.87843700  0.08009000  1
  C  404  1  0.21815900  0.91344700  0.07862000  1
  C  405  1  0.20468700  0.92976300  0.09899700  1
  C  409  1  0.22454000  0.93080500  0.05758000  1
  C  410  1  0.09539400  0.95070600  0.15638400  1
  C  411  1  0.19336500  0.92660200  0.20673200  1
  C  412  1  0.22775000  0.82507700  0.10293800  1
  C  417  1  0.23411400  0.44574700  0.77123000  1
  C  419  1  0.24713100  0.41516900  0.73551900  1
  C  420  1  0.26955500  0.44101200  0.72819200  1
  C  422  1  0.25639800  0.47221400  0.76400600  1
  C  423  1  0.26136200  0.50153300  0.77732100  1
  C  427  1  0.23071500  0.52758800  0.80770400  1
  C  428  1  0.19496000  0.54185100  0.81265600  1
  C  436  1  0.27126900  0.52912600  0.27106100  1
  C  438  1  0.25800500  0.55979400  0.23543000  1
  C  439  1  0.23568700  0.53387400  0.22807800  1
  C  441  1  0.24912500  0.50256600  0.26379500  1
  C  442  1  0.24428700  0.47318000  0.27700300  1
  C  446  1  0.27430200  0.44778900  0.30800400  1
  C  447  1  0.30995600  0.43367400  0.31349200  1
  C  455  1  0.79468900  0.96855500  0.01959800  1
  C  457  1  0.82646000  0.98528700  0.98516200  1
  C  458  1  0.79871900  0.00434800  0.97667800  1
  C  460  1  0.76634600  0.98738700  0.01118200  1
  C  461  1  0.73557900  0.98874800  0.02324200  1
  C  465  1  0.71090300  0.95645000  0.05334700  1
  C  466  1  0.69896400  0.91985000  0.05830700  1
  C  474  1  0.71034600  0.00577200  0.51991300  1
  C  476  1  0.67890300  0.98971400  0.48518100  1
  C  477  1  0.70647600  0.97024600  0.47688400  1
  C  479  1  0.73851900  0.98652000  0.51169000  1
  C  480  1  0.76906900  0.98464100  0.52399700  1
  C  484  1  0.79444500  0.01831400  0.55306400  1
  C  485  1  0.80654400  0.05510900  0.55704200  1
  C  493  1  0.77133700  0.53005500  0.23494500  1
  C  495  1  0.75503800  0.56155600  0.26960900  1
  C  496  1  0.73566300  0.53393000  0.27793700  1
  C  498  1  0.75220200  0.50182600  0.24321500  1
  C  499  1  0.75039200  0.47125000  0.23099800  1
  C  503  1  0.78339100  0.44632500  0.20132500  1
  C  504  1  0.82006500  0.43421300  0.19685100  1
  C  512  1  0.73428200  0.44458500  0.73486600  1
  C  514  1  0.75021100  0.41324600  0.76967800  1
  C  515  1  0.76979100  0.44077800  0.77792100  1
  C  517  1  0.75365200  0.47271200  0.74303000  1
  C  518  1  0.75565000  0.50319900  0.73065700  1
  C  522  1  0.72196700  0.52868600  0.70164300  1
  C  523  1  0.68521200  0.54095800  0.69774400  1
  C  531  1  0.20930000  0.00583000  0.98542500  1
  C  533  1  0.17867100  0.99023800  0.02061000  1
  C  534  1  0.20598600  0.96992800  0.02833600  1
  C  536  1  0.23720500  0.98571400  0.99305300  1
  C  537  1  0.26726600  0.98323500  0.98029400  1
  C  541  1  0.29213300  0.01622100  0.95057600  1
  C  542  1  0.30475400  0.05276300  0.94626000  1
  C  550  1  0.29580800  0.96909900  0.48546000  1
  C  552  1  0.32657700  0.98467400  0.52059100  1
  C  553  1  0.29932700  0.00504500  0.52834900  1
  C  555  1  0.26796600  0.98927900  0.49312100  1
  C  556  1  0.23787300  0.99180400  0.48040300  1
  C  560  1  0.21281400  0.95882000  0.45076400  1
  C  561  1  0.20007500  0.92230700  0.44650800  1
  C  569  1  0.73379400  0.94490800  0.27060000  1
  C  571  1  0.74684400  0.91459200  0.23479300  1
  C  572  1  0.76911500  0.94058500  0.22750900  1
  C  574  1  0.75593500  0.97152000  0.26342900  1
  C  575  1  0.76084800  0.00075500  0.27684700  1
  C  579  1  0.73038700  0.02633700  0.30751400  1
  C  580  1  0.69462100  0.04037900  0.31272700  1
  C  588  1  0.77156400  0.02983000  0.77040300  1
  C  590  1  0.75837100  0.06017900  0.73463100  1
  C  591  1  0.73611600  0.03416300  0.72735800  1
  C  593  1  0.74947100  0.00318000  0.76322700  1
  C  594  1  0.74461200  0.97392000  0.77657200  1
  C  598  1  0.77443500  0.94895100  0.80782800  1
  C  599  1  0.81007600  0.93498800  0.81354200  1
  C  607  1  0.29466100  0.46869700  0.52091200  1
  C  609  1  0.32591100  0.48246700  0.48560900  1
  C  610  1  0.29944200  0.50371500  0.47770000  1
  C  612  1  0.26756400  0.48978500  0.51309200  1
  C  613  1  0.23766100  0.49386900  0.52590500  1
  C  617  1  0.21287100  0.46504000  0.55762400  1
  C  618  1  0.19941200  0.42946000  0.56405600  1
  C  626  1  0.21021500  0.50593300  0.02110800  1
  C  628  1  0.17944600  0.49269700  0.98550600  1
  C  629  1  0.20575000  0.47108000  0.97781800  1
  C  631  1  0.23714700  0.48447100  0.01351300  1
  C  632  1  0.26674000  0.47990300  0.02661300  1
  C  636  1  0.29219900  0.51007500  0.05745600  1
  C  637  1  0.30589800  0.54587600  0.06298200  1
  C  645  1  0.27114200  0.03114300  0.73560400  1
  C  647  1  0.25493600  0.06220900  0.77047500  1
  C  648  1  0.23570600  0.03442700  0.77870900  1
  C  650  1  0.25213300  0.00276800  0.74376000  1
  C  651  1  0.25042500  0.97230800  0.73139700  1
  C  655  1  0.28350800  0.94780400  0.70159500  1
  C  656  1  0.32026500  0.93602600  0.69702800  1
  C  664  1  0.23445600  0.94332400  0.23548700  1
  C  666  1  0.25038200  0.91234400  0.27045400  1
  C  667  1  0.26975600  0.94005400  0.27864500  1
  C  669  1  0.25363400  0.97161900  0.24358400  1
  C  670  1  0.25547000  0.00202900  0.23111000  1
  C  674  1  0.22168500  0.02709000  0.20196900  1
  C  675  1  0.18481600  0.03894300  0.19795800  1
  C  683  1  0.71007100  0.50618700  0.48434900  1
  C  685  1  0.67974700  0.49293800  0.52012600  1
  C  686  1  0.70578400  0.47069800  0.52739600  1
  C  688  1  0.73673600  0.48410900  0.49152000  1
  C  689  1  0.76600200  0.47929800  0.47817600  1
  C  693  1  0.79103000  0.50927100  0.44701200  1
  C  694  1  0.80499500  0.54494600  0.44139600  1
  C  702  1  0.79524300  0.46859000  0.98430300  1
  C  704  1  0.82561300  0.48194000  0.02004100  1
  C  705  1  0.79959200  0.50420600  0.02729400  1
  C  707  1  0.76858600  0.49068300  0.99145900  1
  C  708  1  0.73930200  0.49544600  0.97812600  1
  C  712  1  0.71424700  0.46536600  0.94701900  1
  C  713  1  0.70026300  0.42967900  0.94146400  1
  C  721  1  0.22291800  0.27190200  0.92049400  1
  C  723  1  0.19617400  0.21995300  0.90841000  1
  C  724  1  0.21955300  0.20098300  0.92193500  1
  C  726  1  0.24636900  0.25308200  0.93449000  1
  C  727  1  0.27199900  0.26840600  0.94766900  1
  C  731  1  0.29801000  0.32169200  0.94869500  1
  C  732  1  0.31516900  0.34737500  0.93190600  1
  C  740  1  0.28227700  0.70297400  0.42045400  1
  C  742  1  0.30909400  0.75500700  0.40859800  1
  C  743  1  0.28556000  0.77389300  0.42204100  1
  C  745  1  0.25863800  0.72173300  0.43434100  1
  C  746  1  0.23288500  0.70644300  0.44736700  1
  C  750  1  0.20792600  0.65264500  0.44895400  1
  C  751  1  0.19117200  0.62631900  0.43245500  1
  C  759  1  0.96976500  0.95713700  0.17098900  1
  C  761  1  0.02162900  0.92932800  0.15989700  1
  C  762  1  0.04068800  0.95375700  0.17240700  1
  C  764  1  0.98868900  0.98166100  0.18399700  1
  C  765  1  0.97349800  0.00833200  0.19621000  1
  C  769  1  0.91924300  0.03201900  0.19822800  1
  C  770  1  0.89211800  0.04795300  0.18196500  1
  C  778  1  0.53551400  0.01763500  0.67112500  1
  C  780  1  0.48364200  0.04462600  0.65912500  1
  C  781  1  0.46459300  0.02106100  0.67242800  1
  C  783  1  0.51660000  0.99401900  0.68492900  1
  C  784  1  0.53184000  0.96820400  0.69797800  1
  C  788  1  0.58521500  0.94240100  0.69889400  1
  C  789  1  0.61084800  0.92520100  0.68208900  1
  C  797  1  0.28190600  0.27518700  0.58402900  1
  C  799  1  0.29760600  0.22401400  0.60413000  1
  C  800  1  0.28258000  0.20429300  0.58603000  1
  C  802  1  0.26726900  0.25563300  0.56549000  1
  C  803  1  0.25042300  0.26900100  0.54608000  1
  C  807  1  0.20018100  0.29649700  0.55645100  1
  C  808  1  0.18583000  0.33254500  0.56004000  1
  C  816  1  0.22333800  0.69989000  0.08403300  1
  C  818  1  0.20785900  0.75112400  0.10413600  1
  C  819  1  0.22295300  0.77077600  0.08602900  1
  C  821  1  0.23807200  0.71937300  0.06549200  1
  C  822  1  0.25489500  0.70593900  0.04605200  1
  C  826  1  0.30526000  0.67875600  0.05654500  1
  C  827  1  0.31973400  0.64279400  0.06033300  1
  C  835  1  0.53857100  0.95785700  0.33466600  1
  C  837  1  0.48740500  0.94212900  0.35479600  1
  C  838  1  0.46768200  0.95749500  0.33684400  1
  C  840  1  0.51898500  0.97286700  0.31628400  1
  C  841  1  0.53228500  0.98991000  0.29692100  1
  C  845  1  0.56085400  0.03949900  0.30740600  1
  C  846  1  0.59722000  0.05323300  0.31060900  1
  C  854  1  0.96672100  0.01680900  0.83453200  1
  C  856  1  0.01791600  0.03243800  0.85466800  1
  C  857  1  0.03761600  0.01705500  0.83670900  1
  C  859  1  0.98628900  0.00178300  0.81614200  1
  C  860  1  0.97295900  0.98483700  0.79674800  1
  C  864  1  0.94415800  0.93533200  0.80712200  1
  C  865  1  0.90772600  0.92177300  0.81032000  1
  C  873  1  0.78226900  0.70511800  0.08351600  1
  C  875  1  0.80874900  0.75730300  0.09545200  1
  C  876  1  0.78524500  0.77603700  0.08190700  1
  C  878  1  0.75860500  0.72377000  0.06957000  1
  C  879  1  0.73297300  0.70822500  0.05651900  1
  C  883  1  0.70736100  0.65474000  0.05590900  1
  C  884  1  0.69022200  0.62926800  0.07286500  1
  C  892  1  0.72342400  0.26998200  0.58377700  1
  C  894  1  0.69673900  0.21783500  0.59558000  1
  C  895  1  0.72038000  0.19906900  0.58217400  1
  C  897  1  0.74723300  0.25129100  0.56997900  1
  C  898  1  0.77302600  0.26669200  0.55705600  1
  C  902  1  0.79770000  0.32062900  0.55576200  1
  C  903  1  0.81446500  0.34680300  0.57237700  1
  C  911  1  0.72281900  0.70144800  0.42032300  1
  C  913  1  0.70704500  0.75264000  0.40023700  1
  C  914  1  0.72258800  0.77235000  0.41812200  1
  C  916  1  0.73801000  0.72101600  0.43864400  1
  C  917  1  0.75517500  0.70762300  0.45793900  1
  C  921  1  0.80462900  0.67897700  0.44732800  1
  C  922  1  0.81830200  0.64257500  0.44419900  1
  C  930  1  0.78240900  0.27322900  0.92025600  1
  C  932  1  0.79773300  0.22205300  0.89998100  1
  C  933  1  0.78246800  0.20232900  0.91797500  1
  C  935  1  0.76747200  0.25365600  0.93867600  1
  C  936  1  0.75065900  0.26696100  0.95817800  1
  C  940  1  0.70087400  0.29538800  0.94795700  1
  C  941  1  0.68712400  0.33171900  0.94459300  1
  C  949  1  0.46993500  0.45780600  0.67092100  1
  C  951  1  0.52203900  0.43119900  0.65894100  1
  C  952  1  0.54085700  0.45464700  0.67247800  1
  C  954  1  0.48867600  0.48143900  0.68483500  1
  C  955  1  0.47333000  0.50712300  0.69789400  1
  C  959  1  0.41950200  0.53204800  0.69934600  1
  C  960  1  0.39329500  0.54886700  0.68278600  1
  C  968  1  0.03520700  0.51729700  0.17099300  1
  C  970  1  0.98310500  0.54375800  0.15886600  1
  C  971  1  0.96429300  0.52046300  0.17253400  1
  C  973  1  0.01647500  0.49381800  0.18503900  1
  C  974  1  0.03193000  0.46827200  0.19822400  1
  C  978  1  0.08531500  0.44243900  0.19907500  1
  C  979  1  0.11090200  0.42530200  0.18220400  1
  C  987  1  0.03861700  0.45891700  0.83448900  1
  C  989  1  0.98762400  0.44321700  0.85482900  1
  C  990  1  0.96773100  0.45814600  0.83678400  1
  C  992  1  0.01889300  0.47346700  0.81600300  1
  C  993  1  0.03204800  0.49032700  0.79651100  1
  C  997  1  0.06087400  0.53986000  0.80682000  1
  C  998  1  0.09731500  0.55345200  0.80988900  1
  C  1006  1  0.46668800  0.51616300  0.33424600  1
  C  1008  1  0.51768100  0.53197400  0.35454500  1
  C  1009  1  0.53757400  0.51689800  0.33655800  1
  C  1011  1  0.48641300  0.50145200  0.31582000  1
  C  1012  1  0.47324900  0.48450600  0.29636900  1
  C  1016  1  0.44423700  0.43512300  0.30677600  1
  C  1017  1  0.40774400  0.42169100  0.30988700  1
  N  418  1  0.23062600  0.41839600  0.75657300  1
  N  421  1  0.27295200  0.46829300  0.74288600  1
  N  434  1  0.21800000  0.44706400  0.79203900  1
  N  435  1  0.28670700  0.43781300  0.70790000  1
  N  437  1  0.27457200  0.55656200  0.25645900  1
  N  440  1  0.23248000  0.50650500  0.24271400  1
  N  453  1  0.28742400  0.52782900  0.29185600  1
  N  454  1  0.21848100  0.53706500  0.20780700  1
  N  456  1  0.82347200  0.96847600  0.00611200  1
  N  459  1  0.77001500  0.00430500  0.99019200  1
  N  472  1  0.79340500  0.95226000  0.04032300  1
  N  473  1  0.80134900  0.02162700  0.95640200  1
  N  475  1  0.68179700  0.00638400  0.50619500  1
  N  478  1  0.73494900  0.96976000  0.49063200  1
  N  491  1  0.71156700  0.02197300  0.54067400  1
  N  492  1  0.70389700  0.95306300  0.45656300  1
  N  494  1  0.77177700  0.55865200  0.24862100  1
  N  497  1  0.73534800  0.50541100  0.26423300  1
  N  510  1  0.78758400  0.52884200  0.21419500  1
  N  511  1  0.71841500  0.53649800  0.29823800  1
  N  513  1  0.73354500  0.41611200  0.74865700  1
  N  516  1  0.77039200  0.46917800  0.76410000  1
  N  529  1  0.71808400  0.44578300  0.71409400  1
  N  530  1  0.78696600  0.43823600  0.79825600  1
  N  532  1  0.18125800  0.00704300  0.99962200  1
  N  535  1  0.23393300  0.96883200  0.01408300  1
  N  548  1  0.21001400  0.02195900  0.96462500  1
  N  549  1  0.20364800  0.95249600  0.04858500  1
  N  551  1  0.32389200  0.96785000  0.49961700  1
  N  554  1  0.27133500  0.00617800  0.51413900  1
  N  567  1  0.29500700  0.95295900  0.46466500  1
  N  568  1  0.30175600  0.02247400  0.54859300  1
  N  570  1  0.73040400  0.91761000  0.25588200  1
  N  573  1  0.77245100  0.96779200  0.24227900  1
  N  586  1  0.71788600  0.94586400  0.29148700  1
  N  587  1  0.78634600  0.93748800  0.20724800  1
  N  589  1  0.77486400  0.05715600  0.75570100  1
  N  592  1  0.73288400  0.00692100  0.74210900  1
  N  605  1  0.78751500  0.02888400  0.79127400  1
  N  606  1  0.71886200  0.03723400  0.70710300  1
  N  608  1  0.32261500  0.46612900  0.50671600  1
  N  611  1  0.27156100  0.50620200  0.49192600  1
  N  624  1  0.29327800  0.45275800  0.54179000  1
  N  625  1  0.30263500  0.52069700  0.45734400  1
  N  627  1  0.18257200  0.50894300  0.00666100  1
  N  630  1  0.23332000  0.46814800  0.99229700  1
  N  643  1  0.21149100  0.52184900  0.04199500  1
  N  644  1  0.20267800  0.45416400  0.95742400  1
  N  646  1  0.27155400  0.05960200  0.74942000  1
  N  649  1  0.23539900  0.00606100  0.76484700  1
  N  662  1  0.28709800  0.03035200  0.71473600  1
  N  663  1  0.21843700  0.03676500  0.79901900  1
  N  665  1  0.23382000  0.91494800  0.24937700  1
  N  668  1  0.27027500  0.96834600  0.26471000  1
  N  681  1  0.21848900  0.94415300  0.21462300  1
  N  682  1  0.28695100  0.93772200  0.29898700  1
  N  684  1  0.68274800  0.50944900  0.49905800  1
  N  687  1  0.73302100  0.46750700  0.51263600  1
  N  700  1  0.71100000  0.52214400  0.46347100  1
  N  701  1  0.70274000  0.45342700  0.54765300  1
  N  703  1  0.82258700  0.46536800  0.99899900  1
  N  706  1  0.77232900  0.50735200  0.01255100  1
  N  719  1  0.79431000  0.45260000  0.96343900  1
  N  720  1  0.80265800  0.52152600  0.04753100  1
  N  722  1  0.19876700  0.25422800  0.90831600  1
  N  725  1  0.24319800  0.21846100  0.93457400  1
  N  738  1  0.22306800  0.30583200  0.91960300  1
  N  739  1  0.21776600  0.16739400  0.92356800  1
  N  741  1  0.30652900  0.72073100  0.40842900  1
  N  744  1  0.26179100  0.75635200  0.43451900  1
  N  757  1  0.28214700  0.66904200  0.41948200  1
  N  758  1  0.28736000  0.80747200  0.42370800  1
  N  760  1  0.98737500  0.93203100  0.15973800  1
  N  763  1  0.02331100  0.97842900  0.18412300  1
  N  776  1  0.93583800  0.95753100  0.16989500  1
  N  777  1  0.07429400  0.95207100  0.17384400  1
  N  779  1  0.51790500  0.04196500  0.65907400  1
  N  782  1  0.48197600  0.99722600  0.68495900  1
  N  795  1  0.56944900  0.01730200  0.67015800  1
  N  796  1  0.43100900  0.02297200  0.67390800  1
  N  798  1  0.29693700  0.25833100  0.60231600  1
  N  801  1  0.26841100  0.22109900  0.56742500  1
  N  814  1  0.28491700  0.30878700  0.58301200  1
  N  815  1  0.28396800  0.17056400  0.58569600  1
  N  817  1  0.20840800  0.71680800  0.10233500  1
  N  820  1  0.23706000  0.75391400  0.06742600  1
  N  833  1  0.22027900  0.66629500  0.08303100  1
  N  834  1  0.22165500  0.80450500  0.08568600  1
  N  836  1  0.52170600  0.94265800  0.35289300  1
  N  839  1  0.48446000  0.97184300  0.31829500  1
  N  852  1  0.57217500  0.95488100  0.33348100  1
  N  853  1  0.43396600  0.95616800  0.33653900  1
  N  855  1  0.98361400  0.03195800  0.85276500  1
  N  858  1  0.02081800  0.00276600  0.81814900  1
  N  871  1  0.93312400  0.01985800  0.83333400  1
  N  872  1  0.07133200  0.01835800  0.83641300  1
  N  874  1  0.80632300  0.72301700  0.09563900  1
  N  877  1  0.76158500  0.75841700  0.06937300  1
  N  890  1  0.78211700  0.67117500  0.08458800  1
  N  891  1  0.78725600  0.80959300  0.08044200  1
  N  893  1  0.69920300  0.25211800  0.59576300  1
  N  896  1  0.74420500  0.21665300  0.56977300  1
  N  909  1  0.72355900  0.30392500  0.58483300  1
  N  910  1  0.71839700  0.16551600  0.58070000  1
  N  912  1  0.70754900  0.71833600  0.40213700  1
  N  915  1  0.73704600  0.75554600  0.43661800  1
  N  928  1  0.71989000  0.66783600  0.42151400  1
  N  929  1  0.72137500  0.80607600  0.41845800  1
  N  931  1  0.79735100  0.25635500  0.90193200  1
  N  934  1  0.76836700  0.21912800  0.93660800  1
  N  947  1  0.78545800  0.30682900  0.92146600  1
  N  948  1  0.78373200  0.16860300  0.91831200  1
  N  950  1  0.48775100  0.43369600  0.65879200  1
  N  953  1  0.52331100  0.47835700  0.68501200  1
  N  966  1  0.43599000  0.45794600  0.66996800  1
  N  967  1  0.57441000  0.45261300  0.67397800  1
  N  969  1  0.01739400  0.54126100  0.15872400  1
  N  972  1  0.98183600  0.49689000  0.18519500  1
  N  985  1  0.06915400  0.51712100  0.17003500  1
  N  986  1  0.93073700  0.52253800  0.17401000  1
  N  988  1  0.02192500  0.44392100  0.85286800  1
  N  991  1  0.98437900  0.47226700  0.81809200  1
  N  1004  1  0.07221600  0.45599500  0.83331600  1
  N  1005  1  0.93400900  0.45662600  0.83645200  1
  N  1007  1  0.48338000  0.53127300  0.35258000  1
  N  1010  1  0.52092800  0.50265000  0.31791300  1
  N  1023  1  0.43308900  0.51908200  0.33307600  1
  N  1024  1  0.57130300  0.51835500  0.33625700  1
  O  425  1  0.28572800  0.51955500  0.77235000  1
  O  426  1  0.23286100  0.51829100  0.78299700  1
  O  444  1  0.22060100  0.45441600  0.27174800  1
  O  445  1  0.27271800  0.45661800  0.28319100  1
  O  463  1  0.71534500  0.01095600  0.01748300  1
  O  464  1  0.72151400  0.95884300  0.02890800  1
  O  482  1  0.78889100  0.96191200  0.51860500  1
  O  483  1  0.78347700  0.01472500  0.52877500  1
  O  501  1  0.72832200  0.45083300  0.23666000  1
  O  502  1  0.78037500  0.45691300  0.22573500  1
  O  520  1  0.77852100  0.52290600  0.73595900  1
  O  521  1  0.72562100  0.51775500  0.72593400  1
  O  539  1  0.28722800  0.96049400  0.98542800  1
  O  540  1  0.28226700  0.01292000  0.97511400  1
  O  558  1  0.21798100  0.01460400  0.48554900  1
  O  559  1  0.22278500  0.96214400  0.47527900  1
  O  577  1  0.78503900  0.01898500  0.27182800  1
  O  578  1  0.73230100  0.01727300  0.28275800  1
  O  596  1  0.72103100  0.95502400  0.77131300  1
  O  597  1  0.77304100  0.95751600  0.78296500  1
  O  615  1  0.21860700  0.51707300  0.52009700  1
  O  616  1  0.22197000  0.46535600  0.53283800  1
  O  634  1  0.28537400  0.45620100  0.02119100  1
  O  635  1  0.28278300  0.50862300  0.03274600  1
  O  653  1  0.22848100  0.95172600  0.73700800  1
  O  654  1  0.28047200  0.95817400  0.72605000  1
  O  672  1  0.27816300  0.02194500  0.23640400  1
  O  673  1  0.22534600  0.01632500  0.22629400  1
  O  691  1  0.78488400  0.45568700  0.48338900  1
  O  692  1  0.78242200  0.50775600  0.47186300  1
  O  710  1  0.72041800  0.51906400  0.98332000  1
  O  711  1  0.72288500  0.46696300  0.97186500  1
  O  729  1  0.28726400  0.25084600  0.96211700  1
  O  730  1  0.29116200  0.29081400  0.93576100  1
  O  748  1  0.21668400  0.72398400  0.46133400  1
  O  749  1  0.21410600  0.68340400  0.43571700  1
  O  767  1  0.99142500  0.02518000  0.20956200  1
  O  768  1  0.94967400  0.02604300  0.18458300  1
  O  786  1  0.51421700  0.95279400  0.71231000  1
  O  787  1  0.55426500  0.94914000  0.68601100  1
  O  805  1  0.26424500  0.26482800  0.52687900  1
  O  806  1  0.23475700  0.29910300  0.54817100  1
  O  824  1  0.24078300  0.71023200  0.02697500  1
  O  825  1  0.27063300  0.67593300  0.04840800  1
  O  843  1  0.52741000  0.97666400  0.27760200  1
  O  844  1  0.56269000  0.00502300  0.29882900  1
  O  862  1  0.97793800  0.99809000  0.77744400  1
  O  863  1  0.94248500  0.96984600  0.79860800  1
  O  881  1  0.71760300  0.72557300  0.04200100  1
  O  882  1  0.71390600  0.68590600  0.06858300  1
  O  900  1  0.78931600  0.24926000  0.54307500  1
  O  901  1  0.79173200  0.28966900  0.56882000  1
  O  919  1  0.74156800  0.71271100  0.47711800  1
  O  920  1  0.77025200  0.67723500  0.45610300  1
  O  938  1  0.76433700  0.26182700  0.97730800  1
  O  939  1  0.73553300  0.29732600  0.95614200  1
  O  957  1  0.49079700  0.52323700  0.71195300  1
  O  958  1  0.45038300  0.52598600  0.68621900  1
  O  976  1  0.01449900  0.45304300  0.21276800  1
  O  977  1  0.05427600  0.44908400  0.18627800  1
  O  995  1  0.02690300  0.47699400  0.77725600  1
  O  996  1  0.06250800  0.50539100  0.79820500  1
  O  1014  1  0.47849200  0.49768100  0.27707300  1
  O  1015  1  0.44273600  0.46955400  0.29807500  1
