# generated using pymatgen
data_H24C39(N4O)2
_symmetry_space_group_name_H-M   'P 1'
_cell_length_a   61.48440000
_cell_length_b   73.96910000
_cell_length_c   73.96910000
_cell_angle_alpha   120.00000000
_cell_angle_beta   90.00000000
_cell_angle_gamma   90.00000000
_symmetry_Int_Tables_number   1
_chemical_formula_structural   H24C39(N4O)2
_chemical_formula_sum   'H576 C936 N192 O48'
_cell_volume   291337.40001544
_cell_formula_units_Z   24
loop_
 _symmetry_equiv_pos_site_id
 _symmetry_equiv_pos_as_xyz
  1  'x, y, z'
loop_
 _atom_site_type_symbol
 _atom_site_label
 _atom_site_symmetry_multiplicity
 _atom_site_fract_x
 _atom_site_fract_y
 _atom_site_fract_z
 _atom_site_occupancy
  H  7  1  0.90669000  0.66545100  0.17471700  1
  H  8  1  0.90690000  0.70182000  0.18426500  1
  H  9  1  0.88210900  0.68513100  0.12459200  1
  H  11  1  0.89143500  0.72063100  0.14814400  1
  H  36  1  0.89765200  0.85048600  0.50876600  1
  H  37  1  0.90286800  0.82905700  0.52420600  1
  H  38  1  0.90669200  0.81205600  0.54741100  1
  H  39  1  0.90690600  0.80250900  0.57423400  1
  H  40  1  0.88211300  0.86218100  0.61721800  1
  H  41  1  0.87504500  0.89959400  0.56657500  1
  H  42  1  0.92535700  0.88809800  0.59441300  1
  H  43  1  0.91334900  0.94668900  0.64820200  1
  H  44  1  0.87525500  0.93924500  0.64506200  1
  H  45  1  0.83915300  0.85650100  0.57274000  1
  H  46  1  0.83608700  0.92490800  0.63518500  1
  H  47  1  0.80293700  0.90610600  0.62022200  1
  H  53  1  0.87516200  0.90369200  0.53483100  1
  H  54  1  0.89149000  0.83863000  0.62916900  1
  H  55  1  0.79906300  0.85357600  0.57351300  1
  H  56  1  0.95657300  0.91245700  0.61426700  1
  H  81  1  0.57021600  0.85048200  0.39839300  1
  H  82  1  0.56500500  0.82905800  0.36152300  1
  H  83  1  0.56116900  0.81206300  0.32132900  1
  H  84  1  0.56095900  0.80251000  0.28495800  1
  H  85  1  0.58571000  0.86219400  0.30164300  1
  H  86  1  0.59275900  0.89961900  0.38970400  1
  H  87  1  0.54214600  0.88829800  0.34975500  1
  H  88  1  0.55501900  0.94673300  0.35445600  1
  H  89  1  0.59297200  0.93927100  0.35097200  1
  H  90  1  0.62864100  0.85649700  0.34044200  1
  H  91  1  0.63175100  0.92488300  0.34638900  1
  H  92  1  0.66488400  0.90608300  0.34255200  1
  H  98  1  0.59269000  0.90369200  0.42554000  1
  H  99  1  0.57635800  0.83863400  0.26613300  1
  H  100  1  0.66876700  0.85357400  0.33674200  1
  H  101  1  0.51158900  0.91416100  0.35705700  1
  H  108  1  0.56117200  0.66544200  0.54741000  1
  H  109  1  0.56096000  0.70181300  0.57422800  1
  H  110  1  0.58571100  0.68512700  0.61722700  1
  H  112  1  0.57636100  0.72063200  0.62917000  1
  H  119  1  0.56119800  0.66433700  0.17417700  1
  H  120  1  0.56029800  0.70026700  0.18412800  1
  H  121  1  0.58551500  0.68570200  0.12500300  1
  H  123  1  0.57709300  0.72322600  0.15248300  1
  H  148  1  0.57070800  0.84977300  0.50846800  1
  H  149  1  0.56473400  0.82902400  0.52443800  1
  H  150  1  0.56120100  0.81259300  0.54683700  1
  H  151  1  0.56030300  0.80264100  0.57281400  1
  H  152  1  0.58551500  0.86176900  0.61737600  1
  H  153  1  0.59360300  0.89930300  0.56596967  1
  H  154  1  0.54251300  0.88810900  0.59437900  1
  H  155  1  0.55443400  0.94669100  0.64822900  1
  H  156  1  0.59251600  0.93928400  0.64512900  1
  H  157  1  0.62930600  0.85652700  0.57340600  1
  H  158  1  0.63131300  0.92534000  0.63541400  1
  H  159  1  0.66455600  0.90671600  0.62135400  1
  H  165  1  0.59027400  0.90375400  0.53426100  1
  H  166  1  0.57708300  0.83428400  0.62742000  1
  H  167  1  0.67017000  0.85545700  0.57393300  1
  H  168  1  0.51125800  0.91244900  0.61427000  1
  H  193  1  0.89712200  0.84976800  0.39797700  1
  H  194  1  0.90309000  0.82902300  0.36125800  1
  H  195  1  0.90664200  0.81260100  0.32244000  1
  H  196  1  0.90753800  0.80264500  0.28650900  1
  H  197  1  0.88236700  0.86178400  0.30107400  1
  H  198  1  0.87429200  0.89932600  0.38999300  1
  H  199  1  0.92568200  0.88830900  0.34979700  1
  H  200  1  0.91289600  0.94673800  0.35443500  1
  H  201  1  0.87495700  0.93931700  0.35095700  1
  H  202  1  0.83860000  0.85652300  0.33980200  1
  H  203  1  0.83654700  0.92531600  0.34659100  1
  H  204  1  0.80332300  0.90669300  0.34202500  1
  H  210  1  0.87756800  0.90375200  0.42617100  1
  H  211  1  0.89076500  0.83428800  0.26354300  1
  H  212  1  0.79770200  0.85545100  0.33819700  1
  H  213  1  0.95627600  0.91416800  0.35708900  1
  H  220  1  0.90663900  0.66433200  0.54683700  1
  H  221  1  0.90753400  0.70026200  0.57281100  1
  H  222  1  0.88236300  0.68569600  0.61738600  1
  H  224  1  0.89075400  0.72322400  0.62741900  1
  H  232  1  0.90783700  0.76770700  0.24488400  1
  H  234  1  0.89534700  0.80557700  0.19080600  1
  H  235  1  0.87860100  0.82707500  0.20726600  1
  H  236  1  0.86742900  0.80160100  0.19466500  1
  H  246  1  0.90784300  0.74188800  0.57950400  1
  H  248  1  0.89534800  0.79596100  0.67144500  1
  H  249  1  0.87860000  0.77950400  0.67648500  1
  H  250  1  0.86742800  0.79210900  0.66361500  1
  H  260  1  0.56000600  0.74189100  0.21906300  1
  H  262  1  0.57250200  0.79596200  0.18119400  1
  H  263  1  0.58924900  0.77950400  0.15969700  1
  H  264  1  0.60042100  0.79211000  0.18517000  1
  H  274  1  0.56000900  0.76770400  0.57950300  1
  H  276  1  0.57250200  0.80557800  0.67144700  1
  H  277  1  0.58924900  0.82707600  0.67648500  1
  H  278  1  0.60042100  0.80160000  0.66361500  1
  H  285  1  0.73910100  0.68027900  0.08646500  1
  H  286  1  0.76219800  0.69647300  0.09753200  1
  H  287  1  0.73933100  0.69987000  0.11351800  1
  H  295  1  0.75041000  0.86345000  0.55854700  1
  H  297  1  0.73909800  0.90030600  0.65049100  1
  H  298  1  0.76219800  0.88924000  0.65561700  1
  H  299  1  0.73933100  0.87325200  0.64302700  1
  H  309  1  0.71743900  0.86344900  0.36157600  1
  H  311  1  0.72875100  0.90030500  0.30649100  1
  H  312  1  0.70565100  0.88923900  0.29030100  1
  H  313  1  0.72851800  0.87325300  0.28690400  1
  H  320  1  0.72874400  0.68027700  0.65048700  1
  H  321  1  0.70564700  0.69647300  0.65561800  1
  H  322  1  0.72851700  0.69987100  0.64303100  1
  H  324  1  0.99200700  0.66583000  0.02721500  1
  H  325  1  0.96641000  0.67814100  0.03602900  1
  H  326  1  0.96906300  0.65726600  0.01003700  1
  H  333  1  0.97306200  0.96071000  0.61659800  1
  H  335  1  0.99200700  0.95956000  0.69529200  1
  H  336  1  0.96641000  0.95074100  0.69878300  1
  H  337  1  0.96906200  0.97673400  0.70390300  1
  H  339  1  0.46641000  0.65659400  0.72033500  1
  H  340  1  0.46906200  0.66171200  0.69946100  1
  H  347  1  0.47307000  0.98386300  0.41237700  1
  H  349  1  0.49200500  0.98502200  0.33368100  1
  H  350  1  0.46906200  0.96784400  0.32506400  1
  H  352  1  0.00144300  0.65659200  0.72033800  1
  H  353  1  0.99879200  0.66171000  0.69946400  1
  H  360  1  0.99477300  0.98388200  0.41238500  1
  H  362  1  0.97584300  0.98502000  0.33367300  1
  H  363  1  0.99878700  0.96784400  0.32505900  1
  H  366  1  0.47584600  0.66582300  0.02721600  1
  H  367  1  0.50144100  0.67813800  0.03602900  1
  H  368  1  0.49878700  0.65726300  0.01003900  1
  H  375  1  0.49476200  0.96071900  0.61660200  1
  H  377  1  0.47584800  0.95955400  0.69528900  1
  H  378  1  0.50144300  0.95073700  0.69878700  1
  H  379  1  0.49879200  0.97672800  0.70390300  1
  H  388  1  0.90889700  0.90968500  0.49696800  1
  H  390  1  0.83083000  0.85549800  0.46061900  1
  H  391  1  0.83439700  0.83896700  0.47133500  1
  H  392  1  0.85133000  0.83565700  0.45050000  1
  H  402  1  0.55895300  0.90968500  0.46939500  1
  H  404  1  0.63702000  0.85549900  0.45155600  1
  H  405  1  0.63345400  0.83896700  0.42430900  1
  H  406  1  0.61651900  0.83565600  0.44183200  1
  H  427  1  0.89765200  0.58836800  0.13627900  1
  H  428  1  0.90287100  0.62523800  0.15771000  1
  H  429  1  0.87504900  0.59707800  0.08717500  1
  H  430  1  0.92535600  0.63641600  0.09867800  1
  H  431  1  0.91335500  0.63160800  0.04008400  1
  H  432  1  0.87525800  0.63590800  0.04752500  1
  H  433  1  0.83915500  0.64633800  0.13027200  1
  H  434  1  0.83608700  0.64036800  0.06186300  1
  H  435  1  0.80293700  0.64421200  0.08066700  1
  H  440  1  0.87518500  0.56124000  0.08305700  1
  H  441  1  0.79906500  0.65000700  0.13319000  1
  H  442  1  0.95657200  0.63189200  0.07432200  1
  H  459  1  0.38210500  0.57502100  0.72732600  1
  H  460  1  0.42535500  0.55222000  0.67860800  1
  H  461  1  0.41335400  0.60600600  0.67380000  1
  H  462  1  0.37525800  0.60286700  0.67810300  1
  H  463  1  0.33608600  0.59298800  0.68256200  1
  H  464  1  0.30293600  0.57802500  0.68640300  1
  H  469  1  0.39143800  0.58697100  0.76282700  1
  H  470  1  0.45657100  0.57205100  0.67408500  1
  H  487  1  0.08571000  0.57503200  0.90438700  1
  H  488  1  0.04214600  0.55303000  0.93048900  1
  H  489  1  0.05501600  0.60676100  0.98892700  1
  H  490  1  0.09296900  0.60278200  0.98146500  1
  H  491  1  0.13174900  0.59297600  0.96707700  1
  H  492  1  0.16488300  0.57801400  0.94828000  1
  H  497  1  0.07639200  0.58697000  0.88082700  1
  H  498  1  0.01159200  0.57157000  0.95636500  1
  H  517  1  0.57021300  0.58837500  0.50876600  1
  H  518  1  0.56500400  0.62524600  0.52421100  1
  H  519  1  0.59275700  0.59706700  0.56659200  1
  H  520  1  0.54214600  0.63702000  0.59522300  1
  H  521  1  0.55501700  0.63231200  0.64895100  1
  H  522  1  0.59296900  0.63579300  0.64497200  1
  H  523  1  0.62864100  0.64632900  0.57273100  1
  H  524  1  0.63175100  0.64038000  0.63516900  1
  H  525  1  0.66488400  0.64421800  0.62020700  1
  H  530  1  0.59270300  0.56124500  0.53483500  1
  H  531  1  0.66876500  0.65002700  0.57350700  1
  H  532  1  0.51159300  0.62968000  0.61375900  1
  H  549  1  0.08550500  0.57518500  0.72789600  1
  H  550  1  0.04251500  0.55218000  0.67855000  1
  H  551  1  0.05443400  0.60603500  0.67382400  1
  H  552  1  0.09251700  0.60293500  0.67813300  1
  H  553  1  0.13131200  0.59322100  0.68236300  1
  H  554  1  0.16455400  0.57916400  0.68693000  1
  H  559  1  0.07710500  0.58522400  0.76542200  1
  H  560  1  0.01125700  0.57207400  0.67410800  1
  H  579  1  0.57070800  0.58878900  0.13699800  1
  H  580  1  0.56473500  0.62550800  0.15774600  1
  H  581  1  0.59360100  0.59678300  0.08746700  1
  H  582  1  0.54251300  0.63636200  0.09866000  1
  H  583  1  0.55443700  0.63163700  0.04008000  1
  H  584  1  0.59251800  0.63593400  0.04748400  1
  H  585  1  0.62930800  0.64697300  0.13024400  1
  H  586  1  0.63131300  0.64016700  0.06143000  1
  H  587  1  0.66455600  0.64473500  0.08005500  1
  H  592  1  0.59027500  0.56059900  0.08302000  1
  H  593  1  0.67016900  0.64856900  0.13131400  1
  H  594  1  0.51126000  0.63188700  0.07431400  1
  H  613  1  0.89712100  0.58879300  0.50846700  1
  H  614  1  0.90309000  0.62551300  0.52444200  1
  H  615  1  0.87429100  0.59677500  0.56600800  1
  H  616  1  0.92568000  0.63696900  0.59518300  1
  H  617  1  0.91290100  0.63233200  0.64897600  1
  H  618  1  0.87496000  0.63582200  0.64504300  1
  H  619  1  0.83860500  0.64696900  0.57339600  1
  H  620  1  0.83654200  0.64017900  0.63539900  1
  H  621  1  0.80331900  0.64474400  0.62133700  1
  H  626  1  0.87757000  0.56059700  0.53425400  1
  H  627  1  0.79770800  0.64855500  0.57391000  1
  H  628  1  0.95628700  0.62973000  0.61377400  1
  H  645  1  0.38237400  0.57519500  0.90397900  1
  H  646  1  0.42568200  0.55299300  0.93050400  1
  H  647  1  0.41289500  0.60679000  0.98893100  1
  H  648  1  0.37495700  0.60284600  0.98150900  1
  H  649  1  0.33654600  0.59320500  0.96751100  1
  H  650  1  0.30332300  0.57914900  0.94888900  1
  H  655  1  0.39074500  0.58522400  0.87647800  1
  H  656  1  0.45626600  0.57156000  0.95634700  1
  H  664  1  0.40783900  0.53730600  0.80990100  1
  H  666  1  0.39534600  0.62925300  0.84777200  1
  H  667  1  0.37860200  0.63429200  0.86927000  1
  H  668  1  0.36742800  0.62141800  0.84379500  1
  H  678  1  0.06000600  0.53730900  0.78408300  1
  H  680  1  0.07250200  0.62925100  0.83815700  1
  H  681  1  0.08924900  0.63429000  0.82169800  1
  H  682  1  0.10042100  0.62142100  0.83430300  1
  H  689  1  0.75040500  0.62519500  0.12333300  1
  H  698  1  0.23910200  0.60829800  0.72247500  1
  H  699  1  0.26219900  0.61342400  0.73866800  1
  H  700  1  0.23933100  0.60083500  0.74206400  1
  H  709  1  0.22875100  0.60829700  0.94249900  1
  H  710  1  0.20565100  0.61342100  0.93143400  1
  H  711  1  0.22851900  0.60083200  0.91544600  1
  H  718  1  0.71745400  0.62520300  0.55854300  1
  H  728  1  0.97307500  0.58597800  0.02607500  1
  H  738  1  0.47307300  0.57438600  0.62817300  1
  H  740  1  0.49200600  0.65309900  0.70802400  1
  H  750  1  0.99476000  0.57440800  0.62817200  1
  H  752  1  0.97584800  0.65309400  0.70802200  1
  H  762  1  0.49477500  0.58596800  0.02605800  1
  H  767  1  0.83082700  0.53521600  0.13127600  1
  H  768  1  0.83438900  0.56246300  0.14780700  1
  H  769  1  0.85132900  0.54494400  0.15111700  1
  H  771  1  0.85133500  0.53626600  0.44183100  1
  H  773  1  0.61651400  0.53626600  0.15111100  1
  H  777  1  0.63702400  0.53522100  0.46062000  1
  H  778  1  0.63345800  0.56246600  0.47133600  1
  H  779  1  0.61651800  0.54494600  0.45051000  1
  H  786  1  0.40669200  0.50521800  0.70764500  1
  H  787  1  0.40689900  0.53203800  0.74401600  1
  H  788  1  0.37504300  0.52438700  0.63927500  1
  H  789  1  0.33915500  0.53054600  0.68852800  1
  H  790  1  0.29906600  0.53130200  0.69220700  1
  H  796  1  0.06117200  0.50521500  0.85425500  1
  H  797  1  0.06095900  0.53203300  0.84470400  1
  H  798  1  0.09275200  0.52439900  0.94181500  1
  H  799  1  0.12864100  0.53053600  0.89869300  1
  H  800  1  0.16877000  0.53131500  0.89576700  1
  H  806  1  0.06119600  0.50464400  0.70653300  1
  H  807  1  0.06029400  0.53062200  0.74246100  1
  H  808  1  0.09360300  0.52380000  0.63898000  1
  H  809  1  0.12930600  0.53121200  0.68916800  1
  H  810  1  0.17016900  0.53173700  0.69076200  1
  H  816  1  0.40664200  0.50464300  0.85479500  1
  H  817  1  0.40754300  0.53061800  0.84483900  1
  H  818  1  0.37429000  0.52382200  0.94152200  1
  H  819  1  0.33860000  0.53120400  0.89871800  1
  H  820  1  0.29770200  0.53173400  0.89764600  1
  H  823  1  0.25040400  0.51634500  0.66739000  1
  H  826  1  0.21743800  0.51635500  0.90564400  1
  H  831  1  0.90888700  0.51736600  0.07706500  1
  H  838  1  0.83083400  0.52614900  0.45155500  1
  H  839  1  0.83439700  0.51543600  0.42430900  1
  H  846  1  0.63701500  0.52614900  0.13127000  1
  H  847  1  0.63345200  0.51543600  0.14780400  1
  H  852  1  0.55896600  0.51735600  0.49696200  1
  H  879  1  0.89765300  0.47800700  0.39839500  1
  H  880  1  0.90287100  0.46256300  0.36152500  1
  H  881  1  0.90668800  0.43936100  0.32132200  1
  H  882  1  0.90690300  0.41254000  0.28495200  1
  H  883  1  0.88211100  0.36955500  0.30164000  1
  H  884  1  0.87504600  0.42020000  0.38969800  1
  H  885  1  0.92536000  0.39235100  0.35035400  1
  H  886  1  0.91334800  0.33856300  0.35515600  1
  H  887  1  0.87525400  0.34170900  0.35085800  1
  H  888  1  0.83915000  0.41403100  0.34043800  1
  H  889  1  0.83608900  0.35158900  0.34640500  1
  H  890  1  0.80293900  0.36655000  0.34256600  1
  H  896  1  0.87514600  0.45196000  0.42553900  1
  H  897  1  0.89142100  0.35760800  0.26613900  1
  H  898  1  0.79905200  0.41324300  0.33672500  1
  H  899  1  0.95657200  0.37251800  0.35488900  1
  H  924  1  0.39765700  0.35620500  0.89268300  1
  H  925  1  0.40287000  0.31933500  0.87125300  1
  H  926  1  0.40668900  0.27912700  0.85424700  1
  H  927  1  0.40690500  0.24275800  0.84470100  1
  H  928  1  0.38211200  0.25944600  0.90437400  1
  H  929  1  0.37504800  0.34750200  0.94178900  1
  H  930  1  0.42535900  0.30816600  0.93029100  1
  H  931  1  0.41334900  0.31297400  0.98888400  1
  H  932  1  0.37525500  0.30866800  0.98144000  1
  H  933  1  0.33915300  0.29824300  0.89869500  1
  H  934  1  0.33608700  0.30420800  0.96710200  1
  H  935  1  0.30293700  0.30036800  0.94830100  1
  H  941  1  0.37515100  0.38333000  0.94587900  1
  H  942  1  0.39142600  0.22394400  0.88081900  1
  H  943  1  0.29906300  0.29454700  0.89577000  1
  H  944  1  0.45657500  0.31266900  0.95465100  1
  H  948  1  0.39765100  0.46657300  0.63056400  1
  H  949  1  0.40287300  0.48201300  0.66743400  1
  H  951  1  0.37521600  0.49266900  0.60342400  1
  H  976  1  0.39765600  0.09409400  0.52020200  1
  H  977  1  0.40287200  0.11551900  0.50475800  1
  H  978  1  0.40669200  0.13252200  0.48155300  1
  H  979  1  0.40689900  0.14206900  0.45473000  1
  H  980  1  0.38210700  0.08239600  0.41174800  1
  H  981  1  0.37505000  0.04498300  0.46239600  1
  H  982  1  0.42535900  0.05647600  0.43455000  1
  H  983  1  0.41334700  0.99788800  0.38075900  1
  H  984  1  0.37525300  0.00533300  0.38390500  1
  H  985  1  0.33915000  0.08807700  0.45622600  1
  H  986  1  0.33608900  0.01966900  0.39378100  1
  H  987  1  0.30293900  0.03846800  0.40874200  1
  H  993  1  0.37512300  0.04091300  0.49415400  1
  H  994  1  0.39145400  0.10595300  0.39980700  1
  H  995  1  0.29905700  0.09100100  0.45543800  1
  H  996  1  0.45657100  0.03211200  0.41471200  1
  H  1000  1  0.07021200  0.46657100  0.89267900  1
  H  1001  1  0.06500200  0.48201600  0.87125300  1
  H  1003  1  0.09271200  0.49263600  0.94587700  1
  H  1028  1  0.07021500  0.09409300  0.63057100  1
  H  1029  1  0.06500200  0.11551800  0.66744100  1
  H  1030  1  0.06116700  0.13251500  0.70763900  1
  H  1031  1  0.06096400  0.14206800  0.74400900  1
  H  1032  1  0.08571500  0.08238300  0.72732200  1
  H  1033  1  0.09275700  0.04495800  0.63926200  1
  H  1034  1  0.04214600  0.05628000  0.67921300  1
  H  1035  1  0.05501600  0.99784400  0.67451000  1
  H  1036  1  0.09296900  0.00530400  0.67799100  1
  H  1037  1  0.12864000  0.08808000  0.68852400  1
  H  1038  1  0.13174900  0.01969300  0.68257500  1
  H  1039  1  0.16488300  0.03849300  0.68641200  1
  H  1045  1  0.09268900  0.04088700  0.60343600  1
  H  1046  1  0.07633700  0.10593800  0.76283100  1
  H  1047  1  0.16876500  0.09100200  0.69222200  1
  H  1048  1  0.01159200  0.03040600  0.67188100  1
  H  1073  1  0.07021800  0.35620500  0.52019900  1
  H  1074  1  0.06500400  0.31933400  0.50475700  1
  H  1075  1  0.06117000  0.27913500  0.48155600  1
  H  1076  1  0.06096100  0.24276400  0.45473700  1
  H  1077  1  0.08571200  0.25945000  0.41173900  1
  H  1078  1  0.09275900  0.34750600  0.46237000  1
  H  1079  1  0.04214600  0.30755600  0.43374200  1
  H  1080  1  0.05501600  0.31226200  0.38001300  1
  H  1081  1  0.09296900  0.30878500  0.38399400  1
  H  1082  1  0.12863800  0.29824500  0.45623200  1
  H  1083  1  0.13175100  0.30419800  0.39379700  1
  H  1084  1  0.16488500  0.30035600  0.40875700  1
  H  1090  1  0.09267000  0.38333800  0.49410700  1
  H  1091  1  0.07635600  0.22394000  0.39978700  1
  H  1092  1  0.16876500  0.29457200  0.45547700  1
  H  1093  1  0.01160300  0.31488900  0.41520700  1
  H  1118  1  0.57021800  0.47800600  0.13629300  1
  H  1119  1  0.56500400  0.46255800  0.15771400  1
  H  1120  1  0.56117200  0.43936100  0.17471000  1
  H  1121  1  0.56096200  0.41254200  0.18426200  1
  H  1122  1  0.58571300  0.36954300  0.12457700  1
  H  1123  1  0.59276200  0.42018500  0.08715500  1
  H  1124  1  0.54214800  0.39155400  0.09847600  1
  H  1125  1  0.55501300  0.33782200  0.04003900  1
  H  1126  1  0.59296700  0.34179300  0.04750100  1
  H  1127  1  0.62864400  0.41403800  0.13027300  1
  H  1128  1  0.63174900  0.35160100  0.06188600  1
  H  1129  1  0.66488300  0.36656200  0.08068400  1
  H  1135  1  0.59271000  0.45196300  0.08309900  1
  H  1136  1  0.57636600  0.35760300  0.14814000  1
  H  1137  1  0.66877600  0.41324900  0.13319800  1
  H  1138  1  0.51158200  0.37299300  0.07262700  1
  H  1163  1  0.07070800  0.35578800  0.89196800  1
  H  1164  1  0.06473400  0.31906900  0.87121800  1
  H  1165  1  0.06120000  0.28023900  0.85478800  1
  H  1166  1  0.06030000  0.24431000  0.84483700  1
  H  1167  1  0.08551500  0.25887400  0.90396100  1
  H  1168  1  0.09360100  0.34779100  0.94149700  1
  H  1169  1  0.04251500  0.30821300  0.93030300  1
  H  1170  1  0.05443500  0.31294700  0.98888700  1
  H  1171  1  0.09251800  0.30864200  0.98148000  1
  H  1172  1  0.12930200  0.29760300  0.89871800  1
  H  1173  1  0.13131700  0.30440900  0.96753300  1
  H  1174  1  0.16455800  0.29984100  0.94890400  1
  H  1180  1  0.09027400  0.38397700  0.94594700  1
  H  1181  1  0.07709300  0.22135000  0.87648100  1
  H  1182  1  0.17016100  0.29602200  0.89764800  1
  H  1183  1  0.01125900  0.31266800  0.95464400  1
  H  1187  1  0.07070800  0.46627500  0.63098400  1
  H  1188  1  0.06473400  0.48224300  0.66770100  1
  H  1190  1  0.09027500  0.49206700  0.60279600  1
  H  1215  1  0.07071100  0.09479600  0.52049500  1
  H  1216  1  0.06473600  0.11555100  0.50452900  1
  H  1217  1  0.06119600  0.13198200  0.48212700  1
  H  1218  1  0.06030000  0.14193500  0.45615000  1
  H  1219  1  0.08551300  0.08280900  0.41159000  1
  H  1220  1  0.09360300  0.04527200  0.46296600  1
  H  1221  1  0.04251500  0.05647200  0.43458700  1
  H  1222  1  0.05442900  0.99788600  0.38073700  1
  H  1223  1  0.09251300  0.00529000  0.38383700  1
  H  1224  1  0.12930800  0.08805000  0.45556100  1
  H  1225  1  0.13131300  0.01923600  0.39355000  1
  H  1226  1  0.16455600  0.03786000  0.40760900  1
  H  1232  1  0.09027400  0.04080900  0.49468700  1
  H  1233  1  0.07706700  0.11028800  0.40154200  1
  H  1234  1  0.17017000  0.08912200  0.45503300  1
  H  1235  1  0.01126000  0.03213700  0.41472100  1
  H  1260  1  0.57070900  0.47830100  0.39798800  1
  H  1261  1  0.56473500  0.46233500  0.36126700  1
  H  1262  1  0.56119600  0.43993200  0.32243300  1
  H  1263  1  0.56029700  0.41395300  0.28650200  1
  H  1264  1  0.58550800  0.36939300  0.30107000  1
  H  1265  1  0.59360300  0.42077100  0.38998200  1
  H  1266  1  0.54251500  0.39239200  0.35040600  1
  H  1267  1  0.55443500  0.33854300  0.35514100  1
  H  1268  1  0.59251800  0.34164600  0.35083800  1
  H  1269  1  0.62930800  0.41336500  0.33979700  1
  H  1270  1  0.63131300  0.35135800  0.34660500  1
  H  1271  1  0.66455600  0.36541500  0.34203800  1
  H  1277  1  0.59027400  0.45249200  0.42616600  1
  H  1278  1  0.57706900  0.35934600  0.26354400  1
  H  1279  1  0.67017000  0.41284000  0.33820300  1
  H  1280  1  0.51125800  0.37250500  0.35486000  1
  H  1305  1  0.89712100  0.47830300  0.13700300  1
  H  1306  1  0.90309200  0.46232800  0.15774700  1
  H  1307  1  0.90664100  0.43993300  0.17417100  1
  H  1308  1  0.90753800  0.41395700  0.18412500  1
  H  1309  1  0.88237000  0.36938300  0.12498500  1
  H  1310  1  0.87429100  0.42076100  0.08742767  1
  H  1311  1  0.92568100  0.39158500  0.09846000  1
  H  1312  1  0.91289400  0.33778900  0.04003400  1
  H  1313  1  0.87495500  0.34173000  0.04745800  1
  H  1314  1  0.83859900  0.41337300  0.13024800  1
  H  1315  1  0.83654600  0.35137000  0.06145500  1
  H  1316  1  0.80332100  0.36542700  0.08007800  1
  H  1322  1  0.87757100  0.45251200  0.08301700  1
  H  1323  1  0.89077000  0.35934800  0.15247600  1
  H  1324  1  0.79770000  0.41284400  0.13132000  1
  H  1325  1  0.95628000  0.37299400  0.07262000  1
  H  1329  1  0.39711900  0.46627500  0.89196900  1
  H  1330  1  0.40308800  0.48224600  0.87122000  1
  H  1332  1  0.37757300  0.49208200  0.94596100  1
  H  1357  1  0.39712100  0.09480900  0.63098700  1
  H  1358  1  0.40309000  0.11555400  0.66770800  1
  H  1359  1  0.40664200  0.13197600  0.70652500  1
  H  1360  1  0.40753100  0.14193400  0.74245600  1
  H  1361  1  0.38236200  0.08279300  0.72789100  1
  H  1362  1  0.37428900  0.04525100  0.63897000  1
  H  1363  1  0.42568100  0.05626900  0.67916300  1
  H  1364  1  0.41290000  0.99783900  0.67452800  1
  H  1365  1  0.37496000  0.00526200  0.67801700  1
  H  1366  1  0.33860500  0.08805500  0.68916200  1
  H  1367  1  0.33654300  0.01926300  0.68237600  1
  H  1368  1  0.30332000  0.03788900  0.68694000  1
  H  1374  1  0.37756900  0.04082600  0.60279100  1
  H  1375  1  0.39077600  0.11028400  0.76541800  1
  H  1376  1  0.29770800  0.08913100  0.69075700  1
  H  1377  1  0.45628700  0.03043800  0.67192400  1
  H  1402  1  0.39712100  0.35578400  0.52049800  1
  H  1403  1  0.40309000  0.31906300  0.50452300  1
  H  1404  1  0.40664000  0.28024500  0.48212700  1
  H  1405  1  0.40753900  0.24431500  0.45615200  1
  H  1406  1  0.38236700  0.25888000  0.41157800  1
  H  1407  1  0.37429000  0.34779900  0.46295500  1
  H  1408  1  0.42568200  0.30760200  0.43377700  1
  H  1409  1  0.41289700  0.31223500  0.37998200  1
  H  1410  1  0.37495700  0.30875500  0.38392300  1
  H  1411  1  0.33860000  0.29760700  0.45556600  1
  H  1412  1  0.33654600  0.30439900  0.39356400  1
  H  1413  1  0.30332100  0.29983300  0.40762200  1
  H  1419  1  0.37756900  0.38397700  0.49470600  1
  H  1420  1  0.39075000  0.22135400  0.40154500  1
  H  1421  1  0.29770200  0.29600800  0.45503800  1
  H  1422  1  0.45627700  0.31488800  0.41520700  1
  H  1430  1  0.90785100  0.40726800  0.21906400  1
  H  1432  1  0.89534700  0.31532400  0.18119500  1
  H  1433  1  0.87860200  0.31028700  0.15969600  1
  H  1434  1  0.86742900  0.32315800  0.18517000  1
  H  1444  1  0.40783900  0.17687000  0.78408400  1
  H  1446  1  0.39534800  0.13899900  0.83815600  1
  H  1447  1  0.37860000  0.11750100  0.82169800  1
  H  1448  1  0.36742800  0.14297500  0.83430200  1
  H  1458  1  0.40785300  0.20268600  0.44946100  1
  H  1460  1  0.39534600  0.14861400  0.35752000  1
  H  1461  1  0.37860200  0.16507300  0.35248100  1
  H  1462  1  0.36742800  0.15247300  0.36535500  1
  H  1472  1  0.06000800  0.20268200  0.80989600  1
  H  1474  1  0.07250200  0.14861400  0.84777100  1
  H  1475  1  0.08924900  0.16507300  0.86927000  1
  H  1476  1  0.10042100  0.15246900  0.84379500  1
  H  1486  1  0.06001100  0.17687200  0.44946400  1
  H  1488  1  0.07250300  0.13899900  0.35751600  1
  H  1489  1  0.08924800  0.11750200  0.35248000  1
  H  1490  1  0.10042100  0.14297700  0.36535100  1
  H  1500  1  0.55999800  0.40726600  0.24487700  1
  H  1502  1  0.57250300  0.31532200  0.19080600  1
  H  1503  1  0.58924900  0.31028700  0.20726800  1
  H  1504  1  0.60042100  0.32315800  0.19466400  1
  H  1514  1  0.75040500  0.42822800  0.36158300  1
  H  1516  1  0.73909800  0.33628100  0.30649300  1
  H  1517  1  0.76219700  0.33115400  0.29029900  1
  H  1518  1  0.73933100  0.34374400  0.28690300  1
  H  1528  1  0.25039600  0.31937600  0.90563000  1
  H  1530  1  0.23910500  0.26429900  0.94249900  1
  H  1531  1  0.26220200  0.24810200  0.93143300  1
  H  1532  1  0.23933300  0.24470500  0.91545000  1
  H  1542  1  0.25040400  0.08112800  0.47042300  1
  H  1544  1  0.23909800  0.04427100  0.37847500  1
  H  1545  1  0.26219700  0.05533700  0.37335000  1
  H  1546  1  0.23933100  0.07132400  0.38594000  1
  H  1556  1  0.21745200  0.08114300  0.66739800  1
  H  1558  1  0.22874300  0.04427200  0.72247200  1
  H  1559  1  0.20564800  0.05533600  0.73866700  1
  H  1560  1  0.22851500  0.07132200  0.74206500  1
  H  1570  1  0.21744400  0.31938000  0.47042600  1
  H  1572  1  0.22874800  0.26429800  0.37847500  1
  H  1573  1  0.20565100  0.24810500  0.37334900  1
  H  1574  1  0.22851900  0.24470800  0.38593700  1
  H  1584  1  0.71744400  0.42822700  0.12332300  1
  H  1586  1  0.72875100  0.33628200  0.08646600  1
  H  1587  1  0.70565200  0.33115500  0.09753200  1
  H  1588  1  0.72851800  0.34374600  0.11351800  1
  H  1598  1  0.97307300  0.37018300  0.40080300  1
  H  1600  1  0.99200400  0.29148800  0.32094800  1
  H  1601  1  0.96640800  0.28798600  0.30863400  1
  H  1602  1  0.96906300  0.28287100  0.32951000  1
  H  1613  1  0.47308500  0.35859900  0.00291500  1
  H  1615  1  0.49200100  0.27874800  0.00174800  1
  H  1616  1  0.46640600  0.26643400  0.99293200  1
  H  1617  1  0.46905700  0.28730800  0.01892300  1
  H  1621  1  0.46640800  0.99383500  0.33018100  1
  H  1630  1  0.99478900  0.35859200  0.00290000  1
  H  1632  1  0.97584300  0.27875000  0.00175400  1
  H  1633  1  0.00144000  0.26643900  0.99293500  1
  H  1634  1  0.99878900  0.28731200  0.01892700  1
  H  1638  1  0.00144000  0.99383500  0.33017600  1
  H  1647  1  0.49478600  0.37017600  0.40079000  1
  H  1649  1  0.47584300  0.29148000  0.32094600  1
  H  1650  1  0.50144000  0.28798700  0.30863400  1
  H  1651  1  0.49878900  0.28286700  0.32950700  1
  H  1660  1  0.90890800  0.48981100  0.46940500  1
  H  1669  1  0.40888500  0.42722000  0.95189300  1
  H  1671  1  0.33082600  0.40935500  0.89768700  1
  H  1672  1  0.33439100  0.38210900  0.88115800  1
  H  1673  1  0.35133300  0.39963100  0.87785300  1
  H  1683  1  0.40888800  0.45478400  0.55955800  1
  H  1685  1  0.33082600  0.41842000  0.57740900  1
  H  1686  1  0.33438900  0.42913900  0.60465700  1
  H  1687  1  0.35132800  0.40830800  0.58713700  1
  H  1697  1  0.40890600  0.03489100  0.53200500  1
  H  1699  1  0.33083500  0.08907500  0.56834200  1
  H  1700  1  0.33439600  0.10561100  0.55763100  1
  H  1701  1  0.35133500  0.10891600  0.57845900  1
  H  1711  1  0.05895400  0.45477300  0.95187800  1
  H  1713  1  0.13701900  0.41842600  0.89769300  1
  H  1714  1  0.13345400  0.42914000  0.88116000  1
  H  1715  1  0.11651900  0.40830800  0.87785100  1
  H  1725  1  0.05896500  0.03487600  0.55954900  1
  H  1727  1  0.13702400  0.08908400  0.57741400  1
  H  1728  1  0.13345700  0.10561300  0.60466200  1
  H  1729  1  0.11651600  0.10891800  0.58713900  1
  H  1739  1  0.05896300  0.42721200  0.53198800  1
  H  1741  1  0.13702200  0.40936100  0.56835000  1
  H  1742  1  0.13346000  0.38211400  0.55763200  1
  H  1743  1  0.11652100  0.39963300  0.57846200  1
  H  1748  1  0.55894200  0.48981300  0.07708500  1
  C  1  1  0.89415400  0.65438600  0.14435900  1
  C  2  1  0.88721600  0.66022700  0.13007300  1
  C  3  1  0.90147000  0.66967800  0.16424200  1
  C  4  1  0.90149900  0.69097400  0.16974900  1
  C  5  1  0.89428500  0.69739400  0.15558600  1
  C  6  1  0.88735000  0.68144400  0.13548700  1
  C  10  1  0.89394300  0.71830600  0.16007500  1
  C  12  1  0.85749900  0.88211200  0.59481900  1
  C  13  1  0.85679100  0.90180400  0.61269400  1
  C  14  1  0.87799000  0.90950300  0.61804100  1
  C  15  1  0.89250600  0.89483700  0.60368400  1
  C  16  1  0.91514300  0.89900900  0.60533000  1
  C  17  1  0.92348900  0.91835500  0.62145300  1
  C  18  1  0.90826100  0.93266700  0.63610600  1
  C  19  1  0.88577300  0.92845900  0.63446600  1
  C  20  1  0.83670800  0.91052000  0.62204700  1
  C  21  1  0.81730300  0.89933200  0.61308100  1
  C  22  1  0.81733400  0.87938800  0.59460600  1
  C  23  1  0.83805700  0.87086400  0.58588800  1
  C  24  1  0.88419200  0.87196600  0.56631900  1
  C  25  1  0.89231500  0.85172600  0.55430800  1
  C  26  1  0.89415100  0.84241200  0.56670400  1
  C  27  1  0.88721100  0.85669700  0.58683100  1
  C  28  1  0.90146700  0.82253000  0.56211400  1
  C  29  1  0.90149900  0.81702300  0.57790300  1
  C  30  1  0.89427900  0.83118300  0.59848400  1
  C  31  1  0.88735000  0.85128500  0.60263600  1
  C  32  1  0.88105900  0.88485800  0.55737400  1
  C  33  1  0.88633700  0.87763800  0.53606100  1
  C  34  1  0.89405100  0.85674600  0.52425300  1
  C  35  1  0.89712500  0.84392000  0.53314800  1
  C  48  1  0.88033600  0.87639800  0.58791700  1
  C  49  1  0.89395900  0.82669600  0.61490600  1
  C  50  1  0.88297600  0.89020400  0.52679600  1
  C  51  1  0.79796000  0.86820200  0.58517700  1
  C  52  1  0.94575600  0.92345200  0.62274200  1
  C  57  1  0.61028200  0.88212100  0.34401000  1
  C  58  1  0.61103800  0.90180900  0.34584400  1
  C  59  1  0.58985600  0.90948900  0.34807000  1
  C  60  1  0.57519500  0.89488600  0.34769300  1
  C  61  1  0.55251600  0.89910300  0.34974000  1
  C  62  1  0.54428500  0.91823400  0.35217400  1
  C  63  1  0.55983200  0.93262100  0.35247400  1
  C  64  1  0.58230400  0.92845800  0.35050700  1
  C  65  1  0.63112100  0.91051200  0.34517500  1
  C  66  1  0.65051800  0.89932000  0.34294000  1
  C  67  1  0.65047700  0.87937800  0.34147200  1
  C  68  1  0.62973700  0.87086800  0.34167700  1
  C  69  1  0.58353800  0.87202500  0.36233500  1
  C  70  1  0.57548900  0.85175600  0.35410100  1
  C  71  1  0.57366900  0.84243400  0.33239200  1
  C  72  1  0.58058300  0.85672800  0.32655300  1
  C  73  1  0.56638600  0.82253800  0.31709800  1
  C  74  1  0.56635700  0.81702900  0.29580200  1
  C  75  1  0.57357300  0.83118900  0.28938000  1
  C  76  1  0.58048200  0.85129600  0.30533000  1
  C  77  1  0.58674100  0.88488400  0.38416500  1
  C  78  1  0.58151000  0.87764400  0.39825400  1
  C  79  1  0.57379900  0.85674900  0.38916800  1
  C  80  1  0.57072400  0.84393000  0.36745000  1
  C  93  1  0.58738500  0.87646500  0.34516700  1
  C  94  1  0.57389500  0.82670300  0.26846700  1
  C  95  1  0.58487700  0.89020400  0.42008500  1
  C  96  1  0.66986800  0.86819900  0.33970100  1
  C  97  1  0.52206300  0.92378500  0.35593600  1
  C  102  1  0.57367300  0.65437800  0.56671700  1
  C  103  1  0.58057800  0.66021600  0.58685100  1
  C  104  1  0.56638500  0.66967100  0.56211600  1
  C  105  1  0.56635500  0.69096700  0.57790300  1
  C  106  1  0.57356700  0.69738800  0.59848600  1
  C  107  1  0.58047800  0.68143900  0.60264300  1
  C  111  1  0.57389700  0.71830100  0.61490700  1
  C  113  1  0.57369400  0.65404900  0.14393900  1
  C  114  1  0.58059500  0.66015800  0.12983100  1
  C  115  1  0.56620200  0.66878800  0.16381100  1
  C  116  1  0.56577300  0.68993800  0.16945600  1
  C  117  1  0.57286700  0.69691700  0.15566800  1
  C  118  1  0.58015900  0.68150600  0.13548400  1
  C  122  1  0.57331800  0.71833600  0.16238100  1
  C  124  1  0.61050600  0.88215300  0.59500300  1
  C  125  1  0.61099400  0.90189400  0.61282200  1
  C  126  1  0.58981600  0.90959800  0.61802200  1
  C  127  1  0.57537400  0.89492700  0.60361000  1
  C  128  1  0.55271900  0.89904500  0.60528000  1
  C  129  1  0.54434000  0.91836300  0.62143400  1
  C  130  1  0.55953900  0.93269200  0.63611300  1
  C  131  1  0.58202300  0.92851500  0.63448500  1
  C  132  1  0.63087600  0.91082900  0.62244100  1
  C  133  1  0.65035200  0.89966600  0.61403400  1
  C  134  1  0.65065500  0.87946600  0.59596400  1
  C  135  1  0.63011900  0.87092000  0.58654700  1
  C  136  1  0.58402000  0.87203700  0.56626200  1
  C  137  1  0.57574800  0.85188700  0.55433000  1
  C  138  1  0.57369200  0.84283200  0.56678700  1
  C  139  1  0.58059100  0.85694200  0.58700500  1
  C  140  1  0.56619800  0.82296200  0.56165600  1
  C  141  1  0.56577000  0.81731500  0.57715900  1
  C  142  1  0.57286900  0.83110200  0.59792500  1
  C  143  1  0.58016200  0.85128600  0.60269700  1
  C  144  1  0.58757500  0.88454900  0.55695900  1
  C  145  1  0.58305400  0.87673300  0.53536900  1
  C  146  1  0.57450900  0.85614900  0.52392800  1
  C  147  1  0.57085700  0.84376800  0.53315800  1
  C  160  1  0.58767300  0.87652100  0.58794800  1
  C  161  1  0.57332600  0.82438700  0.61262900  1
  C  162  1  0.58636700  0.88877200  0.52557900  1
  C  163  1  0.67052300  0.86890500  0.58733500  1
  C  164  1  0.52207300  0.92344600  0.62273800  1
  C  169  1  0.85741300  0.88216200  0.34386800  1
  C  170  1  0.85687700  0.90190500  0.34581200  1
  C  171  1  0.87803900  0.90958600  0.34818700  1
  C  172  1  0.89262600  0.89497900  0.34785800  1
  C  173  1  0.91532100  0.89914000  0.34982400  1
  C  174  1  0.92358900  0.91823600  0.35218700  1
  C  175  1  0.90806900  0.93264300  0.35248800  1
  C  176  1  0.88560200  0.92851600  0.35054800  1
  C  177  1  0.83699300  0.91082100  0.34509000  1
  C  178  1  0.81752500  0.89965400  0.34232200  1
  C  179  1  0.81723300  0.87945800  0.34019700  1
  C  180  1  0.83778600  0.87092200  0.34107200  1
  C  181  1  0.88395000  0.87209700  0.36246400  1
  C  182  1  0.89214900  0.85191900  0.35424300  1
  C  183  1  0.89418800  0.84285500  0.33273100  1
  C  184  1  0.88731600  0.85697300  0.32662400  1
  C  185  1  0.90164700  0.82297000  0.31798900  1
  C  186  1  0.90207300  0.81732000  0.29683800  1
  C  187  1  0.89497700  0.83110700  0.28985800  1
  C  188  1  0.88770800  0.85129900  0.30527000  1
  C  189  1  0.88032000  0.88457300  0.38427200  1
  C  190  1  0.88480300  0.87674000  0.39804100  1
  C  191  1  0.89333900  0.85615200  0.38889600  1
  C  192  1  0.89699300  0.84377700  0.36728600  1
  C  205  1  0.88030700  0.87658900  0.34525900  1
  C  206  1  0.89452300  0.82439100  0.26843900  1
  C  207  1  0.88148100  0.88877200  0.41986900  1
  C  208  1  0.79734900  0.86890100  0.33824700  1
  C  209  1  0.94581800  0.92376200  0.35590400  1
  C  214  1  0.89418600  0.65404000  0.56680000  1
  C  215  1  0.88731500  0.66014700  0.58702500  1
  C  216  1  0.90164300  0.66878300  0.56165700  1
  C  217  1  0.90207500  0.68993200  0.57716000  1
  C  218  1  0.89498000  0.69691200  0.59792700  1
  C  219  1  0.88770800  0.68150100  0.60270700  1
  C  223  1  0.89452800  0.71833300  0.61263100  1
  C  225  1  0.89316000  0.79005900  0.21721000  1
  C  226  1  0.89864100  0.78925600  0.23530700  1
  C  227  1  0.90395000  0.76943800  0.23239800  1
  C  229  1  0.89749400  0.75289600  0.19590600  1
  C  233  1  0.88202800  0.81074400  0.20207800  1
  C  239  1  0.89316500  0.76956000  0.62952700  1
  C  240  1  0.89867000  0.75146600  0.61063500  1
  C  241  1  0.90394000  0.75437300  0.59371700  1
  C  243  1  0.89748400  0.79086300  0.61366300  1
  C  247  1  0.88202700  0.78469200  0.66534300  1
  C  253  1  0.57468400  0.76956300  0.19671200  1
  C  254  1  0.56917900  0.75146900  0.19751000  1
  C  255  1  0.56391100  0.75437600  0.21733600  1
  C  257  1  0.57036800  0.79086800  0.23387800  1
  C  261  1  0.58582400  0.78469300  0.17602700  1
  C  267  1  0.57468400  0.79005700  0.62952700  1
  C  268  1  0.56917900  0.78926000  0.61063600  1
  C  269  1  0.56390100  0.76943700  0.59372000  1
  C  271  1  0.57037600  0.75289200  0.61366300  1
  C  275  1  0.58582200  0.81074400  0.66534200  1
  C  281  1  0.74578900  0.66194500  0.11034300  1
  C  284  1  0.74909400  0.68837500  0.10049600  1
  C  288  1  0.74579100  0.87641200  0.60827100  1
  C  289  1  0.75703600  0.87143600  0.58975500  1
  C  290  1  0.74358100  0.86632000  0.57231000  1
  C  292  1  0.71069600  0.87161800  0.59208900  1
  C  296  1  0.74909300  0.88627600  0.64455500  1
  C  302  1  0.72205800  0.87641300  0.32482100  1
  C  303  1  0.71080600  0.87143800  0.33835800  1
  C  304  1  0.72426800  0.86632200  0.35068600  1
  C  306  1  0.75716100  0.87162000  0.33620800  1
  C  310  1  0.71875800  0.88627600  0.29839900  1
  C  316  1  0.72205300  0.66195500  0.60827200  1
  C  319  1  0.71875200  0.68837600  0.64455500  1
  C  323  1  0.97445400  0.66325300  0.02610500  1
  C  327  1  0.97649000  0.96343400  0.66273700  1
  C  328  1  0.96978200  0.95503800  0.64179800  1
  C  329  1  0.97772200  0.96544800  0.63156300  1
  C  334  1  0.97445400  0.96066700  0.69382100  1
  C  341  1  0.47648700  0.98115500  0.36623800  1
  C  342  1  0.46977500  0.98952400  0.38717600  1
  C  343  1  0.47773000  0.97913000  0.39741400  1
  C  345  1  0.49791800  0.95451900  0.36739900  1
  C  348  1  0.47445100  0.98391300  0.33514600  1
  C  354  1  0.99135500  0.98114600  0.36622000  1
  C  355  1  0.99811700  0.98946200  0.38712800  1
  C  356  1  0.99012400  0.97913000  0.39741600  1
  C  358  1  0.96992900  0.95452000  0.36740100  1
  C  361  1  0.99339600  0.98391100  0.33514000  1
  C  365  1  0.49340000  0.66325000  0.02610700  1
  C  369  1  0.49136700  0.96343000  0.66274000  1
  C  370  1  0.49805800  0.95503800  0.64179600  1
  C  371  1  0.49011000  0.96545700  0.63157000  1
  C  376  1  0.49340200  0.96066100  0.69382100  1
  C  381  1  0.87007100  0.87403300  0.47536000  1
  C  382  1  0.88412400  0.88765600  0.49151900  1
  C  383  1  0.89730800  0.90033000  0.48663500  1
  C  385  1  0.88190800  0.88608700  0.45222200  1
  C  389  1  0.84282600  0.84712600  0.46455100  1
  C  395  1  0.59777900  0.87403200  0.45535000  1
  C  396  1  0.58372600  0.88765600  0.45281500  1
  C  397  1  0.57054200  0.90033100  0.47037200  1
  C  399  1  0.58594100  0.88608800  0.49054200  1
  C  403  1  0.62502400  0.84712700  0.43925200  1
  C  409  1  0.85750000  0.64280500  0.10466000  1
  C  410  1  0.85679100  0.64098500  0.08496700  1
  C  411  1  0.87799000  0.63863100  0.07726700  1
  C  412  1  0.89250500  0.63894000  0.09193400  1
  C  413  1  0.91514100  0.63641200  0.08776200  1
  C  414  1  0.92349200  0.63320000  0.06842300  1
  C  415  1  0.90826400  0.63353600  0.05410500  1
  C  416  1  0.88577500  0.63610500  0.05831400  1
  C  417  1  0.83670700  0.64162400  0.07625200  1
  C  418  1  0.81730300  0.64384800  0.08744100  1
  C  419  1  0.81733600  0.64532300  0.10738800  1
  C  420  1  0.83805900  0.64512300  0.11590900  1
  C  421  1  0.88418300  0.62444800  0.11480900  1
  C  422  1  0.89231200  0.63267600  0.13504800  1
  C  423  1  0.88105100  0.60261200  0.10191500  1
  C  424  1  0.88632100  0.58851600  0.10913400  1
  C  425  1  0.89404200  0.59759800  0.13002500  1
  C  426  1  0.89711800  0.61931800  0.14285000  1
  C  436  1  0.88033500  0.64161300  0.11037400  1
  C  437  1  0.88300400  0.56667700  0.09653600  1
  C  438  1  0.79796300  0.64707100  0.11857300  1
  C  439  1  0.94576000  0.62939100  0.06333100  1
  C  443  1  0.35750100  0.55263100  0.68500500  1
  C  444  1  0.35679000  0.57050200  0.68318100  1
  C  445  1  0.37798900  0.57584600  0.68082200  1
  C  446  1  0.39250600  0.56149400  0.68114300  1
  C  447  1  0.41514100  0.56313100  0.67860300  1
  C  448  1  0.42349100  0.57925800  0.67539000  1
  C  449  1  0.40826500  0.59391600  0.67573400  1
  C  450  1  0.38577500  0.59227200  0.67829400  1
  C  451  1  0.33670700  0.57985400  0.68381600  1
  C  452  1  0.31730400  0.57089100  0.68604500  1
  C  453  1  0.31733500  0.55241800  0.68751800  1
  C  454  1  0.33805800  0.54369700  0.68731700  1
  C  455  1  0.38721600  0.54463700  0.70242100  1
  C  456  1  0.40149700  0.53570800  0.73316900  1
  C  457  1  0.39428400  0.55629200  0.73959000  1
  C  458  1  0.38735200  0.56044200  0.72364000  1
  C  465  1  0.38033600  0.54572400  0.68380900  1
  C  466  1  0.39394100  0.57271500  0.76050100  1
  C  467  1  0.29796200  0.54297400  0.68925700  1
  C  468  1  0.44575900  0.58054300  0.67158500  1
  C  471  1  0.11028000  0.55259400  0.92431600  1
  C  472  1  0.11103700  0.57044600  0.94400700  1
  C  473  1  0.08985400  0.57589800  0.95168500  1
  C  474  1  0.07519500  0.56167300  0.93708300  1
  C  475  1  0.05251600  0.56384000  0.94129900  1
  C  476  1  0.04428300  0.58053700  0.96043000  1
  C  477  1  0.05982900  0.59463000  0.97481500  1
  C  478  1  0.08230100  0.59243000  0.97065400  1
  C  479  1  0.13112000  0.57982000  0.95270500  1
  C  480  1  0.15051800  0.57086400  0.94151400  1
  C  481  1  0.15047600  0.55239100  0.92157200  1
  C  482  1  0.12973700  0.54367600  0.91306100  1
  C  483  1  0.08057900  0.54465700  0.89892400  1
  C  484  1  0.06635400  0.53570600  0.85922100  1
  C  485  1  0.07356200  0.55629000  0.87338500  1
  C  486  1  0.08047800  0.56044800  0.89349000  1
  C  493  1  0.08738500  0.54578100  0.91866000  1
  C  494  1  0.07389400  0.57271300  0.86889400  1
  C  495  1  0.16986600  0.54297900  0.91039300  1
  C  496  1  0.02205200  0.58234600  0.96596200  1
  C  499  1  0.61028200  0.64276100  0.59478800  1
  C  500  1  0.61103800  0.64092500  0.61264200  1
  C  501  1  0.58985600  0.63869500  0.61809200  1
  C  502  1  0.57519500  0.63907400  0.60386700  1
  C  503  1  0.55251800  0.63702200  0.60603500  1
  C  504  1  0.54428000  0.63460400  0.62274000  1
  C  505  1  0.55982800  0.63429900  0.63682300  1
  C  506  1  0.58230200  0.63626000  0.63462600  1
  C  507  1  0.63112100  0.64159800  0.62201400  1
  C  508  1  0.65051800  0.64383100  0.61305600  1
  C  509  1  0.65047700  0.64530100  0.59458500  1
  C  510  1  0.62973700  0.64509400  0.58586900  1
  C  511  1  0.58354500  0.62443600  0.56636500  1
  C  512  1  0.57549400  0.63266800  0.55432800  1
  C  513  1  0.58674300  0.60260400  0.55739400  1
  C  514  1  0.58151400  0.58851400  0.53606600  1
  C  515  1  0.57380100  0.59760000  0.52425700  1
  C  516  1  0.57072900  0.61932000  0.53315600  1
  C  526  1  0.58738500  0.64160300  0.58797400  1
  C  527  1  0.58485600  0.56667600  0.52680000  1
  C  528  1  0.66986800  0.64706700  0.58517300  1
  C  529  1  0.52205300  0.63086300  0.62453900  1
  C  533  1  0.11050700  0.55280700  0.68513600  1
  C  534  1  0.11099300  0.57062800  0.68321400  1
  C  535  1  0.08981700  0.57582700  0.68071100  1
  C  536  1  0.07537400  0.56141600  0.68097100  1
  C  537  1  0.05271800  0.56309400  0.67853600  1
  C  538  1  0.04434000  0.57924200  0.67536200  1
  C  539  1  0.05953900  0.59392000  0.67571100  1
  C  540  1  0.08202100  0.59229300  0.67826300  1
  C  541  1  0.13087600  0.58024700  0.68390000  1
  C  542  1  0.15035200  0.57184000  0.68665500  1
  C  543  1  0.15065300  0.55377200  0.68879000  1
  C  544  1  0.13012000  0.54435300  0.68791600  1
  C  545  1  0.08059500  0.54481100  0.70235300  1
  C  546  1  0.06577300  0.53496400  0.73213200  1
  C  547  1  0.07287300  0.55573000  0.73911200  1
  C  548  1  0.08016600  0.56050300  0.72370100  1
  C  555  1  0.08767300  0.54575400  0.68371600  1
  C  556  1  0.07330500  0.57044200  0.76053100  1
  C  557  1  0.17052300  0.54514100  0.69071800  1
  C  558  1  0.02207300  0.58054400  0.67157900  1
  C  561  1  0.61050600  0.64294200  0.10461700  1
  C  562  1  0.61099400  0.64102100  0.08487500  1
  C  563  1  0.58981600  0.63851400  0.07717100  1
  C  564  1  0.57537200  0.63878300  0.09184600  1
  C  565  1  0.55271800  0.63634000  0.08772800  1
  C  566  1  0.54434000  0.63318100  0.06841200  1
  C  567  1  0.55954100  0.63352100  0.05407900  1
  C  568  1  0.58202400  0.63606800  0.05825800  1
  C  569  1  0.63087600  0.64170500  0.07594100  1
  C  570  1  0.65035200  0.64446100  0.08710400  1
  C  571  1  0.65065500  0.64659600  0.10730600  1
  C  572  1  0.63011900  0.64572200  0.11585200  1
  C  573  1  0.58402000  0.62431800  0.11473400  1
  C  574  1  0.57574600  0.63253600  0.13488300  1
  C  575  1  0.58757900  0.60250400  0.10222400  1
  C  576  1  0.58305200  0.58872800  0.11003700  1
  C  577  1  0.57450900  0.59787400  0.13062300  1
  C  578  1  0.57085900  0.61948500  0.14300300  1
  C  588  1  0.58767300  0.64152200  0.11025000  1
  C  589  1  0.58636800  0.56690100  0.09800100  1
  C  590  1  0.67052300  0.64852400  0.11786600  1
  C  591  1  0.52207300  0.62940100  0.06332700  1
  C  595  1  0.85741400  0.64290100  0.59497000  1
  C  596  1  0.85687600  0.64095700  0.61276700  1
  C  597  1  0.87803900  0.63858200  0.61807400  1
  C  598  1  0.89262600  0.63891000  0.60379600  1
  C  599  1  0.91532000  0.63693900  0.60598500  1
  C  600  1  0.92358500  0.63454800  0.62270300  1
  C  601  1  0.90807100  0.63427300  0.63682500  1
  C  602  1  0.88560300  0.63622200  0.63464400  1
  C  603  1  0.83699100  0.64168000  0.62240400  1
  C  604  1  0.81752300  0.64445400  0.61400700  1
  C  605  1  0.81723700  0.64658400  0.59593900  1
  C  606  1  0.83778900  0.64569900  0.58652500  1
  C  607  1  0.88394900  0.62430600  0.56630800  1
  C  608  1  0.89214900  0.63252800  0.55435200  1
  C  609  1  0.88031900  0.60249900  0.55697700  1
  C  610  1  0.88480400  0.58872900  0.53537500  1
  C  611  1  0.89333900  0.59787400  0.52393300  1
  C  612  1  0.89699100  0.61948500  0.53316800  1
  C  622  1  0.88030700  0.64151100  0.58800600  1
  C  623  1  0.88147800  0.56690000  0.52557600  1
  C  624  1  0.79735500  0.64852600  0.58732200  1
  C  625  1  0.94581800  0.63085300  0.62452000  1
  C  629  1  0.35741300  0.55277600  0.92435600  1
  C  630  1  0.35687600  0.57057500  0.94409700  1
  C  631  1  0.37803900  0.57587900  0.95178000  1
  C  632  1  0.39262700  0.56160300  0.93717000  1
  C  633  1  0.41532200  0.56380200  0.94133100  1
  C  634  1  0.42358700  0.58052600  0.96043600  1
  C  635  1  0.40806800  0.59463600  0.97484000  1
  C  636  1  0.38560100  0.59245100  0.97070900  1
  C  637  1  0.33699300  0.58021200  0.95301500  1
  C  638  1  0.31752500  0.57181400  0.94184700  1
  C  639  1  0.31723400  0.55374900  0.92164800  1
  C  640  1  0.33778500  0.54433300  0.91311700  1
  C  641  1  0.38731200  0.54483000  0.89916500  1
  C  642  1  0.40207300  0.53496300  0.85951300  1
  C  643  1  0.39497900  0.55573100  0.87330000  1
  C  644  1  0.38770400  0.56051000  0.89349200  1
  C  651  1  0.38030700  0.54581300  0.91878300  1
  C  652  1  0.39453900  0.57044000  0.86659000  1
  C  653  1  0.29734900  0.54513600  0.91109600  1
  C  654  1  0.44581700  0.58234300  0.96596100  1
  C  657  1  0.39315900  0.58733000  0.83225400  1
  C  658  1  0.39864100  0.56843200  0.83145200  1
  C  659  1  0.40394800  0.55152300  0.81163300  1
  C  661  1  0.39749000  0.57147300  0.79509100  1
  C  665  1  0.38202900  0.62314800  0.85293700  1
  C  671  1  0.07468400  0.58733300  0.81175700  1
  C  672  1  0.06917900  0.56844100  0.79366300  1
  C  673  1  0.06391100  0.55152100  0.79656800  1
  C  675  1  0.07036300  0.57147100  0.83306100  1
  C  679  1  0.08582200  0.62314800  0.82688600  1
  C  685  1  0.75702500  0.64837000  0.11527300  1
  C  686  1  0.74358100  0.63609700  0.12047300  1
  C  688  1  0.71069700  0.65056400  0.11515200  1
  C  692  1  0.24579000  0.56608300  0.70413800  1
  C  693  1  0.25702300  0.54758000  0.69056500  1
  C  694  1  0.21069600  0.54989500  0.69275900  1
  C  697  1  0.24909400  0.60236300  0.73057000  1
  C  703  1  0.22205800  0.56607500  0.91860700  1
  C  704  1  0.21080500  0.54756300  0.91363300  1
  C  705  1  0.25716000  0.54989400  0.91381400  1
  C  708  1  0.21875700  0.60236000  0.92847000  1
  C  714  1  0.71080800  0.64840900  0.58975800  1
  C  715  1  0.72427300  0.63610000  0.57230900  1
  C  717  1  0.75714500  0.65052500  0.59212100  1
  C  721  1  0.97649400  0.62940500  0.02333800  1
  C  722  1  0.96972500  0.61681500  0.03165400  1
  C  723  1  0.97772400  0.59619600  0.02132200  1
  C  725  1  0.99792700  0.60160100  0.99671400  1
  C  731  1  0.47649300  0.62055000  0.67160000  1
  C  732  1  0.46972400  0.59964300  0.65900900  1
  C  733  1  0.47772300  0.58935700  0.63839200  1
  C  735  1  0.49792800  0.61936900  0.64379600  1
  C  739  1  0.47445400  0.65163000  0.70544700  1
  C  743  1  0.99136800  0.62054600  0.67159800  1
  C  744  1  0.99805900  0.59960300  0.65904600  1
  C  745  1  0.99011100  0.58937600  0.63840200  1
  C  747  1  0.96993600  0.61939300  0.64383200  1
  C  751  1  0.99340200  0.65162800  0.70544900  1
  C  755  1  0.49135900  0.62940100  0.02335100  1
  C  756  1  0.49806600  0.61683100  0.03172000  1
  C  757  1  0.49011300  0.59619700  0.02132300  1
  C  759  1  0.46993200  0.60160600  0.99671500  1
  C  766  1  0.84282100  0.54752300  0.13964800  1
  C  776  1  0.62502900  0.54752600  0.46455700  1
  C  781  1  0.38418600  0.52412400  0.66664300  1
  C  782  1  0.39231300  0.51211300  0.67487200  1
  C  783  1  0.39415400  0.52451100  0.69658000  1
  C  784  1  0.40147000  0.51992100  0.71187500  1
  C  785  1  0.38105500  0.51518400  0.64480700  1
  C  791  1  0.08354500  0.52417200  0.91421800  1
  C  792  1  0.07549400  0.51213300  0.89394800  1
  C  793  1  0.07367000  0.52452400  0.88462900  1
  C  794  1  0.06638500  0.51992100  0.86473200  1
  C  795  1  0.08674400  0.51519900  0.92707800  1
  C  801  1  0.08402000  0.52406700  0.66651300  1
  C  802  1  0.07574800  0.51213700  0.67473200  1
  C  803  1  0.07369400  0.52459300  0.69624400  1
  C  804  1  0.06620300  0.51946000  0.71098300  1
  C  805  1  0.08757600  0.51476400  0.64469800  1
  C  811  1  0.38395000  0.52411700  0.91429100  1
  C  812  1  0.39214700  0.51215800  0.89411200  1
  C  813  1  0.39418500  0.52460500  0.88504700  1
  C  814  1  0.40164400  0.51946200  0.86516200  1
  C  815  1  0.38032100  0.51478900  0.92676900  1
  C  821  1  0.24358100  0.53010700  0.67829200  1
  C  824  1  0.22426700  0.53011900  0.90851600  1
  C  827  1  0.87008300  0.53143400  0.11276400  1
  C  828  1  0.88419000  0.53397500  0.09918700  1
  C  829  1  0.89729600  0.51639100  0.08641800  1
  C  832  1  0.87008000  0.51139900  0.45534000  1
  C  834  1  0.88190600  0.53454500  0.49053900  1
  C  837  1  0.84282900  0.52221500  0.43924900  1
  C  840  1  0.59777000  0.51140100  0.11273600  1
  C  842  1  0.58594400  0.53454600  0.10068300  1
  C  845  1  0.62502200  0.52221600  0.13964300  1
  C  848  1  0.59778600  0.53143000  0.47536600  1
  C  849  1  0.58372100  0.53395900  0.49151400  1
  C  850  1  0.57055600  0.51638800  0.48663600  1
  C  853  1  0.99792700  0.99005500  0.66156300  1
  C  854  1  0.46993600  0.99004400  0.66158600  1
  C  855  1  0.85749900  0.39194900  0.34396400  1
  C  856  1  0.85679100  0.37407700  0.34578600  1
  C  857  1  0.87798900  0.36873200  0.34814300  1
  C  858  1  0.89250600  0.38308800  0.34783100  1
  C  859  1  0.91514300  0.38144100  0.35035900  1
  C  860  1  0.92349100  0.36531000  0.35356800  1
  C  861  1  0.90826100  0.35065900  0.35323200  1
  C  862  1  0.88577200  0.35230600  0.35067200  1
  C  863  1  0.83670800  0.36472200  0.34514800  1
  C  864  1  0.81730300  0.37368700  0.34292800  1
  C  865  1  0.81733300  0.39216400  0.34146100  1
  C  866  1  0.83805500  0.40088400  0.34165600  1
  C  867  1  0.88418600  0.42045400  0.36232500  1
  C  868  1  0.89231300  0.43246300  0.35409300  1
  C  869  1  0.89415300  0.42006600  0.33238400  1
  C  870  1  0.88721500  0.39994000  0.32654400  1
  C  871  1  0.90147000  0.42465700  0.31709200  1
  C  872  1  0.90150100  0.40886800  0.29579600  1
  C  873  1  0.89429200  0.38828400  0.28937700  1
  C  874  1  0.88735500  0.38413500  0.30532600  1
  C  875  1  0.88105900  0.42939900  0.38416300  1
  C  876  1  0.88633700  0.45071400  0.39825500  1
  C  877  1  0.89405200  0.46251900  0.38916800  1
  C  878  1  0.89712700  0.45362200  0.36744800  1
  C  891  1  0.88033600  0.39885400  0.34515800  1
  C  892  1  0.89395300  0.37186000  0.26846500  1
  C  893  1  0.88296900  0.45999000  0.42008600  1
  C  894  1  0.79795500  0.40158900  0.33970100  1
  C  895  1  0.94575800  0.36401400  0.35737000  1
  C  900  1  0.35749900  0.30177400  0.92430500  1
  C  901  1  0.35679000  0.30359100  0.94399600  1
  C  902  1  0.37798900  0.30594700  0.95169900  1
  C  903  1  0.39250600  0.30563800  0.93703100  1
  C  904  1  0.41514100  0.30816900  0.94120600  1
  C  905  1  0.42349000  0.31138500  0.96054800  1
  C  906  1  0.40826200  0.31104100  0.97486100  1
  C  907  1  0.38577300  0.30847200  0.97065100  1
  C  908  1  0.33670700  0.30295300  0.95271400  1
  C  909  1  0.31730400  0.30073400  0.94152700  1
  C  910  1  0.31733500  0.29926500  0.92158200  1
  C  911  1  0.33805700  0.29945900  0.91305800  1
  C  912  1  0.38418400  0.32013000  0.91415800  1
  C  913  1  0.39231000  0.31190000  0.89391700  1
  C  914  1  0.39414700  0.29019000  0.88460500  1
  C  915  1  0.38721400  0.28435000  0.89889200  1
  C  916  1  0.40147000  0.27489800  0.86472200  1
  C  917  1  0.40150200  0.25360400  0.85921700  1
  C  918  1  0.39429200  0.24718400  0.87338100  1
  C  919  1  0.38735500  0.26313300  0.89347900  1
  C  920  1  0.38105800  0.34196700  0.92705300  1
  C  921  1  0.38632900  0.35606200  0.91983200  1
  C  922  1  0.39404800  0.34697700  0.89894100  1
  C  923  1  0.39712100  0.32525800  0.88611500  1
  C  936  1  0.38033600  0.30296300  0.91859100  1
  C  937  1  0.39395400  0.22627100  0.86889300  1
  C  938  1  0.38299700  0.37789900  0.93241200  1
  C  939  1  0.29795900  0.29751000  0.91039700  1
  C  940  1  0.44575700  0.31519500  0.96564700  1
  C  945  1  0.38631600  0.49386800  0.63071600  1
  C  946  1  0.39404500  0.48206000  0.63979600  1
  C  947  1  0.39712500  0.49095400  0.66151400  1
  C  950  1  0.38298000  0.48461500  0.60888200  1
  C  952  1  0.35749900  0.06246500  0.43414700  1
  C  953  1  0.35679000  0.04277300  0.41627200  1
  C  954  1  0.37798900  0.03507400  0.41092500  1
  C  955  1  0.39250600  0.04973800  0.42528500  1
  C  956  1  0.41514300  0.04556900  0.42362900  1
  C  957  1  0.42349000  0.02622600  0.40750400  1
  C  958  1  0.40826000  0.01191000  0.39285400  1
  C  959  1  0.38577100  0.01611800  0.39449800  1
  C  960  1  0.33670900  0.03405600  0.40691600  1
  C  961  1  0.31730400  0.04524300  0.41588400  1
  C  962  1  0.31733300  0.06518600  0.43436100  1
  C  963  1  0.33805500  0.07371100  0.44307800  1
  C  964  1  0.38418600  0.07261300  0.46265100  1
  C  965  1  0.39231400  0.09285300  0.47466000  1
  C  966  1  0.39415400  0.10216400  0.46226100  1
  C  967  1  0.38721200  0.08787800  0.44213500  1
  C  968  1  0.40147000  0.12204700  0.46685000  1
  C  969  1  0.40149700  0.12755300  0.45106200  1
  C  970  1  0.39428200  0.11338900  0.43048100  1
  C  971  1  0.38734900  0.09329000  0.42632900  1
  C  972  1  0.38105600  0.05972100  0.47159700  1
  C  973  1  0.38632600  0.06694600  0.49291500  1
  C  974  1  0.39405000  0.08783500  0.50471700  1
  C  975  1  0.39712200  0.10065800  0.49582000  1
  C  988  1  0.38033600  0.06817800  0.44105100  1
  C  989  1  0.39394300  0.11788500  0.41406500  1
  C  990  1  0.38299500  0.05436600  0.50217400  1
  C  991  1  0.29795400  0.07637000  0.44378200  1
  C  992  1  0.44575700  0.02112700  0.40621000  1
  C  997  1  0.08152000  0.49386800  0.91983600  1
  C  998  1  0.07380300  0.48206200  0.89894400  1
  C  999  1  0.07072900  0.49096000  0.88612300  1
  C  1002  1  0.08485000  0.48461100  0.93241800  1
  C  1004  1  0.11028000  0.06245600  0.68495600  1
  C  1005  1  0.11103700  0.04276400  0.68311600  1
  C  1006  1  0.08985400  0.03508600  0.68089100  1
  C  1007  1  0.07519500  0.04968900  0.68127000  1
  C  1008  1  0.05251600  0.04547200  0.67922000  1
  C  1009  1  0.04428300  0.02634100  0.67678400  1
  C  1010  1  0.05982900  0.01195600  0.67649200  1
  C  1011  1  0.08230100  0.01611700  0.67845400  1
  C  1012  1  0.13112000  0.03406600  0.68379300  1
  C  1013  1  0.15051800  0.04525700  0.68602600  1
  C  1014  1  0.15047600  0.06519800  0.68749400  1
  C  1015  1  0.12973700  0.07370900  0.68728900  1
  C  1016  1  0.08354200  0.07255300  0.66663100  1
  C  1017  1  0.07549100  0.09282200  0.67486300  1
  C  1018  1  0.07366800  0.10214200  0.69657300  1
  C  1019  1  0.08058000  0.08784800  0.70241200  1
  C  1020  1  0.06638300  0.12203900  0.71186800  1
  C  1021  1  0.06635900  0.12754700  0.73316300  1
  C  1022  1  0.07357800  0.11338800  0.73958600  1
  C  1023  1  0.08047900  0.09327900  0.72363400  1
  C  1024  1  0.08674100  0.05969100  0.64479900  1
  C  1025  1  0.08151500  0.06693300  0.63071100  1
  C  1026  1  0.07380000  0.08782600  0.63979600  1
  C  1027  1  0.07072400  0.10064600  0.66151400  1
  C  1040  1  0.08738500  0.06811200  0.68379800  1
  C  1041  1  0.07390900  0.11787500  0.76049700  1
  C  1042  1  0.08486800  0.05436900  0.60887700  1
  C  1043  1  0.16986800  0.07637800  0.68926200  1
  C  1044  1  0.02205200  0.02080800  0.67305900  1
  C  1049  1  0.11028000  0.30181500  0.43417700  1
  C  1050  1  0.11103700  0.30365100  0.41632300  1
  C  1051  1  0.08985400  0.30587900  0.41087100  1
  C  1052  1  0.07519500  0.30550400  0.42509800  1
  C  1053  1  0.05251600  0.30755300  0.42292900  1
  C  1054  1  0.04427800  0.30996800  0.40622300  1
  C  1055  1  0.05982900  0.31028200  0.39214400  1
  C  1056  1  0.08230100  0.30831800  0.39434100  1
  C  1057  1  0.13112200  0.30297700  0.40694900  1
  C  1058  1  0.15051800  0.30074100  0.41590600  1
  C  1059  1  0.15047400  0.29926600  0.43437500  1
  C  1060  1  0.12973600  0.29947800  0.44309400  1
  C  1061  1  0.08354500  0.32014000  0.46260100  1
  C  1062  1  0.07549300  0.31190900  0.47463800  1
  C  1063  1  0.07366800  0.29019900  0.46224800  1
  C  1064  1  0.08057900  0.28436000  0.44211300  1
  C  1065  1  0.06638500  0.27490500  0.46685000  1
  C  1066  1  0.06635700  0.25360900  0.45106300  1
  C  1067  1  0.07357200  0.24718700  0.43048000  1
  C  1068  1  0.08048100  0.26313800  0.42632300  1
  C  1069  1  0.08674800  0.34197000  0.47157000  1
  C  1070  1  0.08152200  0.35606300  0.49290000  1
  C  1071  1  0.07380900  0.34697800  0.50470900  1
  C  1072  1  0.07073200  0.32525800  0.49581100  1
  C  1085  1  0.08738500  0.30297300  0.44099100  1
  C  1086  1  0.07390200  0.22627300  0.41405300  1
  C  1087  1  0.08485000  0.37790000  0.50214800  1
  C  1088  1  0.16986300  0.29750500  0.44379400  1
  C  1089  1  0.02205200  0.31371800  0.40442500  1
  C  1094  1  0.61028200  0.39198000  0.10465200  1
  C  1095  1  0.61103800  0.37413100  0.08495900  1
  C  1096  1  0.58985600  0.36867800  0.07727800  1
  C  1097  1  0.57519700  0.38290500  0.09188300  1
  C  1098  1  0.55251800  0.38074300  0.08766400  1
  C  1099  1  0.54428500  0.36405400  0.06853000  1
  C  1100  1  0.55982700  0.34995500  0.05414700  1
  C  1101  1  0.58230100  0.35214600  0.05830900  1
  C  1102  1  0.63112000  0.36475400  0.07625900  1
  C  1103  1  0.65051800  0.37371100  0.08744900  1
  C  1104  1  0.65047900  0.39218600  0.10739000  1
  C  1105  1  0.62974000  0.40090300  0.11590100  1
  C  1106  1  0.58354300  0.42040600  0.11474800  1
  C  1107  1  0.57549100  0.43244000  0.13501600  1
  C  1108  1  0.57366800  0.42005200  0.14433600  1
  C  1109  1  0.58057800  0.39991800  0.13004100  1
  C  1110  1  0.56638500  0.42465400  0.16423200  1
  C  1111  1  0.56635700  0.40886800  0.16974200  1
  C  1112  1  0.57356800  0.38828500  0.15558000  1
  C  1113  1  0.58047900  0.38412700  0.13547200  1
  C  1114  1  0.58674100  0.42937800  0.10188700  1
  C  1115  1  0.58150500  0.45070800  0.10913000  1
  C  1116  1  0.57379900  0.46251500  0.13002500  1
  C  1117  1  0.57072200  0.45361300  0.14284200  1
  C  1130  1  0.58738700  0.39879700  0.11030600  1
  C  1131  1  0.57389900  0.37186600  0.16007200  1
  C  1132  1  0.58488500  0.45999000  0.09658000  1
  C  1133  1  0.66987100  0.40159300  0.11856800  1
  C  1134  1  0.52205300  0.36224700  0.06300100  1
  C  1139  1  0.11050500  0.30163400  0.92434600  1
  C  1140  1  0.11099400  0.30355700  0.94409000  1
  C  1141  1  0.08981700  0.30605900  0.95179200  1
  C  1142  1  0.07537400  0.30579400  0.93711900  1
  C  1143  1  0.05272100  0.30824700  0.94123900  1
  C  1144  1  0.04434200  0.31140800  0.96055500  1
  C  1145  1  0.05953900  0.31105600  0.97488400  1
  C  1146  1  0.08202300  0.30851200  0.97070800  1
  C  1147  1  0.13087800  0.30287200  0.95302200  1
  C  1148  1  0.15035400  0.30011200  0.94185500  1
  C  1149  1  0.15065200  0.29798000  0.92165200  1
  C  1150  1  0.13011600  0.29885400  0.91311000  1
  C  1151  1  0.08402000  0.32025900  0.91423100  1
  C  1152  1  0.07574700  0.31204000  0.89408200  1
  C  1153  1  0.07369200  0.29052700  0.88502500  1
  C  1154  1  0.08059200  0.28441800  0.89913500  1
  C  1155  1  0.06620300  0.27578800  0.86515500  1
  C  1156  1  0.06576800  0.25463900  0.85951000  1
  C  1157  1  0.07286800  0.24765900  0.87329700  1
  C  1158  1  0.08016100  0.26307100  0.89348100  1
  C  1159  1  0.08757700  0.34207300  0.92674200  1
  C  1160  1  0.08305200  0.35584700  0.91892700  1
  C  1161  1  0.07450900  0.34670400  0.89834300  1
  C  1162  1  0.07085700  0.32509100  0.88596200  1
  C  1175  1  0.08767100  0.30305500  0.91871500  1
  C  1176  1  0.07331700  0.22624000  0.86658300  1
  C  1177  1  0.08636500  0.37767500  0.93096600  1
  C  1178  1  0.17051700  0.29604900  0.91108700  1
  C  1179  1  0.02207400  0.31518700  0.96563800  1
  C  1184  1  0.08305200  0.49317500  0.63092400  1
  C  1185  1  0.07450900  0.48173500  0.64006800  1
  C  1186  1  0.07085700  0.49096500  0.66167900  1
  C  1189  1  0.08636400  0.48338700  0.60909600  1
  C  1191  1  0.11050700  0.06242400  0.43396400  1
  C  1192  1  0.11099300  0.04268100  0.41614200  1
  C  1193  1  0.08981700  0.03497800  0.41094300  1
  C  1194  1  0.07537400  0.04965000  0.42535600  1
  C  1195  1  0.05272100  0.04553500  0.42368400  1
  C  1196  1  0.04433900  0.02622000  0.40752700  1
  C  1197  1  0.05953600  0.01188800  0.39285000  1
  C  1198  1  0.08202100  0.01606200  0.39448100  1
  C  1199  1  0.13087600  0.03374700  0.40652500  1
  C  1200  1  0.15035200  0.04491000  0.41492900  1
  C  1201  1  0.15065500  0.06510800  0.43300400  1
  C  1202  1  0.13012000  0.07365900  0.44241800  1
  C  1203  1  0.08402000  0.07254100  0.46270400  1
  C  1204  1  0.07574700  0.09269000  0.47463600  1
  C  1205  1  0.07369100  0.10174500  0.46217900  1
  C  1206  1  0.08058800  0.08763500  0.44196100  1
  C  1207  1  0.06619800  0.12161500  0.46731000  1
  C  1208  1  0.06576700  0.12726000  0.45180600  1
  C  1209  1  0.07287100  0.11347500  0.43104100  1
  C  1210  1  0.08015900  0.09329000  0.42626700  1
  C  1211  1  0.08757600  0.06002600  0.47200300  1
  C  1212  1  0.08305100  0.06783700  0.49359100  1
  C  1213  1  0.07451000  0.08842300  0.50503500  1
  C  1214  1  0.07085700  0.10080600  0.49580700  1
  C  1227  1  0.08767300  0.06805600  0.44101600  1
  C  1228  1  0.07333300  0.12019100  0.41633800  1
  C  1229  1  0.08636400  0.05578800  0.50336800  1
  C  1230  1  0.17052500  0.07567100  0.44162800  1
  C  1231  1  0.02207000  0.02114200  0.40623000  1
  C  1236  1  0.61050600  0.39176900  0.34382700  1
  C  1237  1  0.61099400  0.37395000  0.34575100  1
  C  1238  1  0.58981600  0.36875000  0.34825500  1
  C  1239  1  0.57537400  0.38316100  0.34799500  1
  C  1240  1  0.55272100  0.38148900  0.35044000  1
  C  1241  1  0.54434000  0.36533200  0.35359700  1
  C  1242  1  0.55954100  0.35065600  0.35325400  1
  C  1243  1  0.58202300  0.35228300  0.35070000  1
  C  1244  1  0.63087700  0.36433100  0.34506600  1
  C  1245  1  0.65035400  0.37273700  0.34231000  1
  C  1246  1  0.65065500  0.39080500  0.34017500  1
  C  1247  1  0.63011900  0.40022400  0.34104900  1
  C  1248  1  0.58402200  0.42050900  0.36245200  1
  C  1249  1  0.57574800  0.43244200  0.35423400  1
  C  1250  1  0.57369200  0.41998400  0.33272200  1
  C  1251  1  0.58059000  0.39976600  0.32661300  1
  C  1252  1  0.56619800  0.42511500  0.31798300  1
  C  1253  1  0.56577100  0.40961100  0.29683200  1
  C  1254  1  0.57287100  0.38884600  0.28985500  1
  C  1255  1  0.58016400  0.38407300  0.30526600  1
  C  1256  1  0.58757700  0.42980900  0.38426500  1
  C  1257  1  0.58305500  0.45139700  0.39804200  1
  C  1258  1  0.57451000  0.46284100  0.38890000  1
  C  1259  1  0.57085700  0.45361200  0.36728900  1
  C  1272  1  0.58767300  0.39882200  0.34524800  1
  C  1273  1  0.57332900  0.37414100  0.26843500  1
  C  1274  1  0.58636400  0.46117500  0.41986900  1
  C  1275  1  0.67052500  0.39943500  0.33824600  1
  C  1276  1  0.52207400  0.36403000  0.35738100  1
  C  1281  1  0.85741200  0.39180100  0.10461000  1
  C  1282  1  0.85687500  0.37400300  0.08486700  1
  C  1283  1  0.87803800  0.36869600  0.07718700  1
  C  1284  1  0.89262600  0.38297300  0.09179500  1
  C  1285  1  0.91532100  0.38077600  0.08763600  1
  C  1286  1  0.92358400  0.36405100  0.06853000  1
  C  1287  1  0.90806600  0.34994000  0.05412700  1
  C  1288  1  0.88560000  0.35212400  0.05825800  1
  C  1289  1  0.83699300  0.36436400  0.07595100  1
  C  1290  1  0.81752300  0.37276100  0.08711700  1
  C  1291  1  0.81723300  0.39082800  0.10731800  1
  C  1292  1  0.83778400  0.40024300  0.11584800  1
  C  1293  1  0.88394600  0.42046200  0.11467600  1
  C  1294  1  0.89214800  0.43241800  0.13485200  1
  C  1295  1  0.89418800  0.41997000  0.14391700  1
  C  1296  1  0.88731300  0.39974700  0.12979900  1
  C  1297  1  0.90164600  0.42511300  0.16380100  1
  C  1298  1  0.90207400  0.40961100  0.16945000  1
  C  1299  1  0.89498600  0.38884200  0.15566000  1
  C  1300  1  0.88770400  0.38406600  0.13547200  1
  C  1301  1  0.88032200  0.42979200  0.10219800  1
  C  1302  1  0.88480400  0.45139400  0.11003000  1
  C  1303  1  0.89333900  0.46283800  0.13061800  1
  C  1304  1  0.89699200  0.45360300  0.14299400  1
  C  1317  1  0.88030600  0.39876500  0.11018300  1
  C  1318  1  0.89452000  0.37414100  0.16237900  1
  C  1319  1  0.88147900  0.46119000  0.09799700  1
  C  1320  1  0.79734700  0.39944000  0.11786900  1
  C  1321  1  0.94580700  0.36225000  0.06299300  1
  C  1326  1  0.38480400  0.49318700  0.91893900  1
  C  1327  1  0.39333700  0.48174100  0.89835200  1
  C  1328  1  0.39699000  0.49097400  0.88597300  1
  C  1331  1  0.38148200  0.48340100  0.93098100  1
  C  1333  1  0.35741300  0.06241400  0.68509700  1
  C  1334  1  0.35687600  0.04267200  0.68315100  1
  C  1335  1  0.37803900  0.03499000  0.68077600  1
  C  1336  1  0.39262500  0.04959800  0.68110500  1
  C  1337  1  0.41532000  0.04543600  0.67913400  1
  C  1338  1  0.42358400  0.02632900  0.67674200  1
  C  1339  1  0.40807000  0.01192900  0.67646500  1
  C  1340  1  0.38560200  0.01606000  0.67841600  1
  C  1341  1  0.33699200  0.03375900  0.68387600  1
  C  1342  1  0.31752300  0.04492800  0.68664600  1
  C  1343  1  0.31723500  0.06512500  0.68877300  1
  C  1344  1  0.33778800  0.07365700  0.68789600  1
  C  1345  1  0.38395000  0.07248000  0.66650000  1
  C  1346  1  0.39214900  0.09265800  0.67472200  1
  C  1347  1  0.39418600  0.10172200  0.69623400  1
  C  1348  1  0.38731600  0.08760300  0.70234000  1
  C  1349  1  0.40164700  0.12160600  0.71097600  1
  C  1350  1  0.40207300  0.12725600  0.73212700  1
  C  1351  1  0.39497200  0.11347200  0.73910800  1
  C  1352  1  0.38770500  0.09327800  0.72369400  1
  C  1353  1  0.38032100  0.06000300  0.64469300  1
  C  1354  1  0.38480400  0.06783600  0.63092200  1
  C  1355  1  0.39333900  0.08842400  0.64006900  1
  C  1356  1  0.39699200  0.10080000  0.66167900  1
  C  1369  1  0.38030700  0.06798800  0.68370500  1
  C  1370  1  0.39451300  0.12018900  0.76052700  1
  C  1371  1  0.38147900  0.05580700  0.60909400  1
  C  1372  1  0.29735500  0.07568500  0.69071700  1
  C  1373  1  0.44581700  0.02081500  0.67304700  1
  C  1378  1  0.35741300  0.30167500  0.43399500  1
  C  1379  1  0.35687600  0.30362000  0.41619700  1
  C  1380  1  0.37803900  0.30599600  0.41089200  1
  C  1381  1  0.39262700  0.30566500  0.42516900  1
  C  1382  1  0.41532200  0.30762600  0.42297200  1
  C  1383  1  0.42358600  0.31000900  0.40624900  1
  C  1384  1  0.40806800  0.31029900  0.39213600  1
  C  1385  1  0.38560200  0.30835200  0.39431900  1
  C  1386  1  0.33699300  0.30289700  0.40655900  1
  C  1387  1  0.31752300  0.30012700  0.41495600  1
  C  1388  1  0.31723400  0.29799300  0.43302200  1
  C  1389  1  0.33778500  0.29887800  0.44243800  1
  C  1390  1  0.38395000  0.32027000  0.46265600  1
  C  1391  1  0.39214900  0.31204800  0.47461200  1
  C  1392  1  0.39418600  0.29053600  0.46216500  1
  C  1393  1  0.38731300  0.28443000  0.44194100  1
  C  1394  1  0.40164400  0.27579400  0.46730800  1
  C  1395  1  0.40207300  0.25464400  0.45180600  1
  C  1396  1  0.39498700  0.24766400  0.43103500  1
  C  1397  1  0.38771000  0.26307700  0.42625900  1
  C  1398  1  0.38032000  0.34207700  0.47198700  1
  C  1399  1  0.38480400  0.35584700  0.49358800  1
  C  1400  1  0.39333900  0.34670200  0.50503200  1
  C  1401  1  0.39699000  0.32509100  0.49579700  1
  C  1414  1  0.38030700  0.30306500  0.44095900  1
  C  1415  1  0.39453500  0.22624500  0.41633200  1
  C  1416  1  0.38147900  0.37767500  0.50338500  1
  C  1417  1  0.29734900  0.29605400  0.44163500  1
  C  1418  1  0.44581700  0.31370700  0.40442900  1
  C  1423  1  0.89316000  0.35724600  0.19671300  1
  C  1424  1  0.89863400  0.37614900  0.19751900  1
  C  1425  1  0.90393900  0.39305800  0.21733700  1
  C  1427  1  0.89749900  0.37310200  0.23387600  1
  C  1431  1  0.88202800  0.32142900  0.17602700  1
  C  1437  1  0.39316700  0.15451600  0.81175600  1
  C  1438  1  0.39867200  0.15531400  0.79366200  1
  C  1439  1  0.40395000  0.17514000  0.79657100  1
  C  1441  1  0.39748200  0.19168100  0.83305900  1
  C  1445  1  0.38202700  0.13383300  0.82688700  1
  C  1451  1  0.39316200  0.17501600  0.39944000  1
  C  1452  1  0.39863500  0.19311500  0.41834300  1
  C  1453  1  0.40393900  0.19020400  0.43525100  1
  C  1455  1  0.39749000  0.15371300  0.41530300  1
  C  1459  1  0.38202900  0.15988500  0.36362300  1
  C  1465  1  0.07468100  0.17501300  0.83225300  1
  C  1466  1  0.06917600  0.19310800  0.83145400  1
  C  1467  1  0.06390000  0.19019900  0.81163000  1
  C  1469  1  0.07038400  0.15371200  0.79508700  1
  C  1473  1  0.08582200  0.15988400  0.85293800  1
  C  1479  1  0.07468900  0.15451900  0.39943800  1
  C  1480  1  0.06920800  0.15532400  0.41833900  1
  C  1481  1  0.06390000  0.17514100  0.43524800  1
  C  1483  1  0.07036300  0.19168300  0.41529700  1
  C  1487  1  0.08582200  0.13383400  0.36362200  1
  C  1493  1  0.57468900  0.35724400  0.21720600  1
  C  1494  1  0.56921600  0.37614800  0.23530500  1
  C  1495  1  0.56390900  0.39305600  0.23239500  1
  C  1497  1  0.57036000  0.37310700  0.19590300  1
  C  1501  1  0.58582200  0.32142800  0.20207700  1
  C  1507  1  0.74579600  0.37850200  0.32482300  1
  C  1508  1  0.75704300  0.39703100  0.33832900  1
  C  1509  1  0.74358100  0.41445900  0.35069800  1
  C  1511  1  0.71069900  0.39468300  0.33620600  1
  C  1515  1  0.74909300  0.34221500  0.29839800  1
  C  1521  1  0.24579600  0.28261900  0.91860400  1
  C  1522  1  0.25703500  0.29616600  0.91363600  1
  C  1523  1  0.24357400  0.30847900  0.90849700  1
  C  1525  1  0.21071200  0.29405100  0.91388300  1
  C  1529  1  0.24909800  0.25620100  0.92846900  1
  C  1535  1  0.24579600  0.06816300  0.42069800  1
  C  1536  1  0.25704100  0.07318500  0.43922700  1
  C  1537  1  0.24358100  0.07824500  0.45665300  1
  C  1539  1  0.21069800  0.07296100  0.43687800  1
  C  1543  1  0.24909300  0.05830100  0.38441100  1
  C  1549  1  0.22205200  0.06816600  0.70415100  1
  C  1550  1  0.21080700  0.07313300  0.69060300  1
  C  1551  1  0.22427200  0.07827400  0.67829500  1
  C  1553  1  0.25714500  0.07288800  0.69272000  1
  C  1557  1  0.21875200  0.05830200  0.73057000  1
  C  1563  1  0.22205800  0.28263500  0.42068900  1
  C  1564  1  0.21081800  0.29620800  0.43919100  1
  C  1565  1  0.22426700  0.30847900  0.45666200  1
  C  1567  1  0.25716000  0.29401500  0.43687700  1
  C  1571  1  0.21875500  0.25620300  0.38441000  1
  C  1577  1  0.72205300  0.37850400  0.11035500  1
  C  1578  1  0.71080000  0.39703100  0.11537700  1
  C  1579  1  0.72426700  0.41445500  0.12043600  1
  C  1581  1  0.75715800  0.39468300  0.11515200  1
  C  1585  1  0.71875600  0.34221700  0.10049500  1
  C  1591  1  0.97648800  0.32404600  0.35737200  1
  C  1592  1  0.96977600  0.34498400  0.36994200  1
  C  1593  1  0.97773400  0.35522000  0.39057300  1
  C  1595  1  0.99792400  0.32520500  0.38516500  1
  C  1599  1  0.97445000  0.29295300  0.32352300  1
  C  1606  1  0.47648000  0.31517400  0.00562500  1
  C  1607  1  0.46978400  0.32772600  0.99723400  1
  C  1608  1  0.47773600  0.34836900  0.00765100  1
  C  1610  1  0.49792000  0.34294000  0.03223600  1
  C  1614  1  0.47444700  0.28132300  0.00285500  1
  C  1623  1  0.99136100  0.31517900  0.00562900  1
  C  1624  1  0.99806200  0.32772000  0.99723000  1
  C  1625  1  0.99013200  0.34836600  0.00764000  1
  C  1627  1  0.96993700  0.34297600  0.03225400  1
  C  1631  1  0.99339600  0.28132600  0.00286100  1
  C  1640  1  0.49135900  0.32403400  0.35737400  1
  C  1641  1  0.49806200  0.34497400  0.36991600  1
  C  1642  1  0.49012600  0.35521000  0.39056300  1
  C  1644  1  0.46992900  0.32520600  0.38516800  1
  C  1648  1  0.49339500  0.29294900  0.32352200  1
  C  1656  1  0.88190900  0.49623200  0.10068600  1
  C  1658  1  0.88408500  0.49521500  0.45283700  1
  C  1659  1  0.89732000  0.50014000  0.47037100  1
  C  1662  1  0.37006300  0.41314600  0.91622500  1
  C  1663  1  0.38413000  0.41061600  0.92984300  1
  C  1664  1  0.39729300  0.42818700  0.94253500  1
  C  1666  1  0.38195100  0.44829200  0.92820800  1
  C  1670  1  0.34282200  0.39705100  0.88932100  1
  C  1676  1  0.37008300  0.43315100  0.57362500  1
  C  1677  1  0.38419000  0.44926900  0.57616500  1
  C  1678  1  0.39729800  0.44445500  0.55858300  1
  C  1680  1  0.38191000  0.41002700  0.53842300  1
  C  1684  1  0.34282100  0.42235700  0.58971500  1
  C  1690  1  0.37008100  0.07054400  0.55359200  1
  C  1691  1  0.38408500  0.05686300  0.53740800  1
  C  1692  1  0.39731700  0.04425300  0.54233400  1
  C  1694  1  0.38190400  0.05849000  0.57674000  1
  C  1698  1  0.34282900  0.09744900  0.56440800  1
  C  1704  1  0.09777800  0.43316600  0.91622300  1
  C  1705  1  0.08372600  0.44932500  0.92984700  1
  C  1706  1  0.07054400  0.44444200  0.94252300  1
  C  1708  1  0.08594100  0.41002900  0.92828000  1
  C  1712  1  0.12502400  0.42235900  0.88932000  1
  C  1718  1  0.09778600  0.07054400  0.57362200  1
  C  1719  1  0.08371900  0.05692600  0.57615100  1
  C  1720  1  0.07055700  0.04423500  0.55858200  1
  C  1722  1  0.08589700  0.05856200  0.53847700  1
  C  1726  1  0.12502700  0.09745100  0.58972000  1
  C  1732  1  0.09776700  0.41314300  0.55362000  1
  C  1733  1  0.08365900  0.41060300  0.53750100  1
  C  1734  1  0.07055500  0.42818600  0.54231600  1
  C  1736  1  0.08593900  0.44834600  0.57674400  1
  C  1740  1  0.12502900  0.39705500  0.56441500  1
  C  1746  1  0.58376600  0.49521600  0.09905500  1
  C  1747  1  0.57053000  0.50014000  0.08644500  1
  C  1751  1  0.58589700  0.49628300  0.45220300  1
  N  228  1  0.90305700  0.75206600  0.21320100  1
  N  230  1  0.89268800  0.77192500  0.19827500  1
  N  237  1  0.89567700  0.73540500  0.17767000  1
  N  238  1  0.89759000  0.80499800  0.25488900  1
  N  242  1  0.90304800  0.77356800  0.59554200  1
  N  244  1  0.89267900  0.78849600  0.63032600  1
  N  251  1  0.89568100  0.80909600  0.61440100  1
  N  252  1  0.89760900  0.73188100  0.60678900  1
  N  256  1  0.56480400  0.77357200  0.23470600  1
  N  258  1  0.57517200  0.78849900  0.21484700  1
  N  265  1  0.57216800  0.80909000  0.25138600  1
  N  266  1  0.57023900  0.73188600  0.18177200  1
  N  270  1  0.56480500  0.75206300  0.59554000  1
  N  272  1  0.57517500  0.77192200  0.63032600  1
  N  279  1  0.57217600  0.73539000  0.61438900  1
  N  280  1  0.57024600  0.80499600  0.60678800  1
  N  282  1  0.72353700  0.66229800  0.11004900  1
  N  291  1  0.72130200  0.86688700  0.57402300  1
  N  293  1  0.72353800  0.87672600  0.60892500  1
  N  300  1  0.68935700  0.87613800  0.59568400  1
  N  301  1  0.77868100  0.87536800  0.59186600  1
  N  305  1  0.74654900  0.86688900  0.34954000  1
  N  307  1  0.74431400  0.87672700  0.32448100  1
  N  314  1  0.77851000  0.87613400  0.33713500  1
  N  315  1  0.68915200  0.87536300  0.34017800  1
  N  317  1  0.74430600  0.66229500  0.60894100  1
  N  330  1  0.99164900  0.98193000  0.64134900  1
  N  331  1  0.99082100  0.97986900  0.67153800  1
  N  338  1  0.95247000  0.94231100  0.63480700  1
  N  344  1  0.49165200  0.96264500  0.38761700  1
  N  346  1  0.49081100  0.96471400  0.35743100  1
  N  351  1  0.51546800  0.94223900  0.36062300  1
  N  357  1  0.97619100  0.96265400  0.38762400  1
  N  359  1  0.97702600  0.96471100  0.35742600  1
  N  364  1  0.95239400  0.94222700  0.36060900  1
  N  372  1  0.47618300  0.98193900  0.64136300  1
  N  373  1  0.47704500  0.97986600  0.67155800  1
  N  380  1  0.51536200  0.94230800  0.63479700  1
  N  384  1  0.89607900  0.89899900  0.46745700  1
  N  386  1  0.86974900  0.87340300  0.45656100  1
  N  393  1  0.88318500  0.88101600  0.43209100  1
  N  394  1  0.88675100  0.88351400  0.50725000  1
  N  398  1  0.57177100  0.89899800  0.48821900  1
  N  400  1  0.59810200  0.87340300  0.47351900  1
  N  407  1  0.58466600  0.88101700  0.50560100  1
  N  408  1  0.58109900  0.88351400  0.43293900  1
  N  660  1  0.40305400  0.55334700  0.79426000  1
  N  662  1  0.39268500  0.58813300  0.81412000  1
  N  669  1  0.39567500  0.57221100  0.77759600  1
  N  670  1  0.39760200  0.56459400  0.84719600  1
  N  674  1  0.06480100  0.55334500  0.81576400  1
  N  676  1  0.07517100  0.58812900  0.83068900  1
  N  683  1  0.07217000  0.57221700  0.85129800  1
  N  684  1  0.07023100  0.56459800  0.77408000  1
  N  687  1  0.72130200  0.63723900  0.11989500  1
  N  690  1  0.68935700  0.64964200  0.11063500  1
  N  691  1  0.77868200  0.64659500  0.11141300  1
  N  695  1  0.22353700  0.56673300  0.70449300  1
  N  701  1  0.18935700  0.55349000  0.69183600  1
  N  702  1  0.27868200  0.54966400  0.68878500  1
  N  706  1  0.24431300  0.56672900  0.91892100  1
  N  712  1  0.27851000  0.55348200  0.91832600  1
  N  713  1  0.18915100  0.54966900  0.91755700  1
  N  716  1  0.74655400  0.63723100  0.57403000  1
  N  719  1  0.77851500  0.64962800  0.59565700  1
  N  720  1  0.68915400  0.64659100  0.59186000  1
  N  724  1  0.99166200  0.58951400  0.00484900  1
  N  726  1  0.99082700  0.62176600  0.00690600  1
  N  729  1  0.01547100  0.59610100  0.98442500  1
  N  730  1  0.95248100  0.62259600  0.04447500  1
  N  734  1  0.49166200  0.59914700  0.63170800  1
  N  736  1  0.49082700  0.62934400  0.66396100  1
  N  741  1  0.51547100  0.62616000  0.63829700  1
  N  742  1  0.45248100  0.59260500  0.66479100  1
  N  746  1  0.97618300  0.59916900  0.63171200  1
  N  748  1  0.97704500  0.62936500  0.66398100  1
  N  753  1  0.95240200  0.62613100  0.63826400  1
  N  754  1  0.01536200  0.59260200  0.66477600  1
  N  758  1  0.47619600  0.58951100  0.00483800  1
  N  760  1  0.47704000  0.62176600  0.00690700  1
  N  763  1  0.45239800  0.59610300  0.98442100  1
  N  764  1  0.51536300  0.62260200  0.04446400  1
  N  770  1  0.88674200  0.55383200  0.10324500  1
  N  772  1  0.88318200  0.55467700  0.50559700  1
  N  774  1  0.58466700  0.55467700  0.10575600  1
  N  780  1  0.58108600  0.55383100  0.50725200  1
  N  822  1  0.22130200  0.53182600  0.67943300  1
  N  825  1  0.24654700  0.53183200  0.90908400  1
  N  830  1  0.86974300  0.51325200  0.11337000  1
  N  833  1  0.89608600  0.51931900  0.48821800  1
  N  835  1  0.86975500  0.53020100  0.47350800  1
  N  841  1  0.57176300  0.51932000  0.08777800  1
  N  843  1  0.59809500  0.53020200  0.11337000  1
  N  851  1  0.59811000  0.51327200  0.45655900  1
  N  1426  1  0.90306100  0.39123000  0.23470700  1
  N  1428  1  0.89269000  0.35644400  0.21484700  1
  N  1435  1  0.89568400  0.37235700  0.25136600  1
  N  1436  1  0.89758600  0.37998200  0.18177100  1
  N  1440  1  0.40304900  0.19251200  0.81576500  1
  N  1442  1  0.39267700  0.17265200  0.83069000  1
  N  1449  1  0.39567800  0.20917500  0.85129500  1
  N  1450  1  0.39759900  0.13957900  0.77407700  1
  N  1454  1  0.40305500  0.17100800  0.43342500  1
  N  1456  1  0.39268700  0.15608000  0.39864000  1
  N  1463  1  0.39567500  0.13547800  0.41455900  1
  N  1464  1  0.39759700  0.21269400  0.42217600  1
  N  1468  1  0.06481000  0.17100300  0.79425900  1
  N  1470  1  0.07517900  0.15607800  0.81411900  1
  N  1477  1  0.07218500  0.13548700  0.77758000  1
  N  1478  1  0.07023600  0.21269000  0.84719200  1
  N  1482  1  0.06479600  0.19251100  0.43342000  1
  N  1484  1  0.07516400  0.17265200  0.39863400  1
  N  1491  1  0.07217000  0.20919200  0.41458400  1
  N  1492  1  0.07026500  0.13958400  0.42218100  1
  N  1496  1  0.56479200  0.39122800  0.21319700  1
  N  1498  1  0.57516200  0.35644300  0.19827000  1
  N  1505  1  0.57217000  0.37237200  0.17767200  1
  N  1506  1  0.57026700  0.37998200  0.25488300  1
  N  1510  1  0.72130300  0.41274700  0.34954600  1
  N  1512  1  0.72354300  0.37784700  0.32448200  1
  N  1519  1  0.68935900  0.39108600  0.33713000  1
  N  1520  1  0.77867900  0.39489300  0.34017600  1
  N  1524  1  0.22129600  0.30734600  0.90908600  1
  N  1526  1  0.22354500  0.28227900  0.91893300  1
  N  1533  1  0.18935100  0.29494600  0.91832200  1
  N  1534  1  0.27868100  0.29798700  0.91756300  1
  N  1538  1  0.22130200  0.07768300  0.45494100  1
  N  1540  1  0.22354200  0.06784800  0.42004200  1
  N  1547  1  0.18935700  0.06843900  0.43328200  1
  N  1548  1  0.27867800  0.06919800  0.43708800  1
  N  1552  1  0.24655400  0.07768400  0.67942500  1
  N  1554  1  0.24430600  0.06783700  0.70449000  1
  N  1561  1  0.27851500  0.06845100  0.69181900  1
  N  1562  1  0.18915200  0.06921400  0.68878600  1
  N  1566  1  0.24654700  0.30733700  0.45494300  1
  N  1568  1  0.24431400  0.28228200  0.42004100  1
  N  1575  1  0.27851000  0.29493700  0.43328800  1
  N  1576  1  0.18915100  0.29798100  0.43711000  1
  N  1580  1  0.74654700  0.41274400  0.11987500  1
  N  1582  1  0.74430900  0.37784900  0.11004200  1
  N  1589  1  0.77850800  0.39109500  0.11064000  1
  N  1590  1  0.68915500  0.39489700  0.11139800  1
  N  1594  1  0.99165700  0.34542300  0.39725900  1
  N  1596  1  0.99081300  0.31523700  0.36500400  1
  N  1603  1  0.01546600  0.31841200  0.39066200  1
  N  1604  1  0.95247000  0.35195100  0.36416700  1
  N  1605  1  0.01546900  0.00234600  0.66835300  1
  N  1609  1  0.49167000  0.35505700  0.02413100  1
  N  1611  1  0.49080800  0.32279100  0.02205900  1
  N  1618  1  0.51546300  0.34850200  0.04453700  1
  N  1619  1  0.45247300  0.32199200  0.98450700  1
  N  1622  1  0.45247000  0.00226600  0.39414500  1
  N  1626  1  0.97621100  0.35506500  0.02412500  1
  N  1628  1  0.97703500  0.32281200  0.02206500  1
  N  1635  1  0.95239600  0.34848700  0.04453600  1
  N  1636  1  0.01536500  0.32198500  0.98450000  1
  N  1639  1  0.01535400  0.00228400  0.39417200  1
  N  1643  1  0.47620200  0.34542300  0.39726000  1
  N  1645  1  0.47703200  0.31523100  0.36500700  1
  N  1652  1  0.45239500  0.31841700  0.39067300  1
  N  1653  1  0.51536500  0.35196900  0.36418100  1
  N  1654  1  0.45240100  0.00234900  0.66832500  1
  N  1655  1  0.89606600  0.49854800  0.08776000  1
  N  1657  1  0.88318300  0.48116900  0.10575300  1
  N  1661  1  0.88675800  0.47953400  0.43294100  1
  N  1665  1  0.39607800  0.44602900  0.94118700  1
  N  1667  1  0.36974000  0.43130300  0.91557500  1
  N  1674  1  0.38319200  0.46342600  0.92323600  1
  N  1675  1  0.38676300  0.39074500  0.92571000  1
  N  1679  1  0.39606800  0.42526900  0.54073900  1
  N  1681  1  0.36974300  0.41436400  0.55544400  1
  N  1688  1  0.38318400  0.38989800  0.52336200  1
  N  1689  1  0.38672400  0.46506700  0.59602400  1
  N  1693  1  0.39608300  0.04558600  0.56151300  1
  N  1695  1  0.36975400  0.07117700  0.57239400  1
  N  1702  1  0.38318200  0.06356400  0.59687100  1
  N  1703  1  0.38677000  0.06107500  0.52172500  1
  N  1707  1  0.07177300  0.42526200  0.94119200  1
  N  1709  1  0.09810000  0.41436800  0.91559600  1
  N  1716  1  0.08466600  0.38989900  0.92321100  1
  N  1717  1  0.08108600  0.46506100  0.92570900  1
  N  1721  1  0.07177000  0.04558300  0.54074000  1
  N  1723  1  0.09810800  0.07119600  0.55546600  1
  N  1730  1  0.08465600  0.06353500  0.52334500  1
  N  1731  1  0.08109400  0.06106100  0.59602300  1
  N  1735  1  0.07178300  0.44603000  0.56150100  1
  N  1737  1  0.09810700  0.43132500  0.57240700  1
  N  1744  1  0.08466600  0.46340800  0.59687200  1
  N  1745  1  0.08110700  0.39074500  0.52170100  1
  N  1749  1  0.58109200  0.47953400  0.10326900  1
  N  1750  1  0.57177100  0.49854700  0.46744600  1
  N  1752  1  0.58465700  0.48115000  0.43209800  1
  O  231  1  0.88789300  0.80925800  0.22001000  1
  O  245  1  0.88788400  0.76675900  0.64592200  1
  O  259  1  0.57996500  0.76676100  0.17751400  1
  O  273  1  0.57996200  0.80925600  0.64592200  1
  O  283  1  0.75875800  0.67388900  0.10541500  1
  O  294  1  0.75875500  0.88136100  0.62514900  1
  O  308  1  0.70909400  0.88136200  0.31289000  1
  O  318  1  0.70908600  0.67389200  0.62514800  1
  O  332  1  0.96850300  0.95338200  0.67263200  1
  O  374  1  0.49935600  0.95337500  0.67263100  1
  O  387  1  0.85784700  0.86120400  0.47968100  1
  O  401  1  0.61000200  0.86120400  0.43820100  1
  O  663  1  0.38789400  0.60373100  0.85145400  1
  O  677  1  0.07996400  0.60372900  0.80895500  1
  O  696  1  0.25875900  0.58295700  0.71608300  1
  O  707  1  0.20909400  0.58295600  0.92355700  1
  O  727  1  0.96849900  0.64935000  0.03339200  1
  O  737  1  0.46850000  0.63044100  0.69154400  1
  O  749  1  0.99935600  0.63043700  0.69154500  1
  O  761  1  0.49935900  0.64934500  0.03339200  1
  O  765  1  0.85783700  0.54857500  0.12556700  1
  O  775  1  0.61001500  0.54857700  0.47969400  1
  O  836  1  0.85784700  0.50708300  0.43819500  1
  O  844  1  0.61000200  0.50708400  0.12556400  1
  O  1429  1  0.88789300  0.34084700  0.17751300  1
  O  1443  1  0.38788600  0.13531900  0.80895500  1
  O  1457  1  0.38789500  0.17781800  0.38304100  1
  O  1471  1  0.07996100  0.17781600  0.85145000  1
  O  1485  1  0.07995700  0.13532000  0.38304000  1
  O  1499  1  0.57995500  0.34084500  0.22000800  1
  O  1513  1  0.75875700  0.36162000  0.31288700  1
  O  1527  1  0.25876400  0.27068300  0.92354400  1
  O  1541  1  0.25875700  0.06321600  0.40381600  1
  O  1555  1  0.20908600  0.06322500  0.71608600  1
  O  1569  1  0.20909100  0.27069000  0.40381600  1
  O  1583  1  0.70909200  0.36162300  0.10541100  1
  O  1597  1  0.96849000  0.31414200  0.33742700  1
  O  1612  1  0.46849100  0.29522600  0.99556800  1
  O  1620  1  0.46849000  0.99119700  0.35633500  1
  O  1629  1  0.99934700  0.29523100  0.99557500  1
  O  1637  1  0.99935000  0.99119800  0.35633000  1
  O  1646  1  0.49934600  0.31414000  0.33742700  1
  O  1668  1  0.35783400  0.39599900  0.90340500  1
  O  1682  1  0.35783600  0.43748900  0.59076500  1
  O  1696  1  0.35784900  0.08337200  0.54927600  1
  O  1710  1  0.11000100  0.43748700  0.90339600  1
  O  1724  1  0.11001500  0.08336500  0.59077000  1
  O  1738  1  0.11001200  0.39600300  0.54928100  1
