# generated using pymatgen
data_H11C14O
_symmetry_space_group_name_H-M   'P 1'
_cell_length_a   40.32470000
_cell_length_b   40.32470000
_cell_length_c   40.32470000
_cell_angle_alpha   90.00000000
_cell_angle_beta   90.00000000
_cell_angle_gamma   90.00000000
_symmetry_Int_Tables_number   1
_chemical_formula_structural   H11C14O
_chemical_formula_sum   'H528 C672 O48'
_cell_volume   65571.24584395
_cell_formula_units_Z   48
loop_
 _symmetry_equiv_pos_site_id
 _symmetry_equiv_pos_as_xyz
  1  'x, y, z'
loop_
 _atom_site_type_symbol
 _atom_site_label
 _atom_site_symmetry_multiplicity
 _atom_site_fract_x
 _atom_site_fract_y
 _atom_site_fract_z
 _atom_site_occupancy
  H  7  1  0.30652400  0.33852200  0.05667600  1
  H  8  1  0.25701800  0.41838800  0.01528000  1
  H  15  1  0.41840800  0.25704100  0.99428800  1
  H  16  1  0.33853700  0.30653100  0.95288400  1
  H  19  1  0.30846300  0.35255800  0.93254200  1
  H  20  1  0.35255800  0.30846600  0.07702200  1
  H  27  1  0.70304000  0.67100500  0.05669300  1
  H  28  1  0.75251800  0.59112900  0.01528200  1
  H  35  1  0.59114600  0.75249600  0.99430000  1
  H  36  1  0.67103000  0.70302800  0.95289400  1
  H  39  1  0.70114800  0.65703300  0.93255900  1
  H  40  1  0.65703600  0.70111600  0.07703000  1
  H  47  1  0.70303800  0.33851900  0.95289700  1
  H  48  1  0.75255100  0.41838100  0.99429500  1
  H  55  1  0.59114800  0.25704300  0.01528800  1
  H  56  1  0.67102700  0.30652700  0.05669000  1
  H  59  1  0.70110600  0.35254800  0.07703200  1
  H  60  1  0.65701100  0.30845300  0.93255400  1
  H  67  1  0.30653600  0.67102500  0.95290200  1
  H  68  1  0.25706100  0.59114800  0.99431300  1
  H  75  1  0.41844000  0.75250600  0.01529400  1
  H  76  1  0.33854400  0.70305000  0.05669600  1
  H  79  1  0.30843400  0.65705100  0.07703400  1
  H  80  1  0.35254000  0.70113000  0.93256400  1
  H  87  1  0.05667400  0.30652900  0.33851900  1
  H  88  1  0.01527900  0.25702100  0.41838800  1
  H  95  1  0.99428300  0.41840600  0.25703600  1
  H  96  1  0.95288200  0.33853400  0.30652900  1
  H  99  1  0.93253900  0.30846300  0.35255500  1
  H  100  1  0.07701800  0.35256300  0.30846600  1
  H  107  1  0.05668800  0.70304200  0.67101500  1
  H  108  1  0.01527500  0.75251800  0.59113800  1
  H  115  1  0.99429300  0.59114800  0.75250800  1
  H  116  1  0.95288900  0.67103500  0.70304000  1
  H  119  1  0.93255400  0.70114800  0.65704100  1
  H  120  1  0.07702500  0.65703800  0.70112600  1
  H  127  1  0.95289700  0.70304200  0.33850900  1
  H  128  1  0.99429300  0.75255600  0.41837400  1
  H  135  1  0.01528500  0.59115300  0.25703800  1
  H  136  1  0.05668800  0.67103200  0.30652200  1
  H  139  1  0.07703100  0.70110100  0.35255000  1
  H  140  1  0.93255200  0.65701100  0.30845600  1
  H  147  1  0.95290200  0.30653600  0.67102500  1
  H  148  1  0.99431300  0.25706100  0.59114800  1
  H  155  1  0.01528900  0.41843800  0.75250800  1
  H  156  1  0.05669500  0.33854400  0.70305000  1
  H  159  1  0.07703400  0.30843400  0.65705100  1
  H  160  1  0.93256200  0.35254300  0.70112600  1
  H  167  1  0.33851900  0.05667200  0.30652900  1
  H  168  1  0.41838800  0.01527700  0.25702100  1
  H  175  1  0.25703600  0.99428300  0.41840800  1
  H  176  1  0.30652900  0.95287900  0.33853700  1
  H  179  1  0.35255500  0.93253700  0.30846300  1
  H  180  1  0.30846300  0.07701700  0.35256300  1
  H  187  1  0.67101500  0.05668700  0.70303500  1
  H  188  1  0.59113600  0.01527800  0.75251300  1
  H  195  1  0.75251100  0.99429100  0.59114600  1
  H  196  1  0.70303800  0.95288900  0.67103200  1
  H  199  1  0.65704100  0.93255400  0.70114500  1
  H  200  1  0.70112100  0.07702400  0.65703100  1
  H  207  1  0.33851700  0.95290200  0.70304000  1
  H  208  1  0.41838300  0.99429500  0.75255100  1
  H  215  1  0.25704100  0.01529000  0.59115300  1
  H  216  1  0.30652700  0.05669400  0.67103000  1
  H  219  1  0.35255000  0.07703600  0.70110600  1
  H  220  1  0.30845800  0.93255700  0.65700900  1
  H  227  1  0.67102500  0.95290200  0.30653600  1
  H  228  1  0.59114800  0.99431300  0.25705800  1
  H  235  1  0.75250800  0.01529300  0.41843800  1
  H  236  1  0.70305000  0.05669600  0.33854200  1
  H  239  1  0.65705100  0.07703500  0.30843100  1
  H  240  1  0.70112600  0.93256200  0.35254300  1
  H  247  1  0.80000300  0.83388800  0.55646500  1
  H  248  1  0.75480000  0.91600900  0.51392500  1
  H  255  1  0.91603600  0.75482000  0.49560700  1
  H  256  1  0.83391500  0.80000800  0.45305900  1
  H  259  1  0.79974200  0.84440700  0.43270500  1
  H  260  1  0.84441000  0.79973000  0.57682500  1
  H  267  1  0.20958000  0.17567400  0.55648700  1
  H  268  1  0.25475400  0.09353600  0.51395500  1
  H  275  1  0.09354200  0.25475200  0.49564100  1
  H  276  1  0.17566600  0.20956800  0.45308700  1
  H  279  1  0.20987900  0.16519000  0.43274900  1
  H  280  1  0.16518000  0.20984100  0.57685200  1
  H  287  1  0.20958600  0.83388300  0.45309700  1
  H  288  1  0.25477200  0.91601400  0.49563600  1
  H  295  1  0.09354900  0.75481000  0.51394000  1
  H  296  1  0.17566600  0.80000000  0.55649700  1
  H  299  1  0.20984300  0.84439700  0.57685200  1
  H  300  1  0.16517600  0.79973000  0.43272900  1
  H  307  1  0.80000300  0.17568300  0.45309400  1
  H  308  1  0.75482200  0.09354900  0.49562900  1
  H  315  1  0.91603300  0.25476700  0.51393800  1
  H  316  1  0.83391500  0.20957600  0.55649500  1
  H  319  1  0.79971800  0.16518900  0.57683700  1
  H  320  1  0.84440200  0.20984800  0.43272900  1
  H  327  1  0.55645300  0.79998000  0.83386000  1
  H  328  1  0.51392000  0.75478000  0.91598600  1
  H  335  1  0.49561600  0.91603300  0.75481500  1
  H  336  1  0.45305900  0.83391500  0.80000300  1
  H  339  1  0.43269700  0.79977000  0.84442200  1
  H  340  1  0.57683200  0.84442200  0.79975500  1
  H  347  1  0.55648700  0.20958000  0.17567300  1
  H  348  1  0.51395300  0.25475700  0.09353700  1
  H  355  1  0.49564100  0.09354100  0.25474900  1
  H  356  1  0.45308400  0.17566600  0.20956900  1
  H  359  1  0.43274900  0.20988100  0.16519400  1
  H  360  1  0.57685200  0.16518100  0.20984200  1
  H  367  1  0.45310700  0.20960200  0.83385300  1
  H  368  1  0.49563600  0.25479200  0.91598900  1
  H  375  1  0.51393800  0.09355000  0.75480500  1
  H  376  1  0.55650000  0.17566600  0.79999500  1
  H  379  1  0.57685900  0.20981600  0.84441200  1
  H  380  1  0.43272700  0.16516700  0.79974200  1
  H  387  1  0.45309700  0.80000000  0.17568300  1
  H  388  1  0.49563400  0.75481700  0.09355200  1
  H  395  1  0.51393800  0.91603300  0.25476700  1
  H  396  1  0.55649500  0.83391500  0.20957800  1
  H  399  1  0.57684000  0.79971500  0.16519400  1
  H  400  1  0.43272900  0.84440000  0.20984900  1
  H  407  1  0.83388800  0.55646500  0.79999800  1
  H  408  1  0.91600900  0.51392300  0.75480000  1
  H  415  1  0.75482500  0.49562400  0.91603800  1
  H  416  1  0.80000000  0.45306700  0.83391500  1
  H  419  1  0.84440200  0.43270700  0.79974200  1
  H  420  1  0.79976000  0.57683700  0.84442200  1
  H  427  1  0.17567000  0.55649200  0.20957900  1
  H  428  1  0.09353300  0.51395800  0.25475400  1
  H  435  1  0.25474900  0.49564400  0.09354300  1
  H  436  1  0.20956700  0.45308900  0.17566700  1
  H  439  1  0.16518900  0.43275200  0.20988100  1
  H  440  1  0.20984000  0.57685400  0.16518000  1
  H  447  1  0.83388300  0.45308900  0.20958900  1
  H  448  1  0.91601100  0.49563100  0.25477400  1
  H  455  1  0.75481000  0.51393000  0.09355200  1
  H  456  1  0.79999300  0.55648700  0.17567100  1
  H  459  1  0.84439500  0.57684700  0.20984300  1
  H  460  1  0.79974000  0.43271700  0.16517400  1
  H  467  1  0.17568100  0.45309700  0.80000300  1
  H  468  1  0.09354900  0.49563100  0.75482200  1
  H  475  1  0.25476700  0.51393800  0.91603300  1
  H  476  1  0.20957700  0.55649500  0.83391500  1
  H  479  1  0.16519000  0.57684000  0.79971800  1
  H  480  1  0.20984800  0.43272900  0.84440200  1
  H  486  1  0.38531700  0.21833700  0.94937000  1
  H  488  1  0.40639100  0.31531500  0.91955200  1
  H  490  1  0.40909600  0.17130300  0.92596300  1
  H  491  1  0.45102800  0.17965700  0.91696300  1
  H  492  1  0.42167700  0.17529300  0.88437500  1
  H  494  1  0.46509700  0.29317500  0.85281900  1
  H  495  1  0.46475700  0.31900000  0.88827400  1
  H  496  1  0.43143200  0.31998500  0.85953900  1
  H  502  1  0.62422000  0.79118900  0.94939700  1
  H  504  1  0.60316300  0.69424600  0.91950500  1
  H  506  1  0.60045300  0.83824000  0.92601700  1
  H  507  1  0.55852100  0.82989300  0.91700800  1
  H  508  1  0.58788000  0.83427700  0.88442500  1
  H  510  1  0.54447200  0.71641900  0.85277900  1
  H  511  1  0.54480700  0.69057100  0.88821700  1
  H  512  1  0.57813900  0.68960900  0.85948700  1
  H  518  1  0.62432400  0.21832700  0.06018700  1
  H  520  1  0.60311600  0.31528000  0.09001800  1
  H  522  1  0.60056700  0.17124700  0.08358500  1
  H  523  1  0.55862200  0.17957600  0.09255700  1
  H  524  1  0.58795400  0.17522100  0.12516500  1
  H  526  1  0.54444700  0.29306600  0.15676900  1
  H  527  1  0.54473800  0.31890600  0.12132300  1
  H  528  1  0.57807700  0.31991500  0.15004100  1
  H  534  1  0.38528500  0.79121200  0.06017800  1
  H  536  1  0.40646500  0.69428900  0.09007800  1
  H  538  1  0.40903400  0.83830400  0.08354700  1
  H  539  1  0.45097600  0.82997900  0.09252900  1
  H  540  1  0.42164200  0.83435600  0.12513100  1
  H  542  1  0.46512600  0.71652800  0.15681900  1
  H  543  1  0.46483400  0.69066800  0.12138900  1
  H  544  1  0.43149200  0.68968300  0.15010400  1
  H  550  1  0.94936000  0.38524700  0.21833000  1
  H  552  1  0.91956700  0.40644300  0.31529500  1
  H  554  1  0.92596000  0.40903400  0.17127000  1
  H  555  1  0.91697800  0.45097400  0.17961800  1
  H  556  1  0.88437800  0.42163500  0.17525900  1
  H  558  1  0.85281400  0.46511400  0.29313300  1
  H  559  1  0.88827600  0.46481200  0.31894800  1
  H  560  1  0.85956200  0.43147000  0.31995700  1
  H  566  1  0.94938500  0.62428700  0.79120400  1
  H  568  1  0.91952000  0.60311400  0.69427100  1
  H  570  1  0.92601500  0.60051000  0.83828000  1
  H  571  1  0.91702300  0.55857000  0.82993700  1
  H  572  1  0.88442700  0.58791500  0.83431700  1
  H  574  1  0.85277700  0.54445200  0.71646600  1
  H  575  1  0.88822200  0.54475500  0.69062600  1
  H  576  1  0.85951000  0.57809900  0.68964100  1
  H  582  1  0.06018500  0.62432700  0.21832200  1
  H  584  1  0.09001500  0.60312100  0.31527800  1
  H  586  1  0.08358300  0.60056700  0.17124300  1
  H  587  1  0.09255500  0.55862200  0.17957300  1
  H  588  1  0.12516300  0.58795700  0.17521800  1
  H  590  1  0.15676500  0.54445000  0.29306600  1
  H  591  1  0.12131900  0.54474500  0.31890400  1
  H  592  1  0.15003700  0.57808200  0.31991300  1
  H  598  1  0.06017500  0.38528500  0.79121400  1
  H  600  1  0.09007500  0.40646500  0.69429100  1
  H  602  1  0.08354400  0.40903400  0.83830700  1
  H  603  1  0.09252600  0.45097600  0.82998200  1
  H  604  1  0.12512800  0.42164200  0.83435900  1
  H  606  1  0.15681600  0.46512600  0.71653000  1
  H  607  1  0.12138700  0.46483400  0.69067000  1
  H  608  1  0.15010200  0.43149200  0.68968600  1
  H  614  1  0.21832900  0.94936000  0.38525000  1
  H  616  1  0.31529300  0.91956500  0.40644500  1
  H  618  1  0.17126800  0.92596000  0.40903700  1
  H  619  1  0.17961600  0.91698100  0.45097600  1
  H  620  1  0.17525700  0.88437800  0.42163900  1
  H  622  1  0.29313000  0.85281400  0.46511900  1
  H  623  1  0.31894600  0.88827600  0.46481600  1
  H  624  1  0.31995500  0.85955900  0.43147500  1
  H  630  1  0.79120400  0.94938500  0.62428700  1
  H  632  1  0.69427400  0.91951800  0.60311400  1
  H  634  1  0.83828000  0.92601200  0.60051000  1
  H  635  1  0.82993700  0.91702300  0.55857300  1
  H  636  1  0.83431900  0.88442700  0.58791500  1
  H  638  1  0.71646800  0.85277400  0.54445500  1
  H  639  1  0.69062800  0.88821700  0.54475500  1
  H  640  1  0.68964400  0.85950700  0.57809900  1
  H  646  1  0.21832500  0.06019000  0.62432700  1
  H  648  1  0.31528000  0.09002000  0.60311900  1
  H  650  1  0.17124600  0.08358700  0.60056900  1
  H  651  1  0.17957400  0.09255800  0.55862500  1
  H  652  1  0.17522000  0.12516700  0.58795700  1
  H  654  1  0.29306600  0.15676900  0.54444700  1
  H  655  1  0.31890600  0.12132300  0.54474000  1
  H  656  1  0.31991300  0.15004300  0.57807700  1
  H  662  1  0.79121400  0.06017700  0.38528200  1
  H  664  1  0.69429100  0.09007800  0.40646300  1
  H  666  1  0.83830700  0.08354600  0.40902900  1
  H  667  1  0.82998200  0.09252800  0.45097400  1
  H  668  1  0.83435900  0.12513100  0.42163900  1
  H  670  1  0.71653300  0.15681800  0.46512600  1
  H  671  1  0.69067000  0.12138900  0.46483100  1
  H  672  1  0.68968600  0.15010400  0.43149000  1
  H  678  1  0.21830200  0.38521300  0.06020800  1
  H  680  1  0.31526600  0.40643000  0.08997500  1
  H  682  1  0.17124900  0.40898500  0.08361200  1
  H  683  1  0.17958100  0.45093200  0.09256000  1
  H  684  1  0.17524300  0.42161500  0.12518400  1
  H  686  1  0.29309600  0.46513100  0.15669700  1
  H  687  1  0.31891100  0.46481200  0.12123600  1
  H  688  1  0.31992500  0.43148700  0.14997000  1
  H  694  1  0.79120200  0.62432200  0.06016800  1
  H  696  1  0.69424900  0.60309600  0.09003600  1
  H  698  1  0.83828500  0.60055700  0.08356000  1
  H  699  1  0.82995500  0.55861500  0.09254000  1
  H  700  1  0.83431900  0.58795200  0.12514300  1
  H  702  1  0.71649100  0.54445000  0.15679500  1
  H  703  1  0.69064300  0.54473300  0.12135800  1
  H  704  1  0.68964900  0.57808200  0.15006400  1
  H  710  1  0.21837700  0.62433600  0.94942500  1
  H  712  1  0.31532800  0.60312400  0.91955500  1
  H  714  1  0.17130100  0.60058700  0.92602700  1
  H  715  1  0.17962200  0.55864000  0.91705800  1
  H  716  1  0.17526800  0.58796900  0.88444700  1
  H  718  1  0.29308100  0.54446000  0.85281400  1
  H  719  1  0.31893100  0.54476000  0.88824900  1
  H  720  1  0.31992000  0.57809700  0.85953000  1
  H  726  1  0.79126400  0.38519800  0.94936800  1
  H  728  1  0.69430100  0.40643500  0.91960400  1
  H  730  1  0.83832700  0.40897700  0.92596800  1
  H  731  1  0.82999200  0.45092200  0.91700500  1
  H  732  1  0.83433400  0.42159700  0.88439000  1
  H  734  1  0.71647100  0.46511700  0.85285900  1
  H  735  1  0.69066000  0.46481600  0.88832300  1
  H  736  1  0.68963600  0.43148000  0.85960400  1
  H  742  1  0.38519500  0.94937000  0.79126600  1
  H  744  1  0.40642800  0.91960400  0.69430100  1
  H  746  1  0.40897700  0.92597000  0.83832700  1
  H  747  1  0.45092200  0.91700500  0.82998900  1
  H  748  1  0.42159200  0.88439300  0.83433400  1
  H  750  1  0.46510400  0.85285600  0.71646800  1
  H  751  1  0.46480700  0.88832100  0.69065800  1
  H  752  1  0.43146700  0.85960400  0.68963600  1
  H  758  1  0.62433400  0.94942500  0.21837600  1
  H  760  1  0.60312400  0.91955500  0.31532800  1
  H  762  1  0.60058400  0.92602500  0.17130100  1
  H  763  1  0.55864000  0.91705800  0.17962300  1
  H  764  1  0.58796900  0.88444700  0.17526900  1
  H  766  1  0.54446000  0.85281400  0.29308100  1
  H  767  1  0.54476000  0.88824900  0.31893100  1
  H  768  1  0.57809700  0.85953000  0.31992300  1
  H  774  1  0.62433100  0.06016300  0.79119700  1
  H  776  1  0.60310600  0.09003100  0.69424400  1
  H  778  1  0.60056700  0.08355500  0.83828200  1
  H  779  1  0.55862500  0.09253700  0.82995000  1
  H  780  1  0.58796200  0.12513900  0.83431400  1
  H  782  1  0.54446200  0.15679200  0.71648800  1
  H  783  1  0.54474300  0.12135400  0.69064100  1
  H  784  1  0.57809400  0.15005900  0.68964400  1
  H  790  1  0.38521000  0.06020500  0.21830600  1
  H  792  1  0.40642800  0.08997200  0.31527100  1
  H  794  1  0.40898000  0.08361000  0.17125200  1
  H  795  1  0.45092900  0.09255800  0.17958300  1
  H  796  1  0.42161000  0.12518200  0.17524600  1
  H  798  1  0.46512900  0.15669400  0.29309800  1
  H  799  1  0.46480900  0.12123300  0.31891300  1
  H  800  1  0.43148500  0.14996700  0.31992800  1
  H  806  1  0.94942500  0.21837600  0.62433400  1
  H  808  1  0.91955200  0.31532800  0.60312400  1
  H  810  1  0.92602700  0.17130100  0.60058400  1
  H  811  1  0.91705800  0.17962200  0.55864000  1
  H  812  1  0.88444700  0.17526800  0.58796900  1
  H  814  1  0.85281400  0.29308100  0.54446000  1
  H  815  1  0.88824900  0.31893100  0.54476000  1
  H  816  1  0.85953000  0.31992000  0.57809700  1
  H  822  1  0.94936800  0.79127400  0.38518800  1
  H  824  1  0.91959900  0.69430800  0.40641800  1
  H  826  1  0.92596800  0.83833400  0.40897000  1
  H  827  1  0.91700500  0.82999700  0.45091400  1
  H  828  1  0.88439000  0.83434200  0.42158700  1
  H  830  1  0.85285400  0.71647800  0.46509700  1
  H  831  1  0.88831800  0.69066500  0.46479900  1
  H  832  1  0.85959900  0.68964400  0.43146000  1
  H  838  1  0.06020700  0.21830500  0.38521000  1
  H  840  1  0.08997300  0.31526800  0.40642800  1
  H  842  1  0.08361100  0.17125100  0.40898000  1
  H  843  1  0.09255900  0.17958300  0.45092900  1
  H  844  1  0.12518300  0.17524500  0.42161200  1
  H  846  1  0.15669500  0.29309800  0.46512900  1
  H  847  1  0.12123400  0.31891300  0.46480900  1
  H  848  1  0.14996900  0.31992800  0.43148500  1
  H  854  1  0.06016000  0.79120700  0.62433100  1
  H  856  1  0.09003200  0.69425400  0.60310900  1
  H  858  1  0.08355300  0.83828900  0.60056700  1
  H  859  1  0.09253400  0.82995700  0.55862500  1
  H  860  1  0.12513600  0.83432200  0.58796200  1
  H  862  1  0.15679300  0.71649600  0.54446500  1
  H  863  1  0.12135500  0.69064800  0.54474500  1
  H  864  1  0.15006000  0.68965400  0.57809700  1
  H  870  1  0.60620400  0.78886300  0.04026400  1
  H  872  1  0.58842500  0.69484700  0.08064500  1
  H  874  1  0.57576800  0.83550000  0.05359000  1
  H  875  1  0.53718400  0.82743500  0.07220800  1
  H  876  1  0.57183300  0.83902100  0.09679700  1
  H  878  1  0.53785600  0.72315900  0.15113800  1
  H  879  1  0.53468700  0.69305600  0.11942300  1
  H  880  1  0.57169900  0.69715000  0.14285900  1
  H  886  1  0.40337000  0.22069700  0.04026600  1
  H  888  1  0.42116100  0.31472500  0.08061400  1
  H  890  1  0.43381300  0.17406500  0.05359600  1
  H  891  1  0.47240000  0.18213600  0.07220800  1
  H  892  1  0.43775400  0.17055500  0.09680300  1
  H  894  1  0.47173800  0.28643200  0.15110800  1
  H  895  1  0.47490500  0.31652800  0.11938400  1
  H  896  1  0.43789300  0.31244100  0.14282600  1
  H  902  1  0.40339300  0.78887600  0.96933800  1
  H  904  1  0.42114400  0.69485900  0.92893400  1
  H  906  1  0.43384500  0.83550700  0.95601600  1
  H  907  1  0.47241500  0.82743500  0.93736800  1
  H  908  1  0.43775100  0.83903800  0.91280700  1
  H  910  1  0.47167100  0.72317700  0.85841400  1
  H  911  1  0.47486700  0.69307100  0.89012600  1
  H  912  1  0.43783600  0.69716300  0.86671600  1
  H  918  1  0.60617600  0.22069200  0.96932300  1
  H  920  1  0.58841600  0.31471300  0.92894400  1
  H  922  1  0.57572100  0.17406300  0.95600100  1
  H  923  1  0.53714900  0.18213600  0.93735800  1
  H  924  1  0.57180800  0.17053800  0.91279200  1
  H  926  1  0.53787800  0.28641000  0.85842600  1
  H  927  1  0.53468400  0.31650800  0.89014400  1
  H  928  1  0.57171400  0.31242400  0.86672900  1
  H  934  1  0.04026000  0.60620400  0.78887100  1
  H  936  1  0.08063700  0.58842500  0.69485100  1
  H  938  1  0.05358800  0.57576300  0.83550700  1
  H  939  1  0.07220600  0.53718100  0.82744000  1
  H  940  1  0.09679500  0.57182800  0.83902600  1
  H  942  1  0.15113200  0.53785600  0.72316200  1
  H  943  1  0.11941600  0.53468700  0.69305900  1
  H  944  1  0.14285200  0.57170100  0.69715300  1
  H  950  1  0.04026300  0.40337300  0.22069400  1
  H  952  1  0.08060700  0.42116600  0.31472500  1
  H  954  1  0.05359200  0.43381600  0.17406300  1
  H  955  1  0.07220400  0.47240200  0.18213400  1
  H  956  1  0.09680000  0.43775600  0.17055400  1
  H  958  1  0.15110200  0.47174300  0.28643200  1
  H  959  1  0.11937700  0.47490700  0.31652500  1
  H  960  1  0.14282000  0.43789800  0.31243900  1
  H  966  1  0.96932800  0.40338500  0.78887600  1
  H  968  1  0.92893900  0.42114600  0.69485600  1
  H  970  1  0.95599600  0.43382800  0.83551000  1
  H  971  1  0.93736000  0.47240200  0.82744000  1
  H  972  1  0.91279000  0.43774600  0.83903300  1
  H  974  1  0.85842400  0.47168600  0.72316700  1
  H  975  1  0.89013600  0.47487200  0.69306300  1
  H  976  1  0.86671900  0.43784800  0.69715800  1
  H  982  1  0.96931600  0.60618400  0.22069000  1
  H  984  1  0.92894800  0.58841300  0.31471800  1
  H  986  1  0.95598600  0.57573100  0.17405900  1
  H  987  1  0.93735500  0.53715400  0.18213400  1
  H  988  1  0.91277700  0.57180800  0.17054300  1
  H  990  1  0.85843600  0.53786100  0.28642000  1
  H  991  1  0.89015800  0.53468200  0.31651800  1
  H  992  1  0.86673400  0.57170100  0.31242900  1
  H  998  1  0.78887100  0.04025900  0.60619900  1
  H  1000  1  0.69485100  0.08063500  0.58842100  1
  H  1002  1  0.83550700  0.05358700  0.57576300  1
  H  1003  1  0.82744000  0.07220600  0.53717900  1
  H  1004  1  0.83902600  0.09679500  0.57182800  1
  H  1006  1  0.72316200  0.15113100  0.53785400  1
  H  1007  1  0.69306100  0.11941500  0.53468200  1
  H  1008  1  0.69715300  0.14285000  0.57169600  1
  H  1014  1  0.22069400  0.04026200  0.40337300  1
  H  1016  1  0.31472200  0.08060800  0.42116300  1
  H  1018  1  0.17406200  0.05359300  0.43381800  1
  H  1019  1  0.18213300  0.07220600  0.47240200  1
  H  1020  1  0.17055300  0.09680000  0.43775600  1
  H  1022  1  0.28643200  0.15110400  0.47173800  1
  H  1023  1  0.31652500  0.11938000  0.47490700  1
  H  1024  1  0.31243900  0.14282100  0.43789500  1
  H  1030  1  0.78887300  0.96933300  0.40338500  1
  H  1032  1  0.69485600  0.92894100  0.42114800  1
  H  1034  1  0.83551000  0.95600400  0.43383100  1
  H  1035  1  0.82744000  0.93736500  0.47240500  1
  H  1036  1  0.83903100  0.91279500  0.43774600  1
  H  1038  1  0.72316700  0.85842600  0.47168800  1
  H  1039  1  0.69306300  0.89013900  0.47487500  1
  H  1040  1  0.69715800  0.86672100  0.43784800  1
  H  1046  1  0.22069200  0.96932100  0.60618600  1
  H  1048  1  0.31471800  0.92895300  0.58841300  1
  H  1050  1  0.17406000  0.95598900  0.57573600  1
  H  1051  1  0.18213300  0.93735800  0.53715900  1
  H  1052  1  0.17054300  0.91278000  0.57181500  1
  H  1054  1  0.28642000  0.85843800  0.53786600  1
  H  1055  1  0.31651500  0.89016100  0.53468200  1
  H  1056  1  0.31242900  0.86673600  0.57170400  1
  H  1062  1  0.78888600  0.60617100  0.96932800  1
  H  1064  1  0.69486900  0.58841800  0.92893600  1
  H  1066  1  0.83551700  0.57571400  0.95601100  1
  H  1067  1  0.82743800  0.53713400  0.93738700  1
  H  1068  1  0.83904300  0.57178100  0.91280500  1
  H  1070  1  0.72317400  0.53785600  0.85843600  1
  H  1071  1  0.69307100  0.53468200  0.89015100  1
  H  1072  1  0.69716800  0.57169900  0.86672100  1
  H  1078  1  0.22068400  0.40338000  0.96930300  1
  H  1080  1  0.31471800  0.42115100  0.92894600  1
  H  1082  1  0.17405800  0.43384300  0.95598400  1
  H  1083  1  0.18213500  0.47242000  0.93735800  1
  H  1084  1  0.17053800  0.43777100  0.91277700  1
  H  1086  1  0.28642500  0.47172000  0.85844300  1
  H  1087  1  0.31652300  0.47489200  0.89016300  1
  H  1088  1  0.31243400  0.43787800  0.86672900  1
  H  1094  1  0.78888600  0.40337000  0.04026900  1
  H  1096  1  0.69485900  0.42114400  0.08063100  1
  H  1098  1  0.83551500  0.43382800  0.05359100  1
  H  1099  1  0.82744000  0.47240500  0.07222000  1
  H  1100  1  0.83903300  0.43775400  0.09679900  1
  H  1102  1  0.72315400  0.47169800  0.15114100  1
  H  1103  1  0.69305900  0.47487700  0.11942100  1
  H  1104  1  0.69714800  0.43785800  0.14284700  1
  H  1110  1  0.22069400  0.60619400  0.04026800  1
  H  1112  1  0.31471500  0.58843500  0.08065500  1
  H  1114  1  0.17406100  0.57573800  0.05358600  1
  H  1115  1  0.18214100  0.53715700  0.07220500  1
  H  1116  1  0.17053500  0.57179800  0.09679300  1
  H  1118  1  0.28641000  0.53785600  0.15114700  1
  H  1119  1  0.31651300  0.53468900  0.11943200  1
  H  1120  1  0.31241900  0.57170100  0.14287200  1
  H  1126  1  0.60619100  0.04026900  0.22069300  1
  H  1128  1  0.58843300  0.08065500  0.31471500  1
  H  1130  1  0.57573600  0.05358800  0.17406100  1
  H  1131  1  0.53715400  0.07220500  0.18214100  1
  H  1132  1  0.57179500  0.09679400  0.17053600  1
  H  1134  1  0.53785400  0.15114600  0.28641200  1
  H  1135  1  0.53468700  0.11943000  0.31651500  1
  H  1136  1  0.57169900  0.14287100  0.31242100  1
  H  1142  1  0.40337500  0.04027000  0.78888600  1
  H  1144  1  0.42114600  0.08063200  0.69485900  1
  H  1146  1  0.43384000  0.05358800  0.83551200  1
  H  1147  1  0.47241700  0.07221600  0.82743300  1
  H  1148  1  0.43776600  0.09679600  0.83903100  1
  H  1150  1  0.47170600  0.15113900  0.72315200  1
  H  1151  1  0.47488200  0.11941900  0.69305400  1
  H  1152  1  0.43786300  0.14284700  0.69714500  1
  H  1158  1  0.40337800  0.96930100  0.22068600  1
  H  1160  1  0.42114800  0.92894400  0.31471800  1
  H  1162  1  0.43384000  0.95598200  0.17406000  1
  H  1163  1  0.47242000  0.93735800  0.18213700  1
  H  1164  1  0.43777100  0.91277500  0.17054000  1
  H  1166  1  0.47172000  0.85844100  0.28642700  1
  H  1167  1  0.47489200  0.89016100  0.31652500  1
  H  1168  1  0.43787800  0.86672400  0.31243400  1
  H  1174  1  0.60617400  0.96932100  0.78888100  1
  H  1176  1  0.58842500  0.92893400  0.69486100  1
  H  1178  1  0.57570900  0.95600900  0.83550200  1
  H  1179  1  0.53712900  0.93738700  0.82742300  1
  H  1180  1  0.57177300  0.91280200  0.83903100  1
  H  1182  1  0.53785100  0.85844100  0.72316200  1
  H  1183  1  0.53468400  0.89015600  0.69305900  1
  H  1184  1  0.57169900  0.86672100  0.69716000  1
  H  1190  1  0.04027400  0.78888800  0.40337000  1
  H  1192  1  0.08062400  0.69485600  0.42114400  1
  H  1194  1  0.05359300  0.83551000  0.43383300  1
  H  1195  1  0.07221700  0.82743300  0.47241200  1
  H  1196  1  0.09680100  0.83902600  0.43776100  1
  H  1198  1  0.15112500  0.72314400  0.47171300  1
  H  1199  1  0.11940100  0.69304900  0.47488200  1
  H  1200  1  0.14283600  0.69714000  0.43786800  1
  H  1206  1  0.04026900  0.22069400  0.60619100  1
  H  1208  1  0.08065500  0.31471500  0.58843500  1
  H  1210  1  0.05358600  0.17406200  0.57573600  1
  H  1211  1  0.07220500  0.18214200  0.53715400  1
  H  1212  1  0.09679300  0.17053600  0.57179500  1
  H  1214  1  0.15114600  0.28641200  0.53785400  1
  H  1215  1  0.11943100  0.31651500  0.53468900  1
  H  1216  1  0.14287100  0.31242100  0.57169900  1
  H  1222  1  0.96931600  0.78888100  0.60616600  1
  H  1224  1  0.92893600  0.69485600  0.58842800  1
  H  1226  1  0.95600100  0.83550000  0.57570100  1
  H  1227  1  0.93739000  0.82741500  0.53711900  1
  H  1228  1  0.91279700  0.83902600  0.57175600  1
  H  1230  1  0.85845300  0.72314900  0.53783400  1
  H  1231  1  0.89016800  0.69304600  0.53468200  1
  H  1232  1  0.86672100  0.69715000  0.57168600  1
  H  1238  1  0.96930300  0.22068500  0.40337800  1
  H  1240  1  0.92894600  0.31471800  0.42115100  1
  H  1242  1  0.95598400  0.17405900  0.43384300  1
  H  1243  1  0.93735800  0.18213700  0.47242000  1
  H  1244  1  0.91277700  0.17053900  0.43777100  1
  H  1246  1  0.85844300  0.28642500  0.47172000  1
  H  1247  1  0.89016300  0.31652300  0.47489200  1
  H  1248  1  0.86672600  0.31243400  0.43787800  1
  C  1  1  0.31965200  0.34564400  0.00579200  1
  C  2  1  0.30318400  0.35310800  0.03641200  1
  C  3  1  0.28096900  0.37991800  0.04069400  1
  C  4  1  0.27244300  0.39834400  0.01242100  1
  C  5  1  0.28424200  0.39048000  0.98047800  1
  C  6  1  0.30920500  0.36543800  0.97791800  1
  C  9  1  0.34564900  0.31966000  0.00376900  1
  C  10  1  0.36544100  0.30921500  0.03164600  1
  C  11  1  0.39048200  0.28425500  0.02908600  1
  C  12  1  0.39836100  0.27246600  0.99714200  1
  C  13  1  0.37995500  0.28101100  0.96886400  1
  C  14  1  0.35313100  0.30320600  0.97314500  1
  C  21  1  0.68991700  0.66390800  0.00580300  1
  C  22  1  0.70636300  0.65641600  0.03642900  1
  C  23  1  0.72853600  0.62956900  0.04071000  1
  C  24  1  0.73709800  0.61117800  0.01242700  1
  C  25  1  0.72532200  0.61907200  0.98048300  1
  C  26  1  0.70036400  0.64411600  0.97792600  1
  C  29  1  0.66392500  0.68990200  0.00378100  1
  C  30  1  0.64413800  0.70034900  0.03166100  1
  C  31  1  0.61908700  0.72530400  0.02910000  1
  C  32  1  0.61120100  0.73708400  0.99715500  1
  C  33  1  0.62959600  0.72852600  0.96887400  1
  C  34  1  0.65644800  0.70636100  0.97316000  1
  C  41  1  0.68991200  0.34563900  0.00378100  1
  C  42  1  0.70638000  0.35310300  0.97316200  1
  C  43  1  0.72859500  0.37991300  0.96887900  1
  C  44  1  0.73712600  0.39833600  0.99715200  1
  C  45  1  0.72532700  0.39047300  0.02909700  1
  C  46  1  0.70036400  0.36543100  0.03165700  1
  C  49  1  0.66391300  0.31965500  0.00580600  1
  C  50  1  0.64412100  0.30921000  0.97792800  1
  C  51  1  0.61907700  0.28425200  0.98048800  1
  C  52  1  0.61119600  0.27246600  0.01243300  1
  C  53  1  0.62960400  0.28101100  0.04071100  1
  C  54  1  0.65643300  0.30320100  0.03643000  1
  C  61  1  0.31966200  0.66392500  0.00379100  1
  C  62  1  0.30321300  0.65643600  0.97316500  1
  C  63  1  0.28104100  0.62959100  0.96888400  1
  C  64  1  0.27247800  0.61119800  0.99716700  1
  C  65  1  0.28425700  0.61909200  0.02911100  1
  C  66  1  0.30921500  0.64413600  0.03166800  1
  C  69  1  0.34565400  0.68991700  0.00581000  1
  C  70  1  0.36544300  0.70036400  0.97793100  1
  C  71  1  0.39049700  0.72531400  0.98049300  1
  C  72  1  0.39838600  0.73709100  0.01243700  1
  C  73  1  0.37998500  0.72853800  0.04071600  1
  C  74  1  0.35313100  0.70638000  0.03643100  1
  C  81  1  0.00579000  0.31965500  0.34564100  1
  C  82  1  0.03641100  0.30318600  0.35310600  1
  C  83  1  0.04069200  0.28097100  0.37991600  1
  C  84  1  0.01242000  0.27244600  0.39834100  1
  C  85  1  0.98047500  0.28424500  0.39047700  1
  C  86  1  0.97791600  0.30920500  0.36543600  1
  C  89  1  0.00376600  0.34564900  0.31965700  1
  C  90  1  0.03164200  0.36544300  0.30921500  1
  C  91  1  0.02908100  0.39048500  0.28425200  1
  C  92  1  0.99713700  0.39836100  0.27246100  1
  C  93  1  0.96885900  0.37995500  0.28100900  1
  C  94  1  0.97314200  0.35312800  0.30320100  1
  C  101  1  0.00579800  0.68991900  0.66391800  1
  C  102  1  0.03642400  0.70636500  0.65642600  1
  C  103  1  0.04070500  0.72853800  0.62958100  1
  C  104  1  0.01242100  0.73710100  0.61118800  1
  C  105  1  0.98047800  0.72532200  0.61907900  1
  C  106  1  0.97792100  0.70036400  0.64412600  1
  C  109  1  0.00377600  0.66392800  0.68991200  1
  C  110  1  0.03165500  0.64413800  0.70035900  1
  C  111  1  0.02909400  0.61908700  0.72531200  1
  C  112  1  0.99715000  0.61120100  0.73709400  1
  C  113  1  0.96886900  0.62959900  0.72853600  1
  C  114  1  0.97315500  0.65645100  0.70637300  1
  C  121  1  0.00378100  0.68991700  0.34563400  1
  C  122  1  0.97316000  0.70638500  0.35309600  1
  C  123  1  0.96887900  0.72860200  0.37990300  1
  C  124  1  0.99715200  0.73713100  0.39832900  1
  C  125  1  0.02909500  0.72532900  0.39046800  1
  C  126  1  0.03165500  0.70036400  0.36542800  1
  C  129  1  0.00580400  0.66391800  0.31965200  1
  C  130  1  0.97792600  0.64412300  0.30920700  1
  C  131  1  0.98048500  0.61907900  0.28425000  1
  C  132  1  0.01243000  0.61120100  0.27246100  1
  C  133  1  0.04070900  0.62960900  0.28100600  1
  C  134  1  0.03642800  0.65643600  0.30319600  1
  C  141  1  0.00379100  0.31966200  0.66392500  1
  C  142  1  0.97316500  0.30321300  0.65643300  1
  C  143  1  0.96888400  0.28104100  0.62958900  1
  C  144  1  0.99716700  0.27247800  0.61119800  1
  C  145  1  0.02911100  0.28425700  0.61908900  1
  C  146  1  0.03166800  0.30921500  0.64413600  1
  C  149  1  0.00580900  0.34565400  0.68991700  1
  C  150  1  0.97793100  0.36544300  0.70036200  1
  C  151  1  0.98049000  0.39049500  0.72531400  1
  C  152  1  0.01243400  0.39838300  0.73709400  1
  C  153  1  0.04071300  0.37998300  0.72854000  1
  C  154  1  0.03643000  0.35313100  0.70638000  1
  C  161  1  0.34564100  0.00578800  0.31965500  1
  C  162  1  0.35310600  0.03640900  0.30318600  1
  C  163  1  0.37991600  0.04069100  0.28097400  1
  C  164  1  0.39834100  0.01241800  0.27244600  1
  C  165  1  0.39047700  0.98047500  0.28424500  1
  C  166  1  0.36543600  0.97791300  0.30920500  1
  C  169  1  0.31965700  0.00376400  0.34565100  1
  C  170  1  0.30921200  0.03164000  0.36544300  1
  C  171  1  0.28425200  0.02908100  0.39048700  1
  C  172  1  0.27246100  0.99713700  0.39836300  1
  C  173  1  0.28100900  0.96885900  0.37995800  1
  C  174  1  0.30320100  0.97314000  0.35313100  1
  C  181  1  0.66391500  0.00579700  0.68991400  1
  C  182  1  0.65642600  0.03642300  0.70636100  1
  C  183  1  0.62957900  0.04070500  0.72853100  1
  C  184  1  0.61118800  0.01242300  0.73709600  1
  C  185  1  0.61907900  0.98047800  0.72531700  1
  C  186  1  0.64412600  0.97792100  0.70036200  1
  C  189  1  0.68990900  0.00377600  0.66392500  1
  C  190  1  0.70035900  0.03165300  0.64413300  1
  C  191  1  0.72531200  0.02909200  0.61908400  1
  C  192  1  0.73709400  0.99714700  0.61119800  1
  C  193  1  0.72853600  0.96886900  0.62959600  1
  C  194  1  0.70637300  0.97315500  0.65644800  1
  C  201  1  0.34563900  0.00378600  0.68991400  1
  C  202  1  0.35310100  0.97316500  0.70638300  1
  C  203  1  0.37991100  0.96888200  0.72859800  1
  C  204  1  0.39833600  0.99715500  0.73712600  1
  C  205  1  0.39047300  0.02909900  0.72532700  1
  C  206  1  0.36543300  0.03166000  0.70036400  1
  C  209  1  0.31965500  0.00581000  0.66391500  1
  C  210  1  0.30921200  0.97793300  0.64412300  1
  C  211  1  0.28425200  0.98049300  0.61907900  1
  C  212  1  0.27246600  0.01243500  0.61120100  1
  C  213  1  0.28100900  0.04071400  0.62960600  1
  C  214  1  0.30320100  0.03643400  0.65643300  1
  C  221  1  0.66392500  0.00379100  0.31966200  1
  C  222  1  0.65643600  0.97316500  0.30321300  1
  C  223  1  0.62959100  0.96888400  0.28104100  1
  C  224  1  0.61119800  0.99716700  0.27247800  1
  C  225  1  0.61908900  0.02911200  0.28425500  1
  C  226  1  0.64413600  0.03166900  0.30921200  1
  C  229  1  0.68991700  0.00581100  0.34565100  1
  C  230  1  0.70036200  0.97793300  0.36544300  1
  C  231  1  0.72531400  0.98049300  0.39049500  1
  C  232  1  0.73709400  0.01243700  0.39838300  1
  C  233  1  0.72854000  0.04071600  0.37998300  1
  C  234  1  0.70638000  0.03643100  0.35312800  1
  C  241  1  0.81350800  0.83949700  0.50548600  1
  C  242  1  0.79738400  0.84826100  0.53596100  1
  C  243  1  0.77697000  0.87656100  0.53995900  1
  C  244  1  0.76959000  0.89539800  0.51162600  1
  C  245  1  0.78107200  0.88610900  0.48004500  1
  C  246  1  0.80366300  0.85910300  0.47730800  1
  C  249  1  0.83950700  0.81350300  0.50404300  1
  C  250  1  0.85910800  0.80365800  0.53222400  1
  C  251  1  0.88612400  0.78107600  0.52948600  1
  C  252  1  0.89541100  0.76958700  0.49790800  1
  C  253  1  0.87660600  0.77700700  0.46956500  1
  C  254  1  0.84828300  0.79739400  0.47356500  1
  C  261  1  0.19606600  0.17006400  0.50551100  1
  C  262  1  0.21218300  0.16129600  0.53598900  1
  C  263  1  0.23254300  0.13295600  0.53999400  1
  C  264  1  0.23997500  0.11415300  0.51165100  1
  C  265  1  0.22850400  0.12345100  0.48007000  1
  C  266  1  0.20590800  0.15045300  0.47733200  1
  C  269  1  0.17006900  0.19605900  0.50406500  1
  C  270  1  0.15047600  0.20591400  0.53225400  1
  C  271  1  0.12346500  0.22850000  0.52951900  1
  C  272  1  0.11416200  0.23997400  0.49794000  1
  C  273  1  0.13296200  0.23254500  0.46959800  1
  C  274  1  0.16129800  0.21217900  0.47359300  1
  C  281  1  0.19607500  0.83949200  0.50407300  1
  C  282  1  0.21219900  0.84825600  0.47360000  1
  C  283  1  0.23261000  0.87656100  0.46960000  1
  C  284  1  0.23998600  0.89539800  0.49793500  1
  C  285  1  0.22850800  0.88610600  0.52951400  1
  C  286  1  0.20592000  0.85909800  0.53225200  1
  C  289  1  0.17007800  0.81349800  0.50551400  1
  C  290  1  0.15047700  0.80365300  0.47733000  1
  C  291  1  0.12346600  0.78106700  0.48006500  1
  C  292  1  0.11417600  0.76957700  0.51164100  1
  C  293  1  0.13297800  0.77699700  0.53998600  1
  C  294  1  0.16129800  0.79738700  0.53599100  1
  C  301  1  0.81351800  0.17007000  0.50407000  1
  C  302  1  0.79739900  0.16130400  0.47359500  1
  C  303  1  0.77703900  0.13296500  0.46959300  1
  C  304  1  0.76960500  0.11416400  0.49793300  1
  C  305  1  0.78107900  0.12345900  0.52951400  1
  C  306  1  0.80367800  0.15045800  0.53224900  1
  C  309  1  0.83951500  0.19606600  0.50551600  1
  C  310  1  0.85910600  0.20592100  0.47732700  1
  C  311  1  0.88611600  0.22851000  0.48006300  1
  C  312  1  0.89541600  0.23998600  0.51163900  1
  C  313  1  0.87661600  0.23255700  0.53998100  1
  C  314  1  0.84828300  0.21218700  0.53598900  1
  C  321  1  0.50548400  0.81350800  0.83949200  1
  C  322  1  0.53595400  0.79737400  0.84824100  1
  C  323  1  0.53995600  0.77696700  0.87654900  1
  C  324  1  0.51162100  0.76958000  0.89538300  1
  C  325  1  0.48004300  0.78107400  0.88610600  1
  C  326  1  0.47730500  0.80367300  0.85910600  1
  C  329  1  0.50404100  0.83950700  0.81350100  1
  C  330  1  0.53222700  0.85910800  0.80366100  1
  C  331  1  0.52949100  0.88611900  0.78107400  1
  C  332  1  0.49791500  0.89540800  0.76958200  1
  C  333  1  0.46957000  0.87660300  0.77700000  1
  C  334  1  0.47356500  0.84828300  0.79738700  1
  C  341  1  0.50551100  0.19606700  0.17006500  1
  C  342  1  0.53598600  0.21218300  0.16129600  1
  C  343  1  0.53999100  0.23254400  0.13295600  1
  C  344  1  0.51164900  0.23997700  0.11415500  1
  C  345  1  0.48007000  0.22850600  0.12345300  1
  C  346  1  0.47733200  0.20590900  0.15045500  1
  C  349  1  0.50406500  0.17007000  0.19606000  1
  C  350  1  0.53225400  0.15047700  0.20591500  1
  C  351  1  0.52951900  0.12346500  0.22850000  1
  C  352  1  0.49794000  0.11416100  0.23997400  1
  C  353  1  0.46959500  0.13296100  0.23254500  1
  C  354  1  0.47359300  0.16129800  0.21218000  1
  C  361  1  0.50407500  0.19607400  0.83948500  1
  C  362  1  0.47360500  0.21220800  0.84823600  1
  C  363  1  0.46960300  0.23261000  0.87654600  1
  C  364  1  0.49793500  0.23999400  0.89538300  1
  C  365  1  0.52951600  0.22850300  0.88610100  1
  C  366  1  0.53225400  0.20590900  0.85909800  1
  C  369  1  0.50551600  0.17007700  0.81349100  1
  C  370  1  0.47733200  0.15047700  0.80365100  1
  C  371  1  0.48006300  0.12346700  0.78106200  1
  C  372  1  0.51163900  0.11417700  0.76957200  1
  C  373  1  0.53998600  0.13297900  0.77698700  1
  C  374  1  0.53599100  0.16129900  0.79737900  1
  C  381  1  0.50407300  0.81351800  0.17007200  1
  C  382  1  0.47359800  0.79739900  0.16130500  1
  C  383  1  0.46959500  0.77703700  0.13296700  1
  C  384  1  0.49793800  0.76960000  0.11416700  1
  C  385  1  0.52951600  0.78107600  0.12346300  1
  C  386  1  0.53225200  0.80367600  0.15046100  1
  C  389  1  0.50551600  0.83951200  0.19606800  1
  C  390  1  0.47732700  0.85910600  0.20592200  1
  C  391  1  0.48006300  0.88611400  0.22851000  1
  C  392  1  0.51163900  0.89541600  0.23998700  1
  C  393  1  0.53998400  0.87661600  0.23255800  1
  C  394  1  0.53598900  0.84828100  0.21218900  1
  C  401  1  0.83949500  0.50548900  0.81350600  1
  C  402  1  0.84825900  0.53596100  0.79738200  1
  C  403  1  0.87656100  0.53996100  0.77697000  1
  C  404  1  0.89539600  0.51162400  0.76959000  1
  C  405  1  0.88610600  0.48004500  0.78107200  1
  C  406  1  0.85910100  0.47730800  0.80366300  1
  C  409  1  0.81350300  0.50404800  0.83950500  1
  C  410  1  0.80366600  0.53223200  0.85911000  1
  C  411  1  0.78107900  0.52949900  0.88611900  1
  C  412  1  0.76958700  0.49792300  0.89541100  1
  C  413  1  0.77700200  0.46957500  0.87660600  1
  C  414  1  0.79738900  0.47357300  0.84828300  1
  C  421  1  0.17006200  0.50551400  0.19606600  1
  C  422  1  0.16129300  0.53598900  0.21218200  1
  C  423  1  0.13295200  0.53999600  0.23254200  1
  C  424  1  0.11415100  0.51165400  0.23997500  1
  C  425  1  0.12344900  0.48007300  0.22850500  1
  C  426  1  0.15045100  0.47733500  0.20590900  1
  C  429  1  0.19605700  0.50406800  0.17007000  1
  C  430  1  0.20591200  0.53225600  0.15047700  1
  C  431  1  0.22849900  0.52952100  0.12346600  1
  C  432  1  0.23997200  0.49794300  0.11416300  1
  C  433  1  0.23254300  0.46959800  0.13296300  1
  C  434  1  0.21217700  0.47359500  0.16130000  1
  C  441  1  0.83949000  0.50406500  0.19607800  1
  C  442  1  0.84825400  0.47359300  0.21220300  1
  C  443  1  0.87655900  0.46959500  0.23261300  1
  C  444  1  0.89539600  0.49793000  0.23998800  1
  C  445  1  0.88610400  0.52950900  0.22850900  1
  C  446  1  0.85909600  0.53224700  0.20592100  1
  C  449  1  0.81349600  0.50550600  0.17008100  1
  C  450  1  0.80365300  0.47732000  0.15048000  1
  C  451  1  0.78106700  0.48005300  0.12346900  1
  C  452  1  0.76957700  0.51162900  0.11417900  1
  C  453  1  0.77699200  0.53997600  0.13298200  1
  C  454  1  0.79738200  0.53598100  0.16130300  1
  C  461  1  0.17007000  0.50407300  0.81351800  1
  C  462  1  0.16130300  0.47359800  0.79739900  1
  C  463  1  0.13296400  0.46959300  0.77703900  1
  C  464  1  0.11416400  0.49793500  0.76960500  1
  C  465  1  0.12346000  0.52951600  0.78107900  1
  C  466  1  0.15045900  0.53225200  0.80367800  1
  C  469  1  0.19606600  0.50551600  0.83951500  1
  C  470  1  0.20592100  0.47732700  0.85910600  1
  C  471  1  0.22850900  0.48006300  0.88611600  1
  C  472  1  0.23998600  0.51163900  0.89541600  1
  C  473  1  0.23255700  0.53998400  0.87661600  1
  C  474  1  0.21218700  0.53598900  0.84828300  1
  C  481  1  0.39157400  0.26863400  0.93752900  1
  C  482  1  0.39637200  0.23423200  0.93291600  1
  C  483  1  0.41944500  0.22141000  0.90967700  1
  C  484  1  0.43822000  0.24370900  0.88951100  1
  C  485  1  0.43135800  0.27842700  0.89185500  1
  C  487  1  0.40836500  0.29025400  0.91573800  1
  C  489  1  0.42558200  0.18491700  0.90935500  1
  C  493  1  0.44929700  0.30388800  0.87197600  1
  C  497  1  0.61798800  0.74089300  0.93753900  1
  C  498  1  0.61317000  0.77530100  0.93293600  1
  C  499  1  0.59010400  0.78814400  0.90969700  1
  C  500  1  0.57133900  0.76586200  0.88950900  1
  C  501  1  0.57820300  0.73114700  0.89183000  1
  C  503  1  0.60119400  0.71931000  0.91571100  1
  C  505  1  0.58396900  0.82463800  0.90940000  1
  C  509  1  0.56026900  0.70569300  0.87193100  1
  C  513  1  0.61799500  0.26861700  0.07204300  1
  C  514  1  0.61324400  0.23420300  0.07664300  1
  C  515  1  0.59018100  0.22133900  0.09986900  1
  C  516  1  0.57139600  0.24363600  0.12000200  1
  C  517  1  0.57817900  0.27837000  0.11771000  1
  C  519  1  0.60116700  0.29021900  0.09382900  1
  C  521  1  0.58406100  0.18484500  0.10018300  1
  C  525  1  0.56022200  0.30380600  0.13760800  1
  C  529  1  0.39158600  0.74092200  0.07204900  1
  C  530  1  0.39636000  0.77534100  0.07664100  1
  C  531  1  0.41941500  0.78822300  0.09986500  1
  C  532  1  0.43819000  0.76593900  0.12001700  1
  C  533  1  0.43140300  0.73120900  0.11774800  1
  C  535  1  0.40841400  0.71935500  0.09386900  1
  C  537  1  0.42553800  0.82471700  0.10015600  1
  C  541  1  0.44935000  0.70578300  0.13766300  1
  C  545  1  0.93752600  0.39156900  0.26862400  1
  C  546  1  0.93291400  0.39632700  0.23421500  1
  C  547  1  0.90968500  0.41939500  0.22137000  1
  C  548  1  0.88955800  0.43820000  0.24365900  1
  C  549  1  0.89187200  0.43139000  0.27839200  1
  C  551  1  0.91575100  0.40839700  0.29023400  1
  C  553  1  0.90936000  0.42553000  0.18488000  1
  C  557  1  0.87198300  0.44933500  0.30384800  1
  C  561  1  0.93753600  0.61799000  0.74091000  1
  C  562  1  0.93293100  0.61321200  0.77532300  1
  C  563  1  0.90970500  0.59015100  0.78819100  1
  C  564  1  0.88955800  0.57135400  0.76591700  1
  C  565  1  0.89184700  0.57816900  0.73118400  1
  C  567  1  0.91572300  0.60116000  0.71933800  1
  C  569  1  0.90940500  0.58401600  0.82468000  1
  C  573  1  0.87194100  0.56023200  0.70573800  1
  C  577  1  0.07204100  0.61800000  0.26861200  1
  C  578  1  0.07664000  0.61324900  0.23419800  1
  C  579  1  0.09986700  0.59018400  0.22133500  1
  C  580  1  0.11999900  0.57140100  0.24363400  1
  C  581  1  0.11770700  0.57818400  0.27836800  1
  C  583  1  0.09382600  0.60117200  0.29021400  1
  C  585  1  0.10018100  0.58406300  0.18484200  1
  C  589  1  0.13760400  0.56022700  0.30380400  1
  C  593  1  0.07204600  0.39158300  0.74092500  1
  C  594  1  0.07663800  0.39635700  0.77534300  1
  C  595  1  0.09986200  0.41941300  0.78822600  1
  C  596  1  0.12001400  0.43819000  0.76594200  1
  C  597  1  0.11774500  0.43140000  0.73121100  1
  C  599  1  0.09386700  0.40841400  0.71935800  1
  C  601  1  0.10015300  0.42553500  0.82472000  1
  C  605  1  0.13766100  0.44935000  0.70578500  1
  C  609  1  0.26862400  0.93752600  0.39157100  1
  C  610  1  0.23421400  0.93291400  0.39633000  1
  C  611  1  0.22136800  0.90968500  0.41940000  1
  C  612  1  0.24365600  0.88956100  0.43820500  1
  C  613  1  0.27839000  0.89187200  0.43139500  1
  C  615  1  0.29023100  0.91575100  0.40840200  1
  C  617  1  0.18487800  0.90936200  0.42553300  1
  C  621  1  0.30384600  0.87198300  0.44934000  1
  C  625  1  0.74091000  0.93753400  0.61799000  1
  C  626  1  0.77532600  0.93292900  0.61321200  1
  C  627  1  0.78819100  0.90970200  0.59015100  1
  C  628  1  0.76592000  0.88955600  0.57135400  1
  C  629  1  0.73118600  0.89184500  0.57816900  1
  C  631  1  0.71933800  0.91572100  0.60116000  1
  C  633  1  0.82468200  0.90940200  0.58401600  1
  C  637  1  0.70574100  0.87193900  0.56023400  1
  C  641  1  0.26861400  0.07204600  0.61799800  1
  C  642  1  0.23420200  0.07664500  0.61324600  1
  C  643  1  0.22133800  0.09987100  0.59018400  1
  C  644  1  0.24363500  0.12000300  0.57139900  1
  C  645  1  0.27837000  0.11771100  0.57818100  1
  C  647  1  0.29021600  0.09383100  0.60117000  1
  C  649  1  0.18484400  0.10018600  0.58406300  1
  C  653  1  0.30380400  0.13760900  0.56022400  1
  C  657  1  0.74092200  0.07204900  0.39158100  1
  C  658  1  0.77534300  0.07664000  0.39635500  1
  C  659  1  0.78822600  0.09986400  0.41941000  1
  C  660  1  0.76594200  0.12001600  0.43818800  1
  C  661  1  0.73121100  0.11774800  0.43140000  1
  C  663  1  0.71935800  0.09386900  0.40841200  1
  C  665  1  0.82472000  0.10015500  0.42553300  1
  C  669  1  0.70578500  0.13766300  0.44935000  1
  C  673  1  0.26859700  0.39154400  0.07202700  1
  C  674  1  0.23419100  0.39630300  0.07664600  1
  C  675  1  0.22135100  0.41938000  0.09987000  1
  C  676  1  0.24362900  0.43821000  0.11999700  1
  C  677  1  0.27836000  0.43138300  0.11766300  1
  C  679  1  0.29020400  0.40838200  0.09379300  1
  C  681  1  0.18485700  0.42549600  0.10019600  1
  C  685  1  0.30381400  0.44934000  0.13753700  1
  C  689  1  0.74091500  0.61795300  0.07205200  1
  C  690  1  0.77533300  0.61323900  0.07662700  1
  C  691  1  0.78819600  0.59017900  0.09985700  1
  C  692  1  0.76592400  0.57136900  0.12000100  1
  C  693  1  0.73118400  0.57816600  0.11771700  1
  C  695  1  0.71931300  0.60115200  0.09384300  1
  C  697  1  0.82468700  0.58405600  0.10016400  1
  C  701  1  0.70575300  0.56022200  0.13763100  1
  C  705  1  0.26866400  0.61797300  0.93754100  1
  C  706  1  0.23424800  0.61325400  0.93296600  1
  C  707  1  0.22139200  0.59018900  0.90973400  1
  C  708  1  0.24365300  0.57136900  0.88957800  1
  C  709  1  0.27838700  0.57819100  0.89187900  1
  C  711  1  0.29026400  0.60117700  0.91574800  1
  C  713  1  0.18489600  0.58407800  0.90942700  1
  C  717  1  0.30382100  0.56024200  0.87197100  1
  C  721  1  0.74097000  0.39154100  0.93754600  1
  C  722  1  0.77538000  0.39628800  0.93292900  1
  C  723  1  0.78822800  0.41936300  0.90970500  1
  C  724  1  0.76594200  0.43818000  0.88959100  1
  C  725  1  0.73120400  0.43138300  0.89190900  1
  C  727  1  0.71936200  0.40838500  0.91578300  1
  C  729  1  0.82472000  0.42548300  0.90937700  1
  C  733  1  0.70575300  0.44933500  0.87202800  1
  C  737  1  0.39153600  0.93754900  0.74097000  1
  C  738  1  0.39628500  0.93293100  0.77538000  1
  C  739  1  0.41935800  0.90970500  0.78822800  1
  C  740  1  0.43817300  0.88959100  0.76593900  1
  C  741  1  0.43137300  0.89190700  0.73120400  1
  C  743  1  0.40837700  0.91578300  0.71936200  1
  C  745  1  0.42548100  0.90937700  0.82472000  1
  C  749  1  0.44932500  0.87202600  0.70575000  1
  C  753  1  0.61797300  0.93754100  0.26866400  1
  C  754  1  0.61325100  0.93296600  0.23424700  1
  C  755  1  0.59018900  0.90973400  0.22139200  1
  C  756  1  0.57136900  0.88957800  0.24365400  1
  C  757  1  0.57819100  0.89187900  0.27839000  1
  C  759  1  0.60117700  0.91574800  0.29026400  1
  C  761  1  0.58407600  0.90942700  0.18489600  1
  C  765  1  0.56024200  0.87197100  0.30382100  1
  C  769  1  0.61796300  0.07204700  0.74091000  1
  C  770  1  0.61324600  0.07662300  0.77532800  1
  C  771  1  0.59018600  0.09985300  0.78819100  1
  C  772  1  0.57137900  0.11999700  0.76592000  1
  C  773  1  0.57817900  0.11771300  0.73117900  1
  C  775  1  0.60116200  0.09383900  0.71930800  1
  C  777  1  0.58406600  0.10016000  0.82468500  1
  C  781  1  0.56023200  0.13762700  0.70574800  1
  C  785  1  0.39154100  0.07202400  0.26859900  1
  C  786  1  0.39630000  0.07664300  0.23419400  1
  C  787  1  0.41937800  0.09986700  0.22135400  1
  C  788  1  0.43820700  0.11999400  0.24363200  1
  C  789  1  0.43138000  0.11766000  0.27836300  1
  C  791  1  0.40838000  0.09379000  0.29020700  1
  C  793  1  0.42549300  0.10019400  0.18486000  1
  C  797  1  0.44934000  0.13753400  0.30381600  1
  C  801  1  0.93754100  0.26866400  0.61797300  1
  C  802  1  0.93296600  0.23424700  0.61325100  1
  C  803  1  0.90973400  0.22139100  0.59018900  1
  C  804  1  0.88957800  0.24365300  0.57136900  1
  C  805  1  0.89187900  0.27838700  0.57819100  1
  C  807  1  0.91574800  0.29026400  0.60117700  1
  C  809  1  0.90942900  0.18489600  0.58407600  1
  C  813  1  0.87197100  0.30382100  0.56024200  1
  C  817  1  0.93754600  0.74097700  0.39152900  1
  C  818  1  0.93292900  0.77538800  0.39627800  1
  C  819  1  0.90970500  0.78823600  0.41935100  1
  C  820  1  0.88958800  0.76594700  0.43816800  1
  C  821  1  0.89190400  0.73121100  0.43136600  1
  C  823  1  0.91578000  0.71937000  0.40837000  1
  C  825  1  0.90937700  0.82472700  0.42547600  1
  C  829  1  0.87202300  0.70575800  0.44931700  1
  C  833  1  0.07202600  0.26859900  0.39154100  1
  C  834  1  0.07664500  0.23419300  0.39630000  1
  C  835  1  0.09986800  0.22135400  0.41937800  1
  C  836  1  0.11999600  0.24363100  0.43820700  1
  C  837  1  0.11766200  0.27836300  0.43138000  1
  C  839  1  0.09379200  0.29020700  0.40838000  1
  C  841  1  0.10019500  0.18485900  0.42549300  1
  C  845  1  0.13753500  0.30381600  0.44934000  1
  C  849  1  0.07204600  0.74091700  0.61796300  1
  C  850  1  0.07662100  0.77533600  0.61324600  1
  C  851  1  0.09985100  0.78820100  0.59018900  1
  C  852  1  0.11999600  0.76592900  0.57138100  1
  C  853  1  0.11771300  0.73118900  0.57817900  1
  C  855  1  0.09383900  0.71931800  0.60116200  1
  C  857  1  0.10015800  0.82469200  0.58406600  1
  C  861  1  0.13762800  0.70575500  0.56023400  1
  C  865  1  0.60077000  0.73946400  0.05645700  1
  C  866  1  0.59506900  0.77411800  0.05768800  1
  C  867  1  0.57245300  0.78889500  0.08005800  1
  C  868  1  0.55706800  0.76868500  0.10464000  1
  C  869  1  0.56485200  0.73409000  0.10590000  1
  C  871  1  0.58554900  0.72005200  0.08124600  1
  C  873  1  0.56391200  0.82461800  0.07536400  1
  C  877  1  0.55136600  0.71077500  0.13127100  1
  C  881  1  0.40880400  0.27010200  0.05644400  1
  C  882  1  0.41450700  0.23544700  0.05768400  1
  C  883  1  0.43713100  0.22067600  0.08005200  1
  C  884  1  0.45251900  0.24089500  0.10462700  1
  C  885  1  0.44473700  0.27548800  0.10587700  1
  C  887  1  0.42403500  0.28952200  0.08122200  1
  C  889  1  0.44567200  0.18495200  0.07536600  1
  C  893  1  0.45822500  0.29881200  0.13123900  1
  C  897  1  0.40881400  0.73947700  0.95313500  1
  C  898  1  0.41452000  0.77413000  0.95190700  1
  C  899  1  0.43712900  0.78891000  0.92953400  1
  C  900  1  0.45249400  0.76869700  0.90494100  1
  C  901  1  0.44471000  0.73410300  0.90367100  1
  C  903  1  0.42402300  0.72006400  0.92833600  1
  C  905  1  0.44568400  0.82462800  0.93423100  1
  C  909  1  0.45817800  0.71079000  0.87829000  1
  C  913  1  0.60075800  0.27009500  0.95313000  1
  C  914  1  0.59504700  0.23543900  0.95190000  1
  C  915  1  0.57243300  0.22066400  0.92952600  1
  C  916  1  0.55706500  0.24088100  0.90493800  1
  C  917  1  0.56484700  0.27547600  0.90367600  1
  C  919  1  0.58553900  0.28951000  0.92834100  1
  C  921  1  0.56388000  0.18494400  0.93421800  1
  C  925  1  0.55137400  0.29879400  0.87830200  1
  C  929  1  0.05645100  0.60077000  0.73947200  1
  C  930  1  0.05768400  0.59506900  0.77412500  1
  C  931  1  0.08005400  0.57245000  0.78890000  1
  C  932  1  0.10463600  0.55706800  0.76869000  1
  C  933  1  0.10589500  0.56485200  0.73409300  1
  C  935  1  0.08124000  0.58554900  0.72005700  1
  C  937  1  0.07536100  0.56390900  0.82462500  1
  C  941  1  0.13126400  0.55136600  0.71078000  1
  C  945  1  0.05643900  0.40880600  0.27010000  1
  C  946  1  0.05767900  0.41451200  0.23544500  1
  C  947  1  0.08004800  0.43713400  0.22067500  1
  C  948  1  0.10462300  0.45252400  0.24089300  1
  C  949  1  0.10587200  0.44473900  0.27548800  1
  C  951  1  0.08121600  0.42404000  0.28952000  1
  C  953  1  0.07536200  0.44567400  0.18495000  1
  C  957  1  0.13123300  0.45823000  0.29881200  1
  C  961  1  0.95313000  0.40881100  0.73947400  1
  C  962  1  0.95190200  0.41451200  0.77413000  1
  C  963  1  0.92952600  0.43712400  0.78890800  1
  C  964  1  0.90494100  0.45249400  0.76869200  1
  C  965  1  0.90367400  0.44471200  0.73409800  1
  C  967  1  0.92833600  0.42402500  0.72006200  1
  C  969  1  0.93421800  0.44567200  0.82462800  1
  C  973  1  0.87829700  0.45818500  0.71078200  1
  C  977  1  0.95312700  0.60076000  0.27009200  1
  C  978  1  0.95189200  0.59505200  0.23543900  1
  C  979  1  0.92952100  0.57243500  0.22066600  1
  C  980  1  0.90494100  0.55706300  0.24088500  1
  C  981  1  0.90368100  0.56484200  0.27548100  1
  C  983  1  0.92834300  0.58553600  0.28951200  1
  C  985  1  0.93420800  0.56388500  0.18494400  1
  C  989  1  0.87831200  0.55136400  0.29880200  1
  C  993  1  0.73947200  0.05644900  0.60076500  1
  C  994  1  0.77412500  0.05768200  0.59506700  1
  C  995  1  0.78890000  0.08005300  0.57244800  1
  C  996  1  0.76869000  0.10463500  0.55706500  1
  C  997  1  0.73409300  0.10589300  0.56484700  1
  C  999  1  0.72005700  0.08123800  0.58554400  1
  C  1001  1  0.82462500  0.07536100  0.56390700  1
  C  1005  1  0.71078000  0.13126300  0.55136400  1
  C  1009  1  0.27009700  0.05643900  0.40880600  1
  C  1010  1  0.23544400  0.05767900  0.41451200  1
  C  1011  1  0.22067400  0.08004900  0.43713400  1
  C  1012  1  0.24089200  0.10462400  0.45252100  1
  C  1013  1  0.27548800  0.10587300  0.44473900  1
  C  1015  1  0.28952000  0.08121600  0.42404000  1
  C  1017  1  0.18494900  0.07536300  0.44567400  1
  C  1021  1  0.29880900  0.13123500  0.45822700  1
  C  1025  1  0.73947400  0.95313500  0.40881100  1
  C  1026  1  0.77412800  0.95190500  0.41451500  1
  C  1027  1  0.78890800  0.92953100  0.43712600  1
  C  1028  1  0.76869200  0.90494300  0.45249400  1
  C  1029  1  0.73409800  0.90367600  0.44471500  1
  C  1031  1  0.72005900  0.92833800  0.42402500  1
  C  1033  1  0.82462800  0.93422300  0.44567400  1
  C  1037  1  0.71078200  0.87830000  0.45818800  1
  C  1041  1  0.27009500  0.95313200  0.60076000  1
  C  1042  1  0.23544100  0.95189700  0.59505400  1
  C  1043  1  0.22066600  0.92952400  0.57243800  1
  C  1044  1  0.24088500  0.90494300  0.55706500  1
  C  1045  1  0.27548100  0.90368400  0.56484400  1
  C  1047  1  0.28951200  0.92834600  0.58553600  1
  C  1049  1  0.18494400  0.93421300  0.56389000  1
  C  1053  1  0.29879900  0.87831500  0.55136600  1
  C  1057  1  0.73948900  0.60077000  0.95311700  1
  C  1058  1  0.77414000  0.59504400  0.95190000  1
  C  1059  1  0.78891500  0.57242300  0.92953400  1
  C  1060  1  0.76870200  0.55705300  0.90494800  1
  C  1061  1  0.73410800  0.56483900  0.90367900  1
  C  1063  1  0.72007400  0.58553600  0.92833600  1
  C  1065  1  0.82463500  0.56386500  0.93423300  1
  C  1069  1  0.71079200  0.55136100  0.87830500  1
  C  1073  1  0.27009000  0.40880400  0.95312000  1
  C  1074  1  0.23543500  0.41451500  0.95188500  1
  C  1075  1  0.22066300  0.43713600  0.92951600  1
  C  1076  1  0.24089400  0.45250600  0.90494300  1
  C  1077  1  0.27548600  0.44472700  0.90367900  1
  C  1079  1  0.28951200  0.42403000  0.92833800  1
  C  1081  1  0.18494200  0.44568900  0.93420800  1
  C  1085  1  0.29880700  0.45821300  0.87831200  1
  C  1089  1  0.73948200  0.40879400  0.05645300  1
  C  1090  1  0.77413500  0.41450500  0.05768900  1
  C  1091  1  0.78891000  0.43712400  0.08005900  1
  C  1092  1  0.76869000  0.45249900  0.10463700  1
  C  1093  1  0.73409500  0.44471700  0.10589800  1
  C  1095  1  0.72006400  0.42402300  0.08123700  1
  C  1097  1  0.82463000  0.44567400  0.07536800  1
  C  1101  1  0.71077500  0.45819500  0.13126700  1
  C  1105  1  0.27009200  0.60079000  0.05647700  1
  C  1106  1  0.23543900  0.59506400  0.05769600  1
  C  1107  1  0.22066200  0.57244300  0.08006100  1
  C  1108  1  0.24088700  0.55707500  0.10463900  1
  C  1109  1  0.27547900  0.56485400  0.10591400  1
  C  1111  1  0.28951000  0.58555400  0.08125800  1
  C  1113  1  0.18494300  0.56388700  0.07536200  1
  C  1117  1  0.29879400  0.55136900  0.13128200  1
  C  1121  1  0.60078800  0.05647700  0.27009200  1
  C  1122  1  0.59506200  0.05769600  0.23543900  1
  C  1123  1  0.57244000  0.08006200  0.22066300  1
  C  1124  1  0.55707300  0.10463900  0.24088900  1
  C  1125  1  0.56485200  0.10591300  0.27548100  1
  C  1127  1  0.58555400  0.08125800  0.28951000  1
  C  1129  1  0.56388500  0.07536300  0.18494400  1
  C  1133  1  0.55136600  0.13128100  0.29879700  1
  C  1137  1  0.40879900  0.05645400  0.73948200  1
  C  1138  1  0.41451000  0.05768900  0.77413500  1
  C  1139  1  0.43713400  0.08005700  0.78890800  1
  C  1140  1  0.45250600  0.10463600  0.76868700  1
  C  1141  1  0.44472500  0.10589700  0.73409300  1
  C  1143  1  0.42402500  0.08123800  0.72006200  1
  C  1145  1  0.44568700  0.07536500  0.82462800  1
  C  1149  1  0.45820000  0.13126600  0.71077200  1
  C  1153  1  0.40880100  0.95311700  0.27009200  1
  C  1154  1  0.41451200  0.95188200  0.23543700  1
  C  1155  1  0.43713600  0.92951400  0.22066500  1
  C  1156  1  0.45250600  0.90494300  0.24089600  1
  C  1157  1  0.44472700  0.90367600  0.27548800  1
  C  1159  1  0.42402800  0.92833600  0.28951500  1
  C  1161  1  0.44568900  0.93420600  0.18494400  1
  C  1165  1  0.45821000  0.87831000  0.29880700  1
  C  1169  1  0.60077500  0.95311500  0.73948200  1
  C  1170  1  0.59504400  0.95189500  0.77413300  1
  C  1171  1  0.57242000  0.92952900  0.78890300  1
  C  1172  1  0.55704500  0.90494100  0.76869000  1
  C  1173  1  0.56483900  0.90367900  0.73409800  1
  C  1175  1  0.58554100  0.92833300  0.72006700  1
  C  1177  1  0.56386000  0.93423300  0.82462000  1
  C  1181  1  0.55136100  0.87831000  0.71078000  1
  C  1185  1  0.05645100  0.73948200  0.40879400  1
  C  1186  1  0.05769100  0.77413500  0.41450500  1
  C  1187  1  0.08005900  0.78890000  0.43713100  1
  C  1188  1  0.10463800  0.76868200  0.45251100  1
  C  1189  1  0.10588900  0.73409000  0.44472200  1
  C  1191  1  0.08123100  0.72005900  0.42402300  1
  C  1193  1  0.07536800  0.82462300  0.44568200  1
  C  1197  1  0.13125300  0.71076700  0.45820300  1
  C  1201  1  0.05647700  0.27009200  0.60078800  1
  C  1202  1  0.05769600  0.23544000  0.59506200  1
  C  1203  1  0.08006100  0.22066300  0.57244000  1
  C  1204  1  0.10463900  0.24088900  0.55707300  1
  C  1205  1  0.10591300  0.27548100  0.56485400  1
  C  1207  1  0.08125800  0.28951000  0.58555400  1
  C  1209  1  0.07536200  0.18494400  0.56388500  1
  C  1213  1  0.13128100  0.29879700  0.55136600  1
  C  1217  1  0.95311200  0.73947900  0.60077500  1
  C  1218  1  0.95189000  0.77413000  0.59503900  1
  C  1219  1  0.92952600  0.78889800  0.57241000  1
  C  1220  1  0.90494100  0.76867700  0.55703500  1
  C  1221  1  0.90368100  0.73408800  0.56483700  1
  C  1223  1  0.92833300  0.72005900  0.58554400  1
  C  1225  1  0.93422800  0.82461600  0.56385000  1
  C  1229  1  0.87831700  0.71077000  0.55135400  1
  C  1233  1  0.95312000  0.27009000  0.40880400  1
  C  1234  1  0.95188500  0.23543600  0.41451500  1
  C  1235  1  0.92951600  0.22066400  0.43713600  1
  C  1236  1  0.90494300  0.24089500  0.45250600  1
  C  1237  1  0.90367600  0.27548800  0.44472700  1
  C  1239  1  0.92833800  0.28951200  0.42402800  1
  C  1241  1  0.93420800  0.18494300  0.44568900  1
  C  1245  1  0.87831200  0.29880700  0.45821000  1
  O  17  1  0.32456800  0.36251900  0.94798400  1
  O  18  1  0.36251400  0.32457300  0.06158300  1
  O  37  1  0.68502900  0.64706400  0.94797900  1
  O  38  1  0.64706700  0.68500400  0.06160200  1
  O  57  1  0.68500100  0.36251200  0.06159200  1
  O  58  1  0.64705200  0.32456300  0.94799100  1
  O  77  1  0.32455000  0.64708400  0.06161300  1
  O  78  1  0.36251000  0.68501900  0.94799100  1
  O  97  1  0.94798100  0.32456800  0.36251700  1
  O  98  1  0.06157800  0.36251900  0.32457300  1
  O  117  1  0.94797700  0.68502900  0.64707400  1
  O  118  1  0.06159600  0.64706900  0.68501400  1
  O  137  1  0.06158800  0.68499900  0.36251000  1
  O  138  1  0.94798900  0.64705200  0.32456500  1
  O  157  1  0.06161300  0.32455000  0.64708400  1
  O  158  1  0.94798900  0.36251000  0.68501600  1
  O  177  1  0.36251400  0.94797900  0.32456800  1
  O  178  1  0.32457000  0.06157700  0.36251900  1
  O  197  1  0.64707200  0.94797400  0.68502600  1
  O  198  1  0.68501100  0.06159400  0.64706200  1
  O  217  1  0.36251400  0.06159500  0.68500400  1
  O  218  1  0.32456800  0.94799600  0.64705200  1
  O  237  1  0.64708400  0.06161400  0.32455000  1
  O  238  1  0.68501400  0.94799100  0.36251200  1
  O  257  1  0.81704700  0.85455200  0.44664600  1
  O  258  1  0.85455200  0.81704000  0.56288500  1
  O  277  1  0.19255800  0.15503600  0.44666400  1
  O  278  1  0.15503300  0.19253400  0.56291500  1
  O  297  1  0.19253700  0.85454300  0.56291300  1
  O  298  1  0.15503400  0.81703700  0.44667100  1
  O  317  1  0.81703700  0.15503800  0.56291800  1
  O  318  1  0.85454800  0.19254100  0.44666600  1
  O  337  1  0.44665100  0.81706900  0.85456200  1
  O  338  1  0.56288000  0.85455500  0.81705900  1
  O  357  1  0.44666100  0.19256000  0.15503800  1
  O  358  1  0.56291500  0.15503400  0.19253500  1
  O  377  1  0.56291000  0.19251400  0.85455000  1
  O  378  1  0.44667600  0.15503100  0.81704400  1
  O  397  1  0.56292000  0.81703500  0.15504100  1
  O  398  1  0.44666600  0.85454800  0.19254200  1
  O  417  1  0.85454800  0.44664900  0.81704700  1
  O  418  1  0.81705900  0.56288800  0.85456000  1
  O  437  1  0.15503500  0.44666400  0.19255900  1
  O  438  1  0.19253200  0.56291800  0.15503300  1
  O  457  1  0.85454000  0.56290500  0.19253700  1
  O  458  1  0.81704400  0.44666400  0.15503400  1
  O  477  1  0.15503800  0.56292000  0.81703700  1
  O  478  1  0.19254000  0.44666600  0.85454800  1
