# generated using pymatgen
data_H10C18N3O2
_symmetry_space_group_name_H-M   'P 1'
_cell_length_a   36.44390000
_cell_length_b   36.44390000
_cell_length_c   36.44390000
_cell_angle_alpha   90.00000000
_cell_angle_beta   90.00000000
_cell_angle_gamma   90.00000000
_symmetry_Int_Tables_number   1
_chemical_formula_structural   H10C18N3O2
_chemical_formula_sum   'H480 C864 N144 O96'
_cell_volume   48403.25176794
_cell_formula_units_Z   48
loop_
 _symmetry_equiv_pos_site_id
 _symmetry_equiv_pos_as_xyz
  1  'x, y, z'
loop_
 _atom_site_type_symbol
 _atom_site_label
 _atom_site_symmetry_multiplicity
 _atom_site_fract_x
 _atom_site_fract_y
 _atom_site_fract_z
 _atom_site_occupancy
  H  7  1  0.06266200  0.02232400  0.98128400  1
  H  16  1  0.94726400  0.98787200  0.02877400  1
  H  17  1  0.02716600  0.88493000  0.09567900  1
  H  18  1  0.98227400  0.88513900  0.09582300  1
  H  19  1  0.98222500  0.12427700  0.91364300  1
  H  20  1  0.02711600  0.12448700  0.91376400  1
  H  21  1  0.94725100  0.02153800  0.98070500  1
  H  22  1  0.06267200  0.98709000  0.02812500  1
  H  29  1  0.44673300  0.98709500  0.48126300  1
  H  38  1  0.56215200  0.02159500  0.52867800  1
  H  39  1  0.48222100  0.12439300  0.59579300  1
  H  40  1  0.52709200  0.12424700  0.59600100  1
  H  41  1  0.52713400  0.88514100  0.41342500  1
  H  42  1  0.48226200  0.88496900  0.41364400  1
  H  43  1  0.56215200  0.98784700  0.48067900  1
  H  44  1  0.44673300  0.02228600  0.52812400  1
  H  51  1  0.23912400  0.81200200  0.22970700  1
  H  60  1  0.27348300  0.69663800  0.27711400  1
  H  61  1  0.37266900  0.77776300  0.34830500  1
  H  62  1  0.37364000  0.73291800  0.34739400  1
  H  63  1  0.13579000  0.73289100  0.16197900  1
  H  64  1  0.13675200  0.77773500  0.16106800  1
  H  65  1  0.23593300  0.69663300  0.23229000  1
  H  66  1  0.27027300  0.81200700  0.27968700  1
  H  73  1  0.27029600  0.19742400  0.72973800  1
  H  82  1  0.23595000  0.31278500  0.77715400  1
  H  83  1  0.13665400  0.23166500  0.84805700  1
  H  84  1  0.13571100  0.27654000  0.84716300  1
  H  85  1  0.37371100  0.27654600  0.66230000  1
  H  86  1  0.37277000  0.23167200  0.66140300  1
  H  87  1  0.27345500  0.31279000  0.73228200  1
  H  88  1  0.23911200  0.19742000  0.77969200  1
  H  95  1  0.77060900  0.19683800  0.77942300  1
  H  104  1  0.73630400  0.31222200  0.73193300  1
  H  105  1  0.63644100  0.23119200  0.66165800  1
  H  106  1  0.63562400  0.27607400  0.66240700  1
  H  107  1  0.87378700  0.27606800  0.84700900  1
  H  108  1  0.87296400  0.23118700  0.84776100  1
  H  109  1  0.77312800  0.31222200  0.77745800  1
  H  110  1  0.73881000  0.19683800  0.72997700  1
  H  117  1  0.73874100  0.81255300  0.27936600  1
  H  126  1  0.77304300  0.69714800  0.23190300  1
  H  127  1  0.87289500  0.77810000  0.16149500  1
  H  128  1  0.87368300  0.73323400  0.16211800  1
  H  129  1  0.63570600  0.73329400  0.34728500  1
  H  130  1  0.63651300  0.77816300  0.34789900  1
  H  131  1  0.73634000  0.69715700  0.27752200  1
  H  132  1  0.77069200  0.81254500  0.23003700  1
  H  139  1  0.56262100  0.52226300  0.48126000  1
  H  148  1  0.44719400  0.48827400  0.52904900  1
  H  149  1  0.52699100  0.38706100  0.59925000  1
  H  150  1  0.48211600  0.38736000  0.59947800  1
  H  151  1  0.48208400  0.62203600  0.40999700  1
  H  152  1  0.52695500  0.62234000  0.41020000  1
  H  153  1  0.44719200  0.52107800  0.48036600  1
  H  154  1  0.56262100  0.48711300  0.52814100  1
  H  161  1  0.94681200  0.48717600  0.98122600  1
  H  170  1  0.06223500  0.52112700  0.02902800  1
  H  171  1  0.98242800  0.62243900  0.09893700  1
  H  172  1  0.02733100  0.62215400  0.09912800  1
  H  173  1  0.02729700  0.38728800  0.91005900  1
  H  174  1  0.98241200  0.38702800  0.91034700  1
  H  175  1  0.06223600  0.48824600  0.98039500  1
  H  176  1  0.94681200  0.52223600  0.02817900  1
  H  183  1  0.79982700  0.80571800  0.12798300  1
  H  188  1  0.85025200  0.84581300  0.22363700  1
  H  193  1  0.91395300  0.91343700  0.03195500  1
  H  194  1  0.95337500  0.95326000  0.13285600  1
  H  196  1  0.87412200  0.85178900  0.01591600  1
  H  198  1  0.82479900  0.80515500  0.05777200  1
  H  205  1  0.70958900  0.20375600  0.62802000  1
  H  210  1  0.65922400  0.16352700  0.72363600  1
  H  215  1  0.59545500  0.09607800  0.53189400  1
  H  216  1  0.55614000  0.05607400  0.63276200  1
  H  218  1  0.63522300  0.15782800  0.51593600  1
  H  220  1  0.68461700  0.20437200  0.55781400  1
  H  227  1  0.45445200  0.54964800  0.37762400  1
  H  232  1  0.41372100  0.59965900  0.47321500  1
  H  237  1  0.34714500  0.66411700  0.28155300  1
  H  238  1  0.30605400  0.70241100  0.38234400  1
  H  240  1  0.40898200  0.62448900  0.26573300  1
  H  242  1  0.45537900  0.57494400  0.30763700  1
  H  249  1  0.05495400  0.45972000  0.87764500  1
  H  254  1  0.09570400  0.40971200  0.97328000  1
  H  259  1  0.16231800  0.34533600  0.78155800  1
  H  260  1  0.20329900  0.30694300  0.88238900  1
  H  262  1  0.10049100  0.38498900  0.76574400  1
  H  264  1  0.05407200  0.43448700  0.80765800  1
  H  271  1  0.70960900  0.80572600  0.38141900  1
  H  276  1  0.65919100  0.84586500  0.28577900  1
  H  281  1  0.59546600  0.91339300  0.47748200  1
  H  282  1  0.55610100  0.95331700  0.37659500  1
  H  284  1  0.63529200  0.85173100  0.49349300  1
  H  286  1  0.68463000  0.80513100  0.45162300  1
  H  293  1  0.79980800  0.20374400  0.88138200  1
  H  298  1  0.85019700  0.16353300  0.78577200  1
  H  303  1  0.91389500  0.09603000  0.97751600  1
  H  304  1  0.95326300  0.05607500  0.87665200  1
  H  306  1  0.87413300  0.15777900  0.99347800  1
  H  308  1  0.82476100  0.20434200  0.95159700  1
  H  315  1  0.05488500  0.54970300  0.13176900  1
  H  320  1  0.09573800  0.59962900  0.03615300  1
  H  325  1  0.16224300  0.66412800  0.22784300  1
  H  326  1  0.20340100  0.70236700  0.12705900  1
  H  328  1  0.10038300  0.62453800  0.24365200  1
  H  330  1  0.05397000  0.57502100  0.20174800  1
  H  337  1  0.45443300  0.45975300  0.63181200  1
  H  342  1  0.41374800  0.40971500  0.53618300  1
  H  347  1  0.34707100  0.34535800  0.72788600  1
  H  348  1  0.30613600  0.30693200  0.62704600  1
  H  350  1  0.40888100  0.38503000  0.74371300  1
  H  352  1  0.45530000  0.43453600  0.70180500  1
  H  359  1  0.20969600  0.20442800  0.88169000  1
  H  364  1  0.15964800  0.16384500  0.78603000  1
  H  369  1  0.09555800  0.09672800  0.97778500  1
  H  370  1  0.05660200  0.05638600  0.87690400  1
  H  372  1  0.13511600  0.15859600  0.99369700  1
  H  374  1  0.18446800  0.20520500  0.95181900  1
  H  381  1  0.29964700  0.80497200  0.38166100  1
  H  386  1  0.34974900  0.84550000  0.28601800  1
  H  391  1  0.41379800  0.91269100  0.47777000  1
  H  392  1  0.45275100  0.95302900  0.37689700  1
  H  394  1  0.37425800  0.85077400  0.49366600  1
  H  396  1  0.32483900  0.80422000  0.45179900  1
  H  403  1  0.55543500  0.45945400  0.63129600  1
  H  408  1  0.59541400  0.40860300  0.53579900  1
  H  413  1  0.66274800  0.34515500  0.72759500  1
  H  414  1  0.70319600  0.30602100  0.62686000  1
  H  416  1  0.60114900  0.38513700  0.74346300  1
  H  418  1  0.55472400  0.43458900  0.70144800  1
  H  425  1  0.95407800  0.55005400  0.13133500  1
  H  430  1  0.91390100  0.60064900  0.03576800  1
  H  435  1  0.84669100  0.66429800  0.22755700  1
  H  436  1  0.80613200  0.70324500  0.12679100  1
  H  438  1  0.90835500  0.62441700  0.24342900  1
  H  440  1  0.95481600  0.57498800  0.20143800  1
  H  447  1  0.29972900  0.20446200  0.62774300  1
  H  452  1  0.34974300  0.16383100  0.72340200  1
  H  457  1  0.41383900  0.09674500  0.53165600  1
  H  458  1  0.45275600  0.05636100  0.63250900  1
  H  460  1  0.37432100  0.15863400  0.51574100  1
  H  462  1  0.32498200  0.20525600  0.55762400  1
  H  469  1  0.20976000  0.80496100  0.12772800  1
  H  474  1  0.15965700  0.84548000  0.22337300  1
  H  479  1  0.09562400  0.91270200  0.03162500  1
  H  480  1  0.05666500  0.95302700  0.13250100  1
  H  482  1  0.13516100  0.85078500  0.01572300  1
  H  484  1  0.18457400  0.80422300  0.05758700  1
  H  491  1  0.95402000  0.45943000  0.87808100  1
  H  496  1  0.91398600  0.40865600  0.97358200  1
  H  501  1  0.84669300  0.34513600  0.78179900  1
  H  502  1  0.80621500  0.30604600  0.88253700  1
  H  504  1  0.90830600  0.38509600  0.76592800  1
  H  506  1  0.95473900  0.43454500  0.80793800  1
  H  513  1  0.55539900  0.55001000  0.37808000  1
  H  518  1  0.59546300  0.60069900  0.47364300  1
  H  523  1  0.66275300  0.66430300  0.28186300  1
  H  524  1  0.70323400  0.70332000  0.38264600  1
  H  526  1  0.60112100  0.62437100  0.26598000  1
  H  528  1  0.55467700  0.57492200  0.30796700  1
  H  535  1  0.06266200  0.02232400  0.28311800  1
  H  544  1  0.94726400  0.98787200  0.33060800  1
  H  545  1  0.02716600  0.88493000  0.39751300  1
  H  546  1  0.98227400  0.88513900  0.39765700  1
  H  547  1  0.98222500  0.12427700  0.21547700  1
  H  548  1  0.02711600  0.12448700  0.21559800  1
  H  549  1  0.94725100  0.02153800  0.28253900  1
  H  550  1  0.06267200  0.98709000  0.32995900  1
  H  557  1  0.44673300  0.98709500  0.78309700  1
  H  566  1  0.56215200  0.02159500  0.83051200  1
  H  567  1  0.48222100  0.12439300  0.89762700  1
  H  568  1  0.52709200  0.12424700  0.89783500  1
  H  569  1  0.52713400  0.88514100  0.71525900  1
  H  570  1  0.48226200  0.88496900  0.71547800  1
  H  571  1  0.56215200  0.98784700  0.78251300  1
  H  572  1  0.44673300  0.02228600  0.82995800  1
  H  579  1  0.23912400  0.81200200  0.53154100  1
  H  588  1  0.27348300  0.69663800  0.57894800  1
  H  589  1  0.37266900  0.77776300  0.65013900  1
  H  590  1  0.37364000  0.73291800  0.64922800  1
  H  591  1  0.13579000  0.73289100  0.46381300  1
  H  592  1  0.13675200  0.77773500  0.46290200  1
  H  593  1  0.23593300  0.69663300  0.53412400  1
  H  594  1  0.27027300  0.81200700  0.58152100  1
  H  601  1  0.27029600  0.19742400  0.03157180  1
  H  610  1  0.23595000  0.31278500  0.07898780  1
  H  611  1  0.13665400  0.23166500  0.14989100  1
  H  612  1  0.13571100  0.27654000  0.14899700  1
  H  613  1  0.37371100  0.27654600  0.96413400  1
  H  614  1  0.37277000  0.23167200  0.96323700  1
  H  615  1  0.27345500  0.31279000  0.03411580  1
  H  616  1  0.23911200  0.19742000  0.08152580  1
  H  623  1  0.77060900  0.19683800  0.08125680  1
  H  632  1  0.73630400  0.31222200  0.03376680  1
  H  633  1  0.63644100  0.23119200  0.96349200  1
  H  634  1  0.63562400  0.27607400  0.96424100  1
  H  635  1  0.87378700  0.27606800  0.14884300  1
  H  636  1  0.87296400  0.23118700  0.14959500  1
  H  637  1  0.77312800  0.31222200  0.07929180  1
  H  638  1  0.73881000  0.19683800  0.03181080  1
  H  645  1  0.73874100  0.81255300  0.58120000  1
  H  654  1  0.77304300  0.69714800  0.53373700  1
  H  655  1  0.87289500  0.77810000  0.46332900  1
  H  656  1  0.87368300  0.73323400  0.46395200  1
  H  657  1  0.63570600  0.73329400  0.64911900  1
  H  658  1  0.63651300  0.77816300  0.64973300  1
  H  659  1  0.73634000  0.69715700  0.57935600  1
  H  660  1  0.77069200  0.81254500  0.53187100  1
  H  667  1  0.56262100  0.52226300  0.78309400  1
  H  676  1  0.44719400  0.48827400  0.83088300  1
  H  677  1  0.52699100  0.38706100  0.90108400  1
  H  678  1  0.48211600  0.38736000  0.90131200  1
  H  679  1  0.48208400  0.62203600  0.71183100  1
  H  680  1  0.52695500  0.62234000  0.71203400  1
  H  681  1  0.44719200  0.52107800  0.78220000  1
  H  682  1  0.56262100  0.48711300  0.82997500  1
  H  689  1  0.94681200  0.48717600  0.28306000  1
  H  698  1  0.06223500  0.52112700  0.33086200  1
  H  699  1  0.98242800  0.62243900  0.40077100  1
  H  700  1  0.02733100  0.62215400  0.40096200  1
  H  701  1  0.02729700  0.38728800  0.21189300  1
  H  702  1  0.98241200  0.38702800  0.21218100  1
  H  703  1  0.06223600  0.48824600  0.28222900  1
  H  704  1  0.94681200  0.52223600  0.33001300  1
  H  711  1  0.79982700  0.80571800  0.42981700  1
  H  716  1  0.85025200  0.84581300  0.52547100  1
  H  721  1  0.91395300  0.91343700  0.33378900  1
  H  722  1  0.95337500  0.95326000  0.43469000  1
  H  724  1  0.87412200  0.85178900  0.31775000  1
  H  726  1  0.82479900  0.80515500  0.35960600  1
  H  733  1  0.70958900  0.20375600  0.92985400  1
  H  738  1  0.65922400  0.16352700  0.02546980  1
  H  743  1  0.59545500  0.09607800  0.83372800  1
  H  744  1  0.55614000  0.05607400  0.93459600  1
  H  746  1  0.63522300  0.15782800  0.81777000  1
  H  748  1  0.68461700  0.20437200  0.85964800  1
  H  755  1  0.45445200  0.54964800  0.67945800  1
  H  760  1  0.41372100  0.59965900  0.77504900  1
  H  765  1  0.34714500  0.66411700  0.58338700  1
  H  766  1  0.30605400  0.70241100  0.68417800  1
  H  768  1  0.40898200  0.62448900  0.56756700  1
  H  770  1  0.45537900  0.57494400  0.60947100  1
  H  777  1  0.05495400  0.45972000  0.17947900  1
  H  782  1  0.09570400  0.40971200  0.27511400  1
  H  787  1  0.16231800  0.34533600  0.08339180  1
  H  788  1  0.20329900  0.30694300  0.18422300  1
  H  790  1  0.10049100  0.38498900  0.06757780  1
  H  792  1  0.05407200  0.43448700  0.10949200  1
  H  799  1  0.70960900  0.80572600  0.68325300  1
  H  804  1  0.65919100  0.84586500  0.58761300  1
  H  809  1  0.59546600  0.91339300  0.77931600  1
  H  810  1  0.55610100  0.95331700  0.67842900  1
  H  812  1  0.63529200  0.85173100  0.79532700  1
  H  814  1  0.68463000  0.80513100  0.75345700  1
  H  821  1  0.79980800  0.20374400  0.18321600  1
  H  826  1  0.85019700  0.16353300  0.08760580  1
  H  831  1  0.91389500  0.09603000  0.27935000  1
  H  832  1  0.95326300  0.05607500  0.17848600  1
  H  834  1  0.87413300  0.15777900  0.29531200  1
  H  836  1  0.82476100  0.20434200  0.25343100  1
  H  843  1  0.05488500  0.54970300  0.43360300  1
  H  848  1  0.09573800  0.59962900  0.33798700  1
  H  853  1  0.16224300  0.66412800  0.52967700  1
  H  854  1  0.20340100  0.70236700  0.42889300  1
  H  856  1  0.10038300  0.62453800  0.54548600  1
  H  858  1  0.05397000  0.57502100  0.50358200  1
  H  865  1  0.45443300  0.45975300  0.93364600  1
  H  870  1  0.41374800  0.40971500  0.83801700  1
  H  875  1  0.34707100  0.34535800  0.02971980  1
  H  876  1  0.30613600  0.30693200  0.92888000  1
  H  878  1  0.40888100  0.38503000  0.04554680  1
  H  880  1  0.45530000  0.43453600  0.00363878  1
  H  887  1  0.20969600  0.20442800  0.18352400  1
  H  892  1  0.15964800  0.16384500  0.08786380  1
  H  897  1  0.09555800  0.09672800  0.27961900  1
  H  898  1  0.05660200  0.05638600  0.17873800  1
  H  900  1  0.13511600  0.15859600  0.29553100  1
  H  902  1  0.18446800  0.20520500  0.25365300  1
  H  909  1  0.29964700  0.80497200  0.68349500  1
  H  914  1  0.34974900  0.84550000  0.58785200  1
  H  919  1  0.41379800  0.91269100  0.77960400  1
  H  920  1  0.45275100  0.95302900  0.67873100  1
  H  922  1  0.37425800  0.85077400  0.79550000  1
  H  924  1  0.32483900  0.80422000  0.75363300  1
  H  931  1  0.55543500  0.45945400  0.93313000  1
  H  936  1  0.59541400  0.40860300  0.83763300  1
  H  941  1  0.66274800  0.34515500  0.02942880  1
  H  942  1  0.70319600  0.30602100  0.92869400  1
  H  944  1  0.60114900  0.38513700  0.04529680  1
  H  946  1  0.55472400  0.43458900  0.00328178  1
  H  953  1  0.95407800  0.55005400  0.43316900  1
  H  958  1  0.91390100  0.60064900  0.33760200  1
  H  963  1  0.84669100  0.66429800  0.52939100  1
  H  964  1  0.80613200  0.70324500  0.42862500  1
  H  966  1  0.90835500  0.62441700  0.54526300  1
  H  968  1  0.95481600  0.57498800  0.50327200  1
  H  975  1  0.29972900  0.20446200  0.92957700  1
  H  980  1  0.34974300  0.16383100  0.02523580  1
  H  985  1  0.41383900  0.09674500  0.83349000  1
  H  986  1  0.45275600  0.05636100  0.93434300  1
  H  988  1  0.37432100  0.15863400  0.81757500  1
  H  990  1  0.32498200  0.20525600  0.85945800  1
  H  997  1  0.20976000  0.80496100  0.42956200  1
  H  1002  1  0.15965700  0.84548000  0.52520700  1
  H  1007  1  0.09562400  0.91270200  0.33345900  1
  H  1008  1  0.05666500  0.95302700  0.43433500  1
  H  1010  1  0.13516100  0.85078500  0.31755700  1
  H  1012  1  0.18457400  0.80422300  0.35942100  1
  H  1019  1  0.95402000  0.45943000  0.17991500  1
  H  1024  1  0.91398600  0.40865600  0.27541600  1
  H  1029  1  0.84669300  0.34513600  0.08363280  1
  H  1030  1  0.80621500  0.30604600  0.18437100  1
  H  1032  1  0.90830600  0.38509600  0.06776180  1
  H  1034  1  0.95473900  0.43454500  0.10977200  1
  H  1041  1  0.55539900  0.55001000  0.67991400  1
  H  1046  1  0.59546300  0.60069900  0.77547700  1
  H  1051  1  0.66275300  0.66430300  0.58369700  1
  H  1052  1  0.70323400  0.70332000  0.68448000  1
  H  1054  1  0.60112100  0.62437100  0.56781400  1
  H  1056  1  0.55467700  0.57492200  0.60980100  1
  H  1063  1  0.06266200  0.02232400  0.58495200  1
  H  1072  1  0.94726400  0.98787200  0.63244200  1
  H  1073  1  0.02716600  0.88493000  0.69934700  1
  H  1074  1  0.98227400  0.88513900  0.69949100  1
  H  1075  1  0.98222500  0.12427700  0.51731100  1
  H  1076  1  0.02711600  0.12448700  0.51743200  1
  H  1077  1  0.94725100  0.02153800  0.58437300  1
  H  1078  1  0.06267200  0.98709000  0.63179300  1
  H  1085  1  0.44673300  0.98709500  0.08493060  1
  H  1094  1  0.56215200  0.02159500  0.13234600  1
  H  1095  1  0.48222100  0.12439300  0.19946100  1
  H  1096  1  0.52709200  0.12424700  0.19966900  1
  H  1097  1  0.52713400  0.88514100  0.01709260  1
  H  1098  1  0.48226200  0.88496900  0.01731160  1
  H  1099  1  0.56215200  0.98784700  0.08434660  1
  H  1100  1  0.44673300  0.02228600  0.13179200  1
  H  1107  1  0.23912400  0.81200200  0.83337500  1
  H  1116  1  0.27348300  0.69663800  0.88078200  1
  H  1117  1  0.37266900  0.77776300  0.95197300  1
  H  1118  1  0.37364000  0.73291800  0.95106200  1
  H  1119  1  0.13579000  0.73289100  0.76564700  1
  H  1120  1  0.13675200  0.77773500  0.76473600  1
  H  1121  1  0.23593300  0.69663300  0.83595800  1
  H  1122  1  0.27027300  0.81200700  0.88335500  1
  H  1129  1  0.27029600  0.19742400  0.33340600  1
  H  1138  1  0.23595000  0.31278500  0.38082200  1
  H  1139  1  0.13665400  0.23166500  0.45172500  1
  H  1140  1  0.13571100  0.27654000  0.45083100  1
  H  1141  1  0.37371100  0.27654600  0.26596800  1
  H  1142  1  0.37277000  0.23167200  0.26507100  1
  H  1143  1  0.27345500  0.31279000  0.33595000  1
  H  1144  1  0.23911200  0.19742000  0.38336000  1
  H  1151  1  0.77060900  0.19683800  0.38309100  1
  H  1160  1  0.73630400  0.31222200  0.33560100  1
  H  1161  1  0.63644100  0.23119200  0.26532600  1
  H  1162  1  0.63562400  0.27607400  0.26607500  1
  H  1163  1  0.87378700  0.27606800  0.45067700  1
  H  1164  1  0.87296400  0.23118700  0.45142900  1
  H  1165  1  0.77312800  0.31222200  0.38112600  1
  H  1166  1  0.73881000  0.19683800  0.33364500  1
  H  1173  1  0.73874100  0.81255300  0.88303400  1
  H  1182  1  0.77304300  0.69714800  0.83557100  1
  H  1183  1  0.87289500  0.77810000  0.76516300  1
  H  1184  1  0.87368300  0.73323400  0.76578600  1
  H  1185  1  0.63570600  0.73329400  0.95095300  1
  H  1186  1  0.63651300  0.77816300  0.95156700  1
  H  1187  1  0.73634000  0.69715700  0.88119000  1
  H  1188  1  0.77069200  0.81254500  0.83370500  1
  H  1195  1  0.56262100  0.52226300  0.08492760  1
  H  1204  1  0.44719400  0.48827400  0.13271700  1
  H  1205  1  0.52699100  0.38706100  0.20291800  1
  H  1206  1  0.48211600  0.38736000  0.20314600  1
  H  1207  1  0.48208400  0.62203600  0.01366460  1
  H  1208  1  0.52695500  0.62234000  0.01386760  1
  H  1209  1  0.44719200  0.52107800  0.08403360  1
  H  1210  1  0.56262100  0.48711300  0.13180900  1
  H  1217  1  0.94681200  0.48717600  0.58489400  1
  H  1226  1  0.06223500  0.52112700  0.63269600  1
  H  1227  1  0.98242800  0.62243900  0.70260500  1
  H  1228  1  0.02733100  0.62215400  0.70279600  1
  H  1229  1  0.02729700  0.38728800  0.51372700  1
  H  1230  1  0.98241200  0.38702800  0.51401500  1
  H  1231  1  0.06223600  0.48824600  0.58406300  1
  H  1232  1  0.94681200  0.52223600  0.63184700  1
  H  1239  1  0.79982700  0.80571800  0.73165100  1
  H  1244  1  0.85025200  0.84581300  0.82730500  1
  H  1249  1  0.91395300  0.91343700  0.63562300  1
  H  1250  1  0.95337500  0.95326000  0.73652400  1
  H  1252  1  0.87412200  0.85178900  0.61958400  1
  H  1254  1  0.82479900  0.80515500  0.66144000  1
  H  1261  1  0.70958900  0.20375600  0.23168800  1
  H  1266  1  0.65922400  0.16352700  0.32730400  1
  H  1271  1  0.59545500  0.09607800  0.13556200  1
  H  1272  1  0.55614000  0.05607400  0.23643000  1
  H  1274  1  0.63522300  0.15782800  0.11960400  1
  H  1276  1  0.68461700  0.20437200  0.16148200  1
  H  1283  1  0.45445200  0.54964800  0.98129200  1
  H  1288  1  0.41372100  0.59965900  0.07688260  1
  H  1293  1  0.34714500  0.66411700  0.88522100  1
  H  1294  1  0.30605400  0.70241100  0.98601200  1
  H  1296  1  0.40898200  0.62448900  0.86940100  1
  H  1298  1  0.45537900  0.57494400  0.91130500  1
  H  1305  1  0.05495400  0.45972000  0.48131300  1
  H  1310  1  0.09570400  0.40971200  0.57694800  1
  H  1315  1  0.16231800  0.34533600  0.38522600  1
  H  1316  1  0.20329900  0.30694300  0.48605700  1
  H  1318  1  0.10049100  0.38498900  0.36941200  1
  H  1320  1  0.05407200  0.43448700  0.41132600  1
  H  1327  1  0.70960900  0.80572600  0.98508700  1
  H  1332  1  0.65919100  0.84586500  0.88944700  1
  H  1337  1  0.59546600  0.91339300  0.08114960  1
  H  1338  1  0.55610100  0.95331700  0.98026300  1
  H  1340  1  0.63529200  0.85173100  0.09716060  1
  H  1342  1  0.68463000  0.80513100  0.05529060  1
  H  1349  1  0.79980800  0.20374400  0.48505000  1
  H  1354  1  0.85019700  0.16353300  0.38944000  1
  H  1359  1  0.91389500  0.09603000  0.58118400  1
  H  1360  1  0.95326300  0.05607500  0.48032000  1
  H  1362  1  0.87413300  0.15777900  0.59714600  1
  H  1364  1  0.82476100  0.20434200  0.55526500  1
  H  1371  1  0.05488500  0.54970300  0.73543700  1
  H  1376  1  0.09573800  0.59962900  0.63982100  1
  H  1381  1  0.16224300  0.66412800  0.83151100  1
  H  1382  1  0.20340100  0.70236700  0.73072700  1
  H  1384  1  0.10038300  0.62453800  0.84732000  1
  H  1386  1  0.05397000  0.57502100  0.80541600  1
  H  1393  1  0.45443300  0.45975300  0.23548000  1
  H  1398  1  0.41374800  0.40971500  0.13985100  1
  H  1403  1  0.34707100  0.34535800  0.33155400  1
  H  1404  1  0.30613600  0.30693200  0.23071400  1
  H  1406  1  0.40888100  0.38503000  0.34738100  1
  H  1408  1  0.45530000  0.43453600  0.30547300  1
  H  1415  1  0.20969600  0.20442800  0.48535800  1
  H  1420  1  0.15964800  0.16384500  0.38969800  1
  H  1425  1  0.09555800  0.09672800  0.58145300  1
  H  1426  1  0.05660200  0.05638600  0.48057200  1
  H  1428  1  0.13511600  0.15859600  0.59736500  1
  H  1430  1  0.18446800  0.20520500  0.55548700  1
  H  1437  1  0.29964700  0.80497200  0.98532900  1
  H  1442  1  0.34974900  0.84550000  0.88968600  1
  H  1447  1  0.41379800  0.91269100  0.08143760  1
  H  1448  1  0.45275100  0.95302900  0.98056500  1
  H  1450  1  0.37425800  0.85077400  0.09733360  1
  H  1452  1  0.32483900  0.80422000  0.05546660  1
  H  1459  1  0.55543500  0.45945400  0.23496400  1
  H  1464  1  0.59541400  0.40860300  0.13946700  1
  H  1469  1  0.66274800  0.34515500  0.33126300  1
  H  1470  1  0.70319600  0.30602100  0.23052800  1
  H  1472  1  0.60114900  0.38513700  0.34713100  1
  H  1474  1  0.55472400  0.43458900  0.30511600  1
  H  1481  1  0.95407800  0.55005400  0.73500300  1
  H  1486  1  0.91390100  0.60064900  0.63943600  1
  H  1491  1  0.84669100  0.66429800  0.83122500  1
  H  1492  1  0.80613200  0.70324500  0.73045900  1
  H  1494  1  0.90835500  0.62441700  0.84709700  1
  H  1496  1  0.95481600  0.57498800  0.80510600  1
  H  1503  1  0.29972900  0.20446200  0.23141100  1
  H  1508  1  0.34974300  0.16383100  0.32707000  1
  H  1513  1  0.41383900  0.09674500  0.13532400  1
  H  1514  1  0.45275600  0.05636100  0.23617700  1
  H  1516  1  0.37432100  0.15863400  0.11940900  1
  H  1518  1  0.32498200  0.20525600  0.16129200  1
  H  1525  1  0.20976000  0.80496100  0.73139600  1
  H  1530  1  0.15965700  0.84548000  0.82704100  1
  H  1535  1  0.09562400  0.91270200  0.63529300  1
  H  1536  1  0.05666500  0.95302700  0.73616900  1
  H  1538  1  0.13516100  0.85078500  0.61939100  1
  H  1540  1  0.18457400  0.80422300  0.66125500  1
  H  1547  1  0.95402000  0.45943000  0.48174900  1
  H  1552  1  0.91398600  0.40865600  0.57725000  1
  H  1557  1  0.84669300  0.34513600  0.38546700  1
  H  1558  1  0.80621500  0.30604600  0.48620500  1
  H  1560  1  0.90830600  0.38509600  0.36959600  1
  H  1562  1  0.95473900  0.43454500  0.41160600  1
  H  1569  1  0.55539900  0.55001000  0.98174800  1
  H  1574  1  0.59546300  0.60069900  0.07731060  1
  H  1579  1  0.66275300  0.66430300  0.88553100  1
  H  1580  1  0.70323400  0.70332000  0.98631400  1
  H  1582  1  0.60112100  0.62437100  0.86964800  1
  H  1584  1  0.55467700  0.57492200  0.91163500  1
  C  1  1  0.00492700  0.01890700  0.99028100  1
  C  2  1  0.03782500  0.03307800  0.97435000  1
  C  3  1  0.03838000  0.06158300  0.94791200  1
  C  4  1  0.00480200  0.07838400  0.93718900  1
  C  5  1  0.97132300  0.06125600  0.94770300  1
  C  6  1  0.97200100  0.03268100  0.97406200  1
  C  9  1  0.00493300  0.99049800  0.01915400  1
  C  10  1  0.03784000  0.97633400  0.03507400  1
  C  11  1  0.03841000  0.94783000  0.06151300  1
  C  12  1  0.00483900  0.93102300  0.07224900  1
  C  13  1  0.97135300  0.94814200  0.06174800  1
  C  14  1  0.97201500  0.97671200  0.03538300  1
  C  23  1  0.50447400  0.99052000  0.49023000  1
  C  24  1  0.47156900  0.97634200  0.47431800  1
  C  25  1  0.47100600  0.94783200  0.44788300  1
  C  26  1  0.50458100  0.93103400  0.43715400  1
  C  27  1  0.53806500  0.94815100  0.44766300  1
  C  28  1  0.53739900  0.97671500  0.47403300  1
  C  31  1  0.50447100  0.01888600  0.51914900  1
  C  32  1  0.47156300  0.03304800  0.53506900  1
  C  33  1  0.47099300  0.06154900  0.56151200  1
  C  34  1  0.50456200  0.07835900  0.57224400  1
  C  35  1  0.53805200  0.06126400  0.56171800  1
  C  36  1  0.53739000  0.03270200  0.53534300  1
  C  45  1  0.24053700  0.75444500  0.24023600  1
  C  46  1  0.22739500  0.78738800  0.22354200  1
  C  47  1  0.19882100  0.78817000  0.19721100  1
  C  48  1  0.18150900  0.75480400  0.18662500  1
  C  49  1  0.19767500  0.72110800  0.19794800  1
  C  50  1  0.22583200  0.72156400  0.22475700  1
  C  53  1  0.26887200  0.75444700  0.26916000  1
  C  54  1  0.28200900  0.78739400  0.28585000  1
  C  55  1  0.31058700  0.78818400  0.31217900  1
  C  56  1  0.32790700  0.75482100  0.32276200  1
  C  57  1  0.31174500  0.72112500  0.31144300  1
  C  58  1  0.28358700  0.72157200  0.28463800  1
  C  67  1  0.26887700  0.25498100  0.74026100  1
  C  68  1  0.28202800  0.22203700  0.72357800  1
  C  69  1  0.31061200  0.22124900  0.69725500  1
  C  70  1  0.32793400  0.25461700  0.68668000  1
  C  71  1  0.31175000  0.28831200  0.69798300  1
  C  72  1  0.28359200  0.28785900  0.72478800  1
  C  75  1  0.24053100  0.25497800  0.76917400  1
  C  76  1  0.22738000  0.22203300  0.78586000  1
  C  77  1  0.19880200  0.22124300  0.81218500  1
  C  78  1  0.18148200  0.25461000  0.82276600  1
  C  79  1  0.19766000  0.28830300  0.81145800  1
  C  80  1  0.22581700  0.28785600  0.78465000  1
  C  89  1  0.76890000  0.25444000  0.76914100  1
  C  90  1  0.78219700  0.22148800  0.78569500  1
  C  91  1  0.81080300  0.22071400  0.81198000  1
  C  92  1  0.82801800  0.25410000  0.82265600  1
  C  93  1  0.81166100  0.28777700  0.81154100  1
  C  94  1  0.78344300  0.28731600  0.78479000  1
  C  97  1  0.74051900  0.25443900  0.74025800  1
  C  98  1  0.72721900  0.22148800  0.72370700  1
  C  99  1  0.69861100  0.22071500  0.69742600  1
  C  100  1  0.68139300  0.25410000  0.68675400  1
  C  101  1  0.69775500  0.28777700  0.69786200  1
  C  102  1  0.72597100  0.28731600  0.72462100  1
  C  111  1  0.74053600  0.75493900  0.26917100  1
  C  112  1  0.72719200  0.78789600  0.28567800  1
  C  113  1  0.69860000  0.78866700  0.31197800  1
  C  114  1  0.68142300  0.75527300  0.32269300  1
  C  115  1  0.69778200  0.72160000  0.31158000  1
  C  116  1  0.72600600  0.72206300  0.28483200  1
  C  119  1  0.76887000  0.75493300  0.24023900  1
  C  120  1  0.78222700  0.78788200  0.22372700  1
  C  121  1  0.81081900  0.78863700  0.19742400  1
  C  122  1  0.82798000  0.75523500  0.18671200  1
  C  123  1  0.81160700  0.72157200  0.19783300  1
  C  124  1  0.78338500  0.72205000  0.22458500  1
  C  133  1  0.50485600  0.51882200  0.49021400  1
  C  134  1  0.53777200  0.53296400  0.47427700  1
  C  135  1  0.53829300  0.56116100  0.44753700  1
  C  136  1  0.50469100  0.57752100  0.43622100  1
  C  137  1  0.47122300  0.56066200  0.44720300  1
  C  138  1  0.47191200  0.53235000  0.47381900  1
  C  141  1  0.50485800  0.49054000  0.51919300  1
  C  142  1  0.53777700  0.47640600  0.53512400  1
  C  143  1  0.53830400  0.44821800  0.56187500  1
  C  144  1  0.50470700  0.43185600  0.57320400  1
  C  145  1  0.47123400  0.44869500  0.56221200  1
  C  146  1  0.47191400  0.47700200  0.53559000  1
  C  155  1  0.00456900  0.49055100  0.99022100  1
  C  156  1  0.97165000  0.47643400  0.97427300  1
  C  157  1  0.97111700  0.44822600  0.94754700  1
  C  158  1  0.00471200  0.43184500  0.93623400  1
  C  159  1  0.03819000  0.44867600  0.94723100  1
  C  160  1  0.03751200  0.47698000  0.97385600  1
  C  163  1  0.00457200  0.51884700  0.01918500  1
  C  164  1  0.97165500  0.53297000  0.03513100  1
  C  165  1  0.97112300  0.56118300  0.06185600  1
  C  166  1  0.00472200  0.57756700  0.07315700  1
  C  167  1  0.03819700  0.56071400  0.06217600  1
  C  168  1  0.03751500  0.53241300  0.03555200  1
  C  177  1  0.82053000  0.82214100  0.17944100  1
  C  178  1  0.84427300  0.84765900  0.19629200  1
  C  180  1  0.86020700  0.87459100  0.13830000  1
  C  181  1  0.83577200  0.85051600  0.11978400  1
  C  182  1  0.81553900  0.82504900  0.14101300  1
  C  184  1  0.88368200  0.89783800  0.11788300  1
  C  185  1  0.93421700  0.93969900  0.11747900  1
  C  186  1  0.93765000  0.93747700  0.07888000  1
  C  187  1  0.91113800  0.91666700  0.05972000  1
  C  190  1  0.88385200  0.89652600  0.07884900  1
  C  191  1  0.85869800  0.87320000  0.06060800  1
  C  192  1  0.83460400  0.85058700  0.08092500  1
  C  199  1  0.68891700  0.18720300  0.67943900  1
  C  200  1  0.66523100  0.16163900  0.69630000  1
  C  202  1  0.64924200  0.13482400  0.63826600  1
  C  203  1  0.67366300  0.15892700  0.61976900  1
  C  204  1  0.69394900  0.18434100  0.64101300  1
  C  206  1  0.62574500  0.11161700  0.61782900  1
  C  207  1  0.57521300  0.06976200  0.61738500  1
  C  208  1  0.57177500  0.07197000  0.57877700  1
  C  209  1  0.59820700  0.09292400  0.55967700  1
  C  212  1  0.62555100  0.11298900  0.57879700  1
  C  213  1  0.65069300  0.13634000  0.56057400  1
  C  214  1  0.67480700  0.15891400  0.58090900  1
  C  221  1  0.43774700  0.57019200  0.42903200  1
  C  222  1  0.41191800  0.59360000  0.44588800  1
  C  224  1  0.38522000  0.60964100  0.38780200  1
  C  225  1  0.40950300  0.58539600  0.36931800  1
  C  226  1  0.43491200  0.56514000  0.39059800  1
  C  228  1  0.36203600  0.63316200  0.36736700  1
  C  229  1  0.32002100  0.68354700  0.36696400  1
  C  230  1  0.32264100  0.68740500  0.32842000  1
  C  231  1  0.34374200  0.66110400  0.30927800  1
  C  234  1  0.36370700  0.63365400  0.32835100  1
  C  235  1  0.38722300  0.60867300  0.31012100  1
  C  236  1  0.40970700  0.58446600  0.33044800  1
  C  243  1  0.07166200  0.43911600  0.92905600  1
  C  244  1  0.09742300  0.41565300  0.94591700  1
  C  246  1  0.12421000  0.39974300  0.88784200  1
  C  247  1  0.09992200  0.42400500  0.86936100  1
  C  248  1  0.07450800  0.44426400  0.89064300  1
  C  250  1  0.14739700  0.37624100  0.86738800  1
  C  251  1  0.18945100  0.32587400  0.86698500  1
  C  252  1  0.18676300  0.32202700  0.82844600  1
  C  253  1  0.16571800  0.34834600  0.80928000  1
  C  256  1  0.14575000  0.37578300  0.82837200  1
  C  257  1  0.12223300  0.40076900  0.81015200  1
  C  258  1  0.09972700  0.42494900  0.83049000  1
  C  265  1  0.68890800  0.82217100  0.32996800  1
  C  266  1  0.66517300  0.84770300  0.31312200  1
  C  268  1  0.64923900  0.87461300  0.37112700  1
  C  269  1  0.67366800  0.85052700  0.38963200  1
  C  270  1  0.69390200  0.82506600  0.36839600  1
  C  272  1  0.62575900  0.89784300  0.39155000  1
  C  273  1  0.57520500  0.93966900  0.39197200  1
  C  274  1  0.57178300  0.93746000  0.43057400  1
  C  275  1  0.59828400  0.91663100  0.44971900  1
  C  278  1  0.62557300  0.89650100  0.43058500  1
  C  279  1  0.65072600  0.87317000  0.44881900  1
  C  280  1  0.67482900  0.85057300  0.42849400  1
  C  287  1  0.82049400  0.18720100  0.82996300  1
  C  288  1  0.84418300  0.16164000  0.81310700  1
  C  290  1  0.86015200  0.13481000  0.87113900  1
  C  291  1  0.83572600  0.15891100  0.88963300  1
  C  292  1  0.81544800  0.18433300  0.86839000  1
  C  294  1  0.88364100  0.11159600  0.89157600  1
  C  295  1  0.93417800  0.06974900  0.89202600  1
  C  296  1  0.93759700  0.07193800  0.93063300  1
  C  297  1  0.91115400  0.09288300  0.94973100  1
  C  300  1  0.88381900  0.11295500  0.93060900  1
  C  301  1  0.85867300  0.13630400  0.94882800  1
  C  302  1  0.83456800  0.15888600  0.92849300  1
  C  309  1  0.07166600  0.57024900  0.08037700  1
  C  310  1  0.09752700  0.59358600  0.06348600  1
  C  312  1  0.12419400  0.60963000  0.12159500  1
  C  313  1  0.09987600  0.58541200  0.14008100  1
  C  314  1  0.07445300  0.56517300  0.11880400  1
  C  316  1  0.14738200  0.63314600  0.14203300  1
  C  317  1  0.18942000  0.68351100  0.14243900  1
  C  318  1  0.18678200  0.68738300  0.18098100  1
  C  319  1  0.16566000  0.66110100  0.20012200  1
  C  322  1  0.14569100  0.63365400  0.18104800  1
  C  323  1  0.12215100  0.60869500  0.19927800  1
  C  324  1  0.09965600  0.58449800  0.17895100  1
  C  331  1  0.43776600  0.43915700  0.58039600  1
  C  332  1  0.41202000  0.41566400  0.56354300  1
  C  334  1  0.38520600  0.39975400  0.62160500  1
  C  335  1  0.40947600  0.42402700  0.64008800  1
  C  336  1  0.43488800  0.44429100  0.61880900  1
  C  338  1  0.36202000  0.37624700  0.64205300  1
  C  339  1  0.31997400  0.32587100  0.64245300  1
  C  340  1  0.32264900  0.32203200  0.68099200  1
  C  341  1  0.34367900  0.34836000  0.70015800  1
  C  344  1  0.36364900  0.37580000  0.68106900  1
  C  345  1  0.38715100  0.40079700  0.69929400  1
  C  346  1  0.40965700  0.42497700  0.67895900  1
  C  353  1  0.18917500  0.18774200  0.83023500  1
  C  354  1  0.16555800  0.16210400  0.81339600  1
  C  356  1  0.14951000  0.13536200  0.87144900  1
  C  357  1  0.17383000  0.15956900  0.88994900  1
  C  358  1  0.19407900  0.18500100  0.86868600  1
  C  360  1  0.12602600  0.11214000  0.89188300  1
  C  361  1  0.07560100  0.07016200  0.89229200  1
  C  362  1  0.07207200  0.07245800  0.93088300  1
  C  363  1  0.09845100  0.09343600  0.95003600  1
  C  366  1  0.12572400  0.11360100  0.93091000  1
  C  367  1  0.15075900  0.13706500  0.94914100  1
  C  368  1  0.17486300  0.15965800  0.92881100  1
  C  375  1  0.32020500  0.82168000  0.33024700  1
  C  376  1  0.34379100  0.84732400  0.31336900  1
  C  378  1  0.35985200  0.87403900  0.37143400  1
  C  379  1  0.33551300  0.84984900  0.38993400  1
  C  380  1  0.31521100  0.82445400  0.36868200  1
  C  382  1  0.38334800  0.89724800  0.39187100  1
  C  383  1  0.43376800  0.93923300  0.39228800  1
  C  384  1  0.43730500  0.93695800  0.43088200  1
  C  385  1  0.41098000  0.91588500  0.45000100  1
  C  388  1  0.38364700  0.89578500  0.43089800  1
  C  389  1  0.35860300  0.87233000  0.44912600  1
  C  390  1  0.33447900  0.84976400  0.42879600  1
  C  397  1  0.57177200  0.43843000  0.57995200  1
  C  398  1  0.59738100  0.41480200  0.56308500  1
  C  400  1  0.62430200  0.39901600  0.62115500  1
  C  401  1  0.60022400  0.42350000  0.63960500  1
  C  402  1  0.57480700  0.44374500  0.61832900  1
  C  404  1  0.64751000  0.37555500  0.64163600  1
  C  405  1  0.68937500  0.32504500  0.64218200  1
  C  406  1  0.68693500  0.32147200  0.68077300  1
  C  407  1  0.66602700  0.34797100  0.69983500  1
  C  410  1  0.64605100  0.37535000  0.68066600  1
  C  411  1  0.62272700  0.40054700  0.69884400  1
  C  412  1  0.60023200  0.42470200  0.67847000  1
  C  419  1  0.93766900  0.57097100  0.07995400  1
  C  420  1  0.91206800  0.59461500  0.06310200  1
  C  422  1  0.88510600  0.61035700  0.12115300  1
  C  423  1  0.90924400  0.58593400  0.13961200  1
  C  424  1  0.93465900  0.56567800  0.11833400  1
  C  426  1  0.86188400  0.63380400  0.14163400  1
  C  427  1  0.81988200  0.68421300  0.14215700  1
  C  428  1  0.82239600  0.68787700  0.18073000  1
  C  429  1  0.84337600  0.66143300  0.19980700  1
  C  432  1  0.86337100  0.63405700  0.18065900  1
  C  433  1  0.88676000  0.60893100  0.19884600  1
  C  434  1  0.90928000  0.58479200  0.17847700  1
  C  441  1  0.32023500  0.18775200  0.67919700  1
  C  442  1  0.34383800  0.16210100  0.69603400  1
  C  444  1  0.35988700  0.13537000  0.63797800  1
  C  445  1  0.33558200  0.15959400  0.61948100  1
  C  446  1  0.31533700  0.18502600  0.64074400  1
  C  448  1  0.38335900  0.11213800  0.61754100  1
  C  449  1  0.43372400  0.07008800  0.61711600  1
  C  450  1  0.43729100  0.07239300  0.57852500  1
  C  451  1  0.41093600  0.09343300  0.55940000  1
  C  454  1  0.38366600  0.11360900  0.57851700  1
  C  455  1  0.35865500  0.13709600  0.56028600  1
  C  456  1  0.33455800  0.15969600  0.58061600  1
  C  463  1  0.18920000  0.82166600  0.17914300  1
  C  464  1  0.16561500  0.84730800  0.19602200  1
  C  466  1  0.14956000  0.87403400  0.13796100  1
  C  467  1  0.17389600  0.84984300  0.11946000  1
  C  468  1  0.19419600  0.82444300  0.14070900  1
  C  470  1  0.12606600  0.89724500  0.11752500  1
  C  471  1  0.07564900  0.93923300  0.11710900  1
  C  472  1  0.07211500  0.93696400  0.07851400  1
  C  473  1  0.09844200  0.91589000  0.05939600  1
  C  476  1  0.12577200  0.89578800  0.07849700  1
  C  477  1  0.15081300  0.87233500  0.06026800  1
  C  478  1  0.17493300  0.84975800  0.08059600  1
  C  485  1  0.93766600  0.43846000  0.92943400  1
  C  486  1  0.91203800  0.41483800  0.94629300  1
  C  488  1  0.88513000  0.39902400  0.88822600  1
  C  489  1  0.90922000  0.42349200  0.86977300  1
  C  490  1  0.93463700  0.44373400  0.89105200  1
  C  492  1  0.86192200  0.37556100  0.86775000  1
  C  493  1  0.82004400  0.32505900  0.86721300  1
  C  494  1  0.82249200  0.32147500  0.82862400  1
  C  495  1  0.84341200  0.34796200  0.80955700  1
  C  498  1  0.86339000  0.37534100  0.82872000  1
  C  499  1  0.88672500  0.40052300  0.81053600  1
  C  500  1  0.90922200  0.42468000  0.83091000  1
  C  507  1  0.57175300  0.57097100  0.42946000  1
  C  508  1  0.59732100  0.59465100  0.44631600  1
  C  510  1  0.62431300  0.61037900  0.38827400  1
  C  511  1  0.60020800  0.58592500  0.36981200  1
  C  512  1  0.57479600  0.56565900  0.39108300  1
  C  514  1  0.64753000  0.63383500  0.36779600  1
  C  515  1  0.68950400  0.68426800  0.36728200  1
  C  516  1  0.68698200  0.68792000  0.32871400  1
  C  517  1  0.66605100  0.66145200  0.30961800  1
  C  520  1  0.64606400  0.63407100  0.32876800  1
  C  521  1  0.62270500  0.60891700  0.31057900  1
  C  522  1  0.60019400  0.58476700  0.33094700  1
  C  529  1  0.00492700  0.01890700  0.29211500  1
  C  530  1  0.03782500  0.03307800  0.27618400  1
  C  531  1  0.03838000  0.06158300  0.24974600  1
  C  532  1  0.00480200  0.07838400  0.23902300  1
  C  533  1  0.97132300  0.06125600  0.24953700  1
  C  534  1  0.97200100  0.03268100  0.27589600  1
  C  537  1  0.00493300  0.99049800  0.32098800  1
  C  538  1  0.03784000  0.97633400  0.33690800  1
  C  539  1  0.03841000  0.94783000  0.36334700  1
  C  540  1  0.00483900  0.93102300  0.37408300  1
  C  541  1  0.97135300  0.94814200  0.36358200  1
  C  542  1  0.97201500  0.97671200  0.33721700  1
  C  551  1  0.50447400  0.99052000  0.79206400  1
  C  552  1  0.47156900  0.97634200  0.77615200  1
  C  553  1  0.47100600  0.94783200  0.74971700  1
  C  554  1  0.50458100  0.93103400  0.73898800  1
  C  555  1  0.53806500  0.94815100  0.74949700  1
  C  556  1  0.53739900  0.97671500  0.77586700  1
  C  559  1  0.50447100  0.01888600  0.82098300  1
  C  560  1  0.47156300  0.03304800  0.83690300  1
  C  561  1  0.47099300  0.06154900  0.86334600  1
  C  562  1  0.50456200  0.07835900  0.87407800  1
  C  563  1  0.53805200  0.06126400  0.86355200  1
  C  564  1  0.53739000  0.03270200  0.83717700  1
  C  573  1  0.24053700  0.75444500  0.54207000  1
  C  574  1  0.22739500  0.78738800  0.52537600  1
  C  575  1  0.19882100  0.78817000  0.49904500  1
  C  576  1  0.18150900  0.75480400  0.48845900  1
  C  577  1  0.19767500  0.72110800  0.49978200  1
  C  578  1  0.22583200  0.72156400  0.52659100  1
  C  581  1  0.26887200  0.75444700  0.57099400  1
  C  582  1  0.28200900  0.78739400  0.58768400  1
  C  583  1  0.31058700  0.78818400  0.61401300  1
  C  584  1  0.32790700  0.75482100  0.62459600  1
  C  585  1  0.31174500  0.72112500  0.61327700  1
  C  586  1  0.28358700  0.72157200  0.58647200  1
  C  595  1  0.26887700  0.25498100  0.04209480  1
  C  596  1  0.28202800  0.22203700  0.02541180  1
  C  597  1  0.31061200  0.22124900  0.99908900  1
  C  598  1  0.32793400  0.25461700  0.98851400  1
  C  599  1  0.31175000  0.28831200  0.99981700  1
  C  600  1  0.28359200  0.28785900  0.02662180  1
  C  603  1  0.24053100  0.25497800  0.07100780  1
  C  604  1  0.22738000  0.22203300  0.08769380  1
  C  605  1  0.19880200  0.22124300  0.11401900  1
  C  606  1  0.18148200  0.25461000  0.12460000  1
  C  607  1  0.19766000  0.28830300  0.11329200  1
  C  608  1  0.22581700  0.28785600  0.08648380  1
  C  617  1  0.76890000  0.25444000  0.07097480  1
  C  618  1  0.78219700  0.22148800  0.08752880  1
  C  619  1  0.81080300  0.22071400  0.11381400  1
  C  620  1  0.82801800  0.25410000  0.12449000  1
  C  621  1  0.81166100  0.28777700  0.11337500  1
  C  622  1  0.78344300  0.28731600  0.08662380  1
  C  625  1  0.74051900  0.25443900  0.04209180  1
  C  626  1  0.72721900  0.22148800  0.02554080  1
  C  627  1  0.69861100  0.22071500  0.99926000  1
  C  628  1  0.68139300  0.25410000  0.98858800  1
  C  629  1  0.69775500  0.28777700  0.99969600  1
  C  630  1  0.72597100  0.28731600  0.02645480  1
  C  639  1  0.74053600  0.75493900  0.57100500  1
  C  640  1  0.72719200  0.78789600  0.58751200  1
  C  641  1  0.69860000  0.78866700  0.61381200  1
  C  642  1  0.68142300  0.75527300  0.62452700  1
  C  643  1  0.69778200  0.72160000  0.61341400  1
  C  644  1  0.72600600  0.72206300  0.58666600  1
  C  647  1  0.76887000  0.75493300  0.54207300  1
  C  648  1  0.78222700  0.78788200  0.52556100  1
  C  649  1  0.81081900  0.78863700  0.49925800  1
  C  650  1  0.82798000  0.75523500  0.48854600  1
  C  651  1  0.81160700  0.72157200  0.49966700  1
  C  652  1  0.78338500  0.72205000  0.52641900  1
  C  661  1  0.50485600  0.51882200  0.79204800  1
  C  662  1  0.53777200  0.53296400  0.77611100  1
  C  663  1  0.53829300  0.56116100  0.74937100  1
  C  664  1  0.50469100  0.57752100  0.73805500  1
  C  665  1  0.47122300  0.56066200  0.74903700  1
  C  666  1  0.47191200  0.53235000  0.77565300  1
  C  669  1  0.50485800  0.49054000  0.82102700  1
  C  670  1  0.53777700  0.47640600  0.83695800  1
  C  671  1  0.53830400  0.44821800  0.86370900  1
  C  672  1  0.50470700  0.43185600  0.87503800  1
  C  673  1  0.47123400  0.44869500  0.86404600  1
  C  674  1  0.47191400  0.47700200  0.83742400  1
  C  683  1  0.00456900  0.49055100  0.29205500  1
  C  684  1  0.97165000  0.47643400  0.27610700  1
  C  685  1  0.97111700  0.44822600  0.24938100  1
  C  686  1  0.00471200  0.43184500  0.23806800  1
  C  687  1  0.03819000  0.44867600  0.24906500  1
  C  688  1  0.03751200  0.47698000  0.27569000  1
  C  691  1  0.00457200  0.51884700  0.32101900  1
  C  692  1  0.97165500  0.53297000  0.33696500  1
  C  693  1  0.97112300  0.56118300  0.36369000  1
  C  694  1  0.00472200  0.57756700  0.37499100  1
  C  695  1  0.03819700  0.56071400  0.36401000  1
  C  696  1  0.03751500  0.53241300  0.33738600  1
  C  705  1  0.82053000  0.82214100  0.48127500  1
  C  706  1  0.84427300  0.84765900  0.49812600  1
  C  708  1  0.86020700  0.87459100  0.44013400  1
  C  709  1  0.83577200  0.85051600  0.42161800  1
  C  710  1  0.81553900  0.82504900  0.44284700  1
  C  712  1  0.88368200  0.89783800  0.41971700  1
  C  713  1  0.93421700  0.93969900  0.41931300  1
  C  714  1  0.93765000  0.93747700  0.38071400  1
  C  715  1  0.91113800  0.91666700  0.36155400  1
  C  718  1  0.88385200  0.89652600  0.38068300  1
  C  719  1  0.85869800  0.87320000  0.36244200  1
  C  720  1  0.83460400  0.85058700  0.38275900  1
  C  727  1  0.68891700  0.18720300  0.98127300  1
  C  728  1  0.66523100  0.16163900  0.99813400  1
  C  730  1  0.64924200  0.13482400  0.94010000  1
  C  731  1  0.67366300  0.15892700  0.92160300  1
  C  732  1  0.69394900  0.18434100  0.94284700  1
  C  734  1  0.62574500  0.11161700  0.91966300  1
  C  735  1  0.57521300  0.06976200  0.91921900  1
  C  736  1  0.57177500  0.07197000  0.88061100  1
  C  737  1  0.59820700  0.09292400  0.86151100  1
  C  740  1  0.62555100  0.11298900  0.88063100  1
  C  741  1  0.65069300  0.13634000  0.86240800  1
  C  742  1  0.67480700  0.15891400  0.88274300  1
  C  749  1  0.43774700  0.57019200  0.73086600  1
  C  750  1  0.41191800  0.59360000  0.74772200  1
  C  752  1  0.38522000  0.60964100  0.68963600  1
  C  753  1  0.40950300  0.58539600  0.67115200  1
  C  754  1  0.43491200  0.56514000  0.69243200  1
  C  756  1  0.36203600  0.63316200  0.66920100  1
  C  757  1  0.32002100  0.68354700  0.66879800  1
  C  758  1  0.32264100  0.68740500  0.63025400  1
  C  759  1  0.34374200  0.66110400  0.61111200  1
  C  762  1  0.36370700  0.63365400  0.63018500  1
  C  763  1  0.38722300  0.60867300  0.61195500  1
  C  764  1  0.40970700  0.58446600  0.63228200  1
  C  771  1  0.07166200  0.43911600  0.23089000  1
  C  772  1  0.09742300  0.41565300  0.24775100  1
  C  774  1  0.12421000  0.39974300  0.18967600  1
  C  775  1  0.09992200  0.42400500  0.17119500  1
  C  776  1  0.07450800  0.44426400  0.19247700  1
  C  778  1  0.14739700  0.37624100  0.16922200  1
  C  779  1  0.18945100  0.32587400  0.16881900  1
  C  780  1  0.18676300  0.32202700  0.13028000  1
  C  781  1  0.16571800  0.34834600  0.11111400  1
  C  784  1  0.14575000  0.37578300  0.13020600  1
  C  785  1  0.12223300  0.40076900  0.11198600  1
  C  786  1  0.09972700  0.42494900  0.13232400  1
  C  793  1  0.68890800  0.82217100  0.63180200  1
  C  794  1  0.66517300  0.84770300  0.61495600  1
  C  796  1  0.64923900  0.87461300  0.67296100  1
  C  797  1  0.67366800  0.85052700  0.69146600  1
  C  798  1  0.69390200  0.82506600  0.67023000  1
  C  800  1  0.62575900  0.89784300  0.69338400  1
  C  801  1  0.57520500  0.93966900  0.69380600  1
  C  802  1  0.57178300  0.93746000  0.73240800  1
  C  803  1  0.59828400  0.91663100  0.75155300  1
  C  806  1  0.62557300  0.89650100  0.73241900  1
  C  807  1  0.65072600  0.87317000  0.75065300  1
  C  808  1  0.67482900  0.85057300  0.73032800  1
  C  815  1  0.82049400  0.18720100  0.13179700  1
  C  816  1  0.84418300  0.16164000  0.11494100  1
  C  818  1  0.86015200  0.13481000  0.17297300  1
  C  819  1  0.83572600  0.15891100  0.19146700  1
  C  820  1  0.81544800  0.18433300  0.17022400  1
  C  822  1  0.88364100  0.11159600  0.19341000  1
  C  823  1  0.93417800  0.06974900  0.19386000  1
  C  824  1  0.93759700  0.07193800  0.23246700  1
  C  825  1  0.91115400  0.09288300  0.25156500  1
  C  828  1  0.88381900  0.11295500  0.23244300  1
  C  829  1  0.85867300  0.13630400  0.25066200  1
  C  830  1  0.83456800  0.15888600  0.23032700  1
  C  837  1  0.07166600  0.57024900  0.38221100  1
  C  838  1  0.09752700  0.59358600  0.36532000  1
  C  840  1  0.12419400  0.60963000  0.42342900  1
  C  841  1  0.09987600  0.58541200  0.44191500  1
  C  842  1  0.07445300  0.56517300  0.42063800  1
  C  844  1  0.14738200  0.63314600  0.44386700  1
  C  845  1  0.18942000  0.68351100  0.44427300  1
  C  846  1  0.18678200  0.68738300  0.48281500  1
  C  847  1  0.16566000  0.66110100  0.50195600  1
  C  850  1  0.14569100  0.63365400  0.48288200  1
  C  851  1  0.12215100  0.60869500  0.50111200  1
  C  852  1  0.09965600  0.58449800  0.48078500  1
  C  859  1  0.43776600  0.43915700  0.88223000  1
  C  860  1  0.41202000  0.41566400  0.86537700  1
  C  862  1  0.38520600  0.39975400  0.92343900  1
  C  863  1  0.40947600  0.42402700  0.94192200  1
  C  864  1  0.43488800  0.44429100  0.92064300  1
  C  866  1  0.36202000  0.37624700  0.94388700  1
  C  867  1  0.31997400  0.32587100  0.94428700  1
  C  868  1  0.32264900  0.32203200  0.98282600  1
  C  869  1  0.34367900  0.34836000  0.00199178  1
  C  872  1  0.36364900  0.37580000  0.98290300  1
  C  873  1  0.38715100  0.40079700  0.00112778  1
  C  874  1  0.40965700  0.42497700  0.98079300  1
  C  881  1  0.18917500  0.18774200  0.13206900  1
  C  882  1  0.16555800  0.16210400  0.11523000  1
  C  884  1  0.14951000  0.13536200  0.17328300  1
  C  885  1  0.17383000  0.15956900  0.19178300  1
  C  886  1  0.19407900  0.18500100  0.17052000  1
  C  888  1  0.12602600  0.11214000  0.19371700  1
  C  889  1  0.07560100  0.07016200  0.19412600  1
  C  890  1  0.07207200  0.07245800  0.23271700  1
  C  891  1  0.09845100  0.09343600  0.25187000  1
  C  894  1  0.12572400  0.11360100  0.23274400  1
  C  895  1  0.15075900  0.13706500  0.25097500  1
  C  896  1  0.17486300  0.15965800  0.23064500  1
  C  903  1  0.32020500  0.82168000  0.63208100  1
  C  904  1  0.34379100  0.84732400  0.61520300  1
  C  906  1  0.35985200  0.87403900  0.67326800  1
  C  907  1  0.33551300  0.84984900  0.69176800  1
  C  908  1  0.31521100  0.82445400  0.67051600  1
  C  910  1  0.38334800  0.89724800  0.69370500  1
  C  911  1  0.43376800  0.93923300  0.69412200  1
  C  912  1  0.43730500  0.93695800  0.73271600  1
  C  913  1  0.41098000  0.91588500  0.75183500  1
  C  916  1  0.38364700  0.89578500  0.73273200  1
  C  917  1  0.35860300  0.87233000  0.75096000  1
  C  918  1  0.33447900  0.84976400  0.73063000  1
  C  925  1  0.57177200  0.43843000  0.88178600  1
  C  926  1  0.59738100  0.41480200  0.86491900  1
  C  928  1  0.62430200  0.39901600  0.92298900  1
  C  929  1  0.60022400  0.42350000  0.94143900  1
  C  930  1  0.57480700  0.44374500  0.92016300  1
  C  932  1  0.64751000  0.37555500  0.94347000  1
  C  933  1  0.68937500  0.32504500  0.94401600  1
  C  934  1  0.68693500  0.32147200  0.98260700  1
  C  935  1  0.66602700  0.34797100  0.00166878  1
  C  938  1  0.64605100  0.37535000  0.98250000  1
  C  939  1  0.62272700  0.40054700  0.00067778  1
  C  940  1  0.60023200  0.42470200  0.98030400  1
  C  947  1  0.93766900  0.57097100  0.38178800  1
  C  948  1  0.91206800  0.59461500  0.36493600  1
  C  950  1  0.88510600  0.61035700  0.42298700  1
  C  951  1  0.90924400  0.58593400  0.44144600  1
  C  952  1  0.93465900  0.56567800  0.42016800  1
  C  954  1  0.86188400  0.63380400  0.44346800  1
  C  955  1  0.81988200  0.68421300  0.44399100  1
  C  956  1  0.82239600  0.68787700  0.48256400  1
  C  957  1  0.84337600  0.66143300  0.50164100  1
  C  960  1  0.86337100  0.63405700  0.48249300  1
  C  961  1  0.88676000  0.60893100  0.50068000  1
  C  962  1  0.90928000  0.58479200  0.48031100  1
  C  969  1  0.32023500  0.18775200  0.98103100  1
  C  970  1  0.34383800  0.16210100  0.99786800  1
  C  972  1  0.35988700  0.13537000  0.93981200  1
  C  973  1  0.33558200  0.15959400  0.92131500  1
  C  974  1  0.31533700  0.18502600  0.94257800  1
  C  976  1  0.38335900  0.11213800  0.91937500  1
  C  977  1  0.43372400  0.07008800  0.91895000  1
  C  978  1  0.43729100  0.07239300  0.88035900  1
  C  979  1  0.41093600  0.09343300  0.86123400  1
  C  982  1  0.38366600  0.11360900  0.88035100  1
  C  983  1  0.35865500  0.13709600  0.86212000  1
  C  984  1  0.33455800  0.15969600  0.88245000  1
  C  991  1  0.18920000  0.82166600  0.48097700  1
  C  992  1  0.16561500  0.84730800  0.49785600  1
  C  994  1  0.14956000  0.87403400  0.43979500  1
  C  995  1  0.17389600  0.84984300  0.42129400  1
  C  996  1  0.19419600  0.82444300  0.44254300  1
  C  998  1  0.12606600  0.89724500  0.41935900  1
  C  999  1  0.07564900  0.93923300  0.41894300  1
  C  1000  1  0.07211500  0.93696400  0.38034800  1
  C  1001  1  0.09844200  0.91589000  0.36123000  1
  C  1004  1  0.12577200  0.89578800  0.38033100  1
  C  1005  1  0.15081300  0.87233500  0.36210200  1
  C  1006  1  0.17493300  0.84975800  0.38243000  1
  C  1013  1  0.93766600  0.43846000  0.23126800  1
  C  1014  1  0.91203800  0.41483800  0.24812700  1
  C  1016  1  0.88513000  0.39902400  0.19006000  1
  C  1017  1  0.90922000  0.42349200  0.17160700  1
  C  1018  1  0.93463700  0.44373400  0.19288600  1
  C  1020  1  0.86192200  0.37556100  0.16958400  1
  C  1021  1  0.82004400  0.32505900  0.16904700  1
  C  1022  1  0.82249200  0.32147500  0.13045800  1
  C  1023  1  0.84341200  0.34796200  0.11139100  1
  C  1026  1  0.86339000  0.37534100  0.13055400  1
  C  1027  1  0.88672500  0.40052300  0.11237000  1
  C  1028  1  0.90922200  0.42468000  0.13274400  1
  C  1035  1  0.57175300  0.57097100  0.73129400  1
  C  1036  1  0.59732100  0.59465100  0.74815000  1
  C  1038  1  0.62431300  0.61037900  0.69010800  1
  C  1039  1  0.60020800  0.58592500  0.67164600  1
  C  1040  1  0.57479600  0.56565900  0.69291700  1
  C  1042  1  0.64753000  0.63383500  0.66963000  1
  C  1043  1  0.68950400  0.68426800  0.66911600  1
  C  1044  1  0.68698200  0.68792000  0.63054800  1
  C  1045  1  0.66605100  0.66145200  0.61145200  1
  C  1048  1  0.64606400  0.63407100  0.63060200  1
  C  1049  1  0.62270500  0.60891700  0.61241300  1
  C  1050  1  0.60019400  0.58476700  0.63278100  1
  C  1057  1  0.00492700  0.01890700  0.59394900  1
  C  1058  1  0.03782500  0.03307800  0.57801800  1
  C  1059  1  0.03838000  0.06158300  0.55158000  1
  C  1060  1  0.00480200  0.07838400  0.54085700  1
  C  1061  1  0.97132300  0.06125600  0.55137100  1
  C  1062  1  0.97200100  0.03268100  0.57773000  1
  C  1065  1  0.00493300  0.99049800  0.62282200  1
  C  1066  1  0.03784000  0.97633400  0.63874200  1
  C  1067  1  0.03841000  0.94783000  0.66518100  1
  C  1068  1  0.00483900  0.93102300  0.67591700  1
  C  1069  1  0.97135300  0.94814200  0.66541600  1
  C  1070  1  0.97201500  0.97671200  0.63905100  1
  C  1079  1  0.50447400  0.99052000  0.09389760  1
  C  1080  1  0.47156900  0.97634200  0.07798560  1
  C  1081  1  0.47100600  0.94783200  0.05155060  1
  C  1082  1  0.50458100  0.93103400  0.04082160  1
  C  1083  1  0.53806500  0.94815100  0.05133060  1
  C  1084  1  0.53739900  0.97671500  0.07770060  1
  C  1087  1  0.50447100  0.01888600  0.12281700  1
  C  1088  1  0.47156300  0.03304800  0.13873700  1
  C  1089  1  0.47099300  0.06154900  0.16518000  1
  C  1090  1  0.50456200  0.07835900  0.17591200  1
  C  1091  1  0.53805200  0.06126400  0.16538600  1
  C  1092  1  0.53739000  0.03270200  0.13901100  1
  C  1101  1  0.24053700  0.75444500  0.84390400  1
  C  1102  1  0.22739500  0.78738800  0.82721000  1
  C  1103  1  0.19882100  0.78817000  0.80087900  1
  C  1104  1  0.18150900  0.75480400  0.79029300  1
  C  1105  1  0.19767500  0.72110800  0.80161600  1
  C  1106  1  0.22583200  0.72156400  0.82842500  1
  C  1109  1  0.26887200  0.75444700  0.87282800  1
  C  1110  1  0.28200900  0.78739400  0.88951800  1
  C  1111  1  0.31058700  0.78818400  0.91584700  1
  C  1112  1  0.32790700  0.75482100  0.92643000  1
  C  1113  1  0.31174500  0.72112500  0.91511100  1
  C  1114  1  0.28358700  0.72157200  0.88830600  1
  C  1123  1  0.26887700  0.25498100  0.34392900  1
  C  1124  1  0.28202800  0.22203700  0.32724600  1
  C  1125  1  0.31061200  0.22124900  0.30092300  1
  C  1126  1  0.32793400  0.25461700  0.29034800  1
  C  1127  1  0.31175000  0.28831200  0.30165100  1
  C  1128  1  0.28359200  0.28785900  0.32845600  1
  C  1131  1  0.24053100  0.25497800  0.37284200  1
  C  1132  1  0.22738000  0.22203300  0.38952800  1
  C  1133  1  0.19880200  0.22124300  0.41585300  1
  C  1134  1  0.18148200  0.25461000  0.42643400  1
  C  1135  1  0.19766000  0.28830300  0.41512600  1
  C  1136  1  0.22581700  0.28785600  0.38831800  1
  C  1145  1  0.76890000  0.25444000  0.37280900  1
  C  1146  1  0.78219700  0.22148800  0.38936300  1
  C  1147  1  0.81080300  0.22071400  0.41564800  1
  C  1148  1  0.82801800  0.25410000  0.42632400  1
  C  1149  1  0.81166100  0.28777700  0.41520900  1
  C  1150  1  0.78344300  0.28731600  0.38845800  1
  C  1153  1  0.74051900  0.25443900  0.34392600  1
  C  1154  1  0.72721900  0.22148800  0.32737500  1
  C  1155  1  0.69861100  0.22071500  0.30109400  1
  C  1156  1  0.68139300  0.25410000  0.29042200  1
  C  1157  1  0.69775500  0.28777700  0.30153000  1
  C  1158  1  0.72597100  0.28731600  0.32828900  1
  C  1167  1  0.74053600  0.75493900  0.87283900  1
  C  1168  1  0.72719200  0.78789600  0.88934600  1
  C  1169  1  0.69860000  0.78866700  0.91564600  1
  C  1170  1  0.68142300  0.75527300  0.92636100  1
  C  1171  1  0.69778200  0.72160000  0.91524800  1
  C  1172  1  0.72600600  0.72206300  0.88850000  1
  C  1175  1  0.76887000  0.75493300  0.84390700  1
  C  1176  1  0.78222700  0.78788200  0.82739500  1
  C  1177  1  0.81081900  0.78863700  0.80109200  1
  C  1178  1  0.82798000  0.75523500  0.79038000  1
  C  1179  1  0.81160700  0.72157200  0.80150100  1
  C  1180  1  0.78338500  0.72205000  0.82825300  1
  C  1189  1  0.50485600  0.51882200  0.09388160  1
  C  1190  1  0.53777200  0.53296400  0.07794460  1
  C  1191  1  0.53829300  0.56116100  0.05120460  1
  C  1192  1  0.50469100  0.57752100  0.03988860  1
  C  1193  1  0.47122300  0.56066200  0.05087060  1
  C  1194  1  0.47191200  0.53235000  0.07748660  1
  C  1197  1  0.50485800  0.49054000  0.12286100  1
  C  1198  1  0.53777700  0.47640600  0.13879200  1
  C  1199  1  0.53830400  0.44821800  0.16554300  1
  C  1200  1  0.50470700  0.43185600  0.17687200  1
  C  1201  1  0.47123400  0.44869500  0.16588000  1
  C  1202  1  0.47191400  0.47700200  0.13925800  1
  C  1211  1  0.00456900  0.49055100  0.59388900  1
  C  1212  1  0.97165000  0.47643400  0.57794100  1
  C  1213  1  0.97111700  0.44822600  0.55121500  1
  C  1214  1  0.00471200  0.43184500  0.53990200  1
  C  1215  1  0.03819000  0.44867600  0.55089900  1
  C  1216  1  0.03751200  0.47698000  0.57752400  1
  C  1219  1  0.00457200  0.51884700  0.62285300  1
  C  1220  1  0.97165500  0.53297000  0.63879900  1
  C  1221  1  0.97112300  0.56118300  0.66552400  1
  C  1222  1  0.00472200  0.57756700  0.67682500  1
  C  1223  1  0.03819700  0.56071400  0.66584400  1
  C  1224  1  0.03751500  0.53241300  0.63922000  1
  C  1233  1  0.82053000  0.82214100  0.78310900  1
  C  1234  1  0.84427300  0.84765900  0.79996000  1
  C  1236  1  0.86020700  0.87459100  0.74196800  1
  C  1237  1  0.83577200  0.85051600  0.72345200  1
  C  1238  1  0.81553900  0.82504900  0.74468100  1
  C  1240  1  0.88368200  0.89783800  0.72155100  1
  C  1241  1  0.93421700  0.93969900  0.72114700  1
  C  1242  1  0.93765000  0.93747700  0.68254800  1
  C  1243  1  0.91113800  0.91666700  0.66338800  1
  C  1246  1  0.88385200  0.89652600  0.68251700  1
  C  1247  1  0.85869800  0.87320000  0.66427600  1
  C  1248  1  0.83460400  0.85058700  0.68459300  1
  C  1255  1  0.68891700  0.18720300  0.28310700  1
  C  1256  1  0.66523100  0.16163900  0.29996800  1
  C  1258  1  0.64924200  0.13482400  0.24193400  1
  C  1259  1  0.67366300  0.15892700  0.22343700  1
  C  1260  1  0.69394900  0.18434100  0.24468100  1
  C  1262  1  0.62574500  0.11161700  0.22149700  1
  C  1263  1  0.57521300  0.06976200  0.22105300  1
  C  1264  1  0.57177500  0.07197000  0.18244500  1
  C  1265  1  0.59820700  0.09292400  0.16334500  1
  C  1268  1  0.62555100  0.11298900  0.18246500  1
  C  1269  1  0.65069300  0.13634000  0.16424200  1
  C  1270  1  0.67480700  0.15891400  0.18457700  1
  C  1277  1  0.43774700  0.57019200  0.03269960  1
  C  1278  1  0.41191800  0.59360000  0.04955560  1
  C  1280  1  0.38522000  0.60964100  0.99147000  1
  C  1281  1  0.40950300  0.58539600  0.97298600  1
  C  1282  1  0.43491200  0.56514000  0.99426600  1
  C  1284  1  0.36203600  0.63316200  0.97103500  1
  C  1285  1  0.32002100  0.68354700  0.97063200  1
  C  1286  1  0.32264100  0.68740500  0.93208800  1
  C  1287  1  0.34374200  0.66110400  0.91294600  1
  C  1290  1  0.36370700  0.63365400  0.93201900  1
  C  1291  1  0.38722300  0.60867300  0.91378900  1
  C  1292  1  0.40970700  0.58446600  0.93411600  1
  C  1299  1  0.07166200  0.43911600  0.53272400  1
  C  1300  1  0.09742300  0.41565300  0.54958500  1
  C  1302  1  0.12421000  0.39974300  0.49151000  1
  C  1303  1  0.09992200  0.42400500  0.47302900  1
  C  1304  1  0.07450800  0.44426400  0.49431100  1
  C  1306  1  0.14739700  0.37624100  0.47105600  1
  C  1307  1  0.18945100  0.32587400  0.47065300  1
  C  1308  1  0.18676300  0.32202700  0.43211400  1
  C  1309  1  0.16571800  0.34834600  0.41294800  1
  C  1312  1  0.14575000  0.37578300  0.43204000  1
  C  1313  1  0.12223300  0.40076900  0.41382000  1
  C  1314  1  0.09972700  0.42494900  0.43415800  1
  C  1321  1  0.68890800  0.82217100  0.93363600  1
  C  1322  1  0.66517300  0.84770300  0.91679000  1
  C  1324  1  0.64923900  0.87461300  0.97479500  1
  C  1325  1  0.67366800  0.85052700  0.99330000  1
  C  1326  1  0.69390200  0.82506600  0.97206400  1
  C  1328  1  0.62575900  0.89784300  0.99521800  1
  C  1329  1  0.57520500  0.93966900  0.99564000  1
  C  1330  1  0.57178300  0.93746000  0.03424160  1
  C  1331  1  0.59828400  0.91663100  0.05338660  1
  C  1334  1  0.62557300  0.89650100  0.03425260  1
  C  1335  1  0.65072600  0.87317000  0.05248660  1
  C  1336  1  0.67482900  0.85057300  0.03216160  1
  C  1343  1  0.82049400  0.18720100  0.43363100  1
  C  1344  1  0.84418300  0.16164000  0.41677500  1
  C  1346  1  0.86015200  0.13481000  0.47480700  1
  C  1347  1  0.83572600  0.15891100  0.49330100  1
  C  1348  1  0.81544800  0.18433300  0.47205800  1
  C  1350  1  0.88364100  0.11159600  0.49524400  1
  C  1351  1  0.93417800  0.06974900  0.49569400  1
  C  1352  1  0.93759700  0.07193800  0.53430100  1
  C  1353  1  0.91115400  0.09288300  0.55339900  1
  C  1356  1  0.88381900  0.11295500  0.53427700  1
  C  1357  1  0.85867300  0.13630400  0.55249600  1
  C  1358  1  0.83456800  0.15888600  0.53216100  1
  C  1365  1  0.07166600  0.57024900  0.68404500  1
  C  1366  1  0.09752700  0.59358600  0.66715400  1
  C  1368  1  0.12419400  0.60963000  0.72526300  1
  C  1369  1  0.09987600  0.58541200  0.74374900  1
  C  1370  1  0.07445300  0.56517300  0.72247200  1
  C  1372  1  0.14738200  0.63314600  0.74570100  1
  C  1373  1  0.18942000  0.68351100  0.74610700  1
  C  1374  1  0.18678200  0.68738300  0.78464900  1
  C  1375  1  0.16566000  0.66110100  0.80379000  1
  C  1378  1  0.14569100  0.63365400  0.78471600  1
  C  1379  1  0.12215100  0.60869500  0.80294600  1
  C  1380  1  0.09965600  0.58449800  0.78261900  1
  C  1387  1  0.43776600  0.43915700  0.18406400  1
  C  1388  1  0.41202000  0.41566400  0.16721100  1
  C  1390  1  0.38520600  0.39975400  0.22527300  1
  C  1391  1  0.40947600  0.42402700  0.24375600  1
  C  1392  1  0.43488800  0.44429100  0.22247700  1
  C  1394  1  0.36202000  0.37624700  0.24572100  1
  C  1395  1  0.31997400  0.32587100  0.24612100  1
  C  1396  1  0.32264900  0.32203200  0.28466000  1
  C  1397  1  0.34367900  0.34836000  0.30382600  1
  C  1400  1  0.36364900  0.37580000  0.28473700  1
  C  1401  1  0.38715100  0.40079700  0.30296200  1
  C  1402  1  0.40965700  0.42497700  0.28262700  1
  C  1409  1  0.18917500  0.18774200  0.43390300  1
  C  1410  1  0.16555800  0.16210400  0.41706400  1
  C  1412  1  0.14951000  0.13536200  0.47511700  1
  C  1413  1  0.17383000  0.15956900  0.49361700  1
  C  1414  1  0.19407900  0.18500100  0.47235400  1
  C  1416  1  0.12602600  0.11214000  0.49555100  1
  C  1417  1  0.07560100  0.07016200  0.49596000  1
  C  1418  1  0.07207200  0.07245800  0.53455100  1
  C  1419  1  0.09845100  0.09343600  0.55370400  1
  C  1422  1  0.12572400  0.11360100  0.53457800  1
  C  1423  1  0.15075900  0.13706500  0.55280900  1
  C  1424  1  0.17486300  0.15965800  0.53247900  1
  C  1431  1  0.32020500  0.82168000  0.93391500  1
  C  1432  1  0.34379100  0.84732400  0.91703700  1
  C  1434  1  0.35985200  0.87403900  0.97510200  1
  C  1435  1  0.33551300  0.84984900  0.99360200  1
  C  1436  1  0.31521100  0.82445400  0.97235000  1
  C  1438  1  0.38334800  0.89724800  0.99553900  1
  C  1439  1  0.43376800  0.93923300  0.99595600  1
  C  1440  1  0.43730500  0.93695800  0.03454960  1
  C  1441  1  0.41098000  0.91588500  0.05366860  1
  C  1444  1  0.38364700  0.89578500  0.03456560  1
  C  1445  1  0.35860300  0.87233000  0.05279360  1
  C  1446  1  0.33447900  0.84976400  0.03246360  1
  C  1453  1  0.57177200  0.43843000  0.18362000  1
  C  1454  1  0.59738100  0.41480200  0.16675300  1
  C  1456  1  0.62430200  0.39901600  0.22482300  1
  C  1457  1  0.60022400  0.42350000  0.24327300  1
  C  1458  1  0.57480700  0.44374500  0.22199700  1
  C  1460  1  0.64751000  0.37555500  0.24530400  1
  C  1461  1  0.68937500  0.32504500  0.24585000  1
  C  1462  1  0.68693500  0.32147200  0.28444100  1
  C  1463  1  0.66602700  0.34797100  0.30350300  1
  C  1466  1  0.64605100  0.37535000  0.28433400  1
  C  1467  1  0.62272700  0.40054700  0.30251200  1
  C  1468  1  0.60023200  0.42470200  0.28213800  1
  C  1475  1  0.93766900  0.57097100  0.68362200  1
  C  1476  1  0.91206800  0.59461500  0.66677000  1
  C  1478  1  0.88510600  0.61035700  0.72482100  1
  C  1479  1  0.90924400  0.58593400  0.74328000  1
  C  1480  1  0.93465900  0.56567800  0.72200200  1
  C  1482  1  0.86188400  0.63380400  0.74530200  1
  C  1483  1  0.81988200  0.68421300  0.74582500  1
  C  1484  1  0.82239600  0.68787700  0.78439800  1
  C  1485  1  0.84337600  0.66143300  0.80347500  1
  C  1488  1  0.86337100  0.63405700  0.78432700  1
  C  1489  1  0.88676000  0.60893100  0.80251400  1
  C  1490  1  0.90928000  0.58479200  0.78214500  1
  C  1497  1  0.32023500  0.18775200  0.28286500  1
  C  1498  1  0.34383800  0.16210100  0.29970200  1
  C  1500  1  0.35988700  0.13537000  0.24164600  1
  C  1501  1  0.33558200  0.15959400  0.22314900  1
  C  1502  1  0.31533700  0.18502600  0.24441200  1
  C  1504  1  0.38335900  0.11213800  0.22120900  1
  C  1505  1  0.43372400  0.07008800  0.22078400  1
  C  1506  1  0.43729100  0.07239300  0.18219300  1
  C  1507  1  0.41093600  0.09343300  0.16306800  1
  C  1510  1  0.38366600  0.11360900  0.18218500  1
  C  1511  1  0.35865500  0.13709600  0.16395400  1
  C  1512  1  0.33455800  0.15969600  0.18428400  1
  C  1519  1  0.18920000  0.82166600  0.78281100  1
  C  1520  1  0.16561500  0.84730800  0.79969000  1
  C  1522  1  0.14956000  0.87403400  0.74162900  1
  C  1523  1  0.17389600  0.84984300  0.72312800  1
  C  1524  1  0.19419600  0.82444300  0.74437700  1
  C  1526  1  0.12606600  0.89724500  0.72119300  1
  C  1527  1  0.07564900  0.93923300  0.72077700  1
  C  1528  1  0.07211500  0.93696400  0.68218200  1
  C  1529  1  0.09844200  0.91589000  0.66306400  1
  C  1532  1  0.12577200  0.89578800  0.68216500  1
  C  1533  1  0.15081300  0.87233500  0.66393600  1
  C  1534  1  0.17493300  0.84975800  0.68426400  1
  C  1541  1  0.93766600  0.43846000  0.53310200  1
  C  1542  1  0.91203800  0.41483800  0.54996100  1
  C  1544  1  0.88513000  0.39902400  0.49189400  1
  C  1545  1  0.90922000  0.42349200  0.47344100  1
  C  1546  1  0.93463700  0.44373400  0.49472000  1
  C  1548  1  0.86192200  0.37556100  0.47141800  1
  C  1549  1  0.82004400  0.32505900  0.47088100  1
  C  1550  1  0.82249200  0.32147500  0.43229200  1
  C  1551  1  0.84341200  0.34796200  0.41322500  1
  C  1554  1  0.86339000  0.37534100  0.43238800  1
  C  1555  1  0.88672500  0.40052300  0.41420400  1
  C  1556  1  0.90922200  0.42468000  0.43457800  1
  C  1563  1  0.57175300  0.57097100  0.03312760  1
  C  1564  1  0.59732100  0.59465100  0.04998360  1
  C  1566  1  0.62431300  0.61037900  0.99194200  1
  C  1567  1  0.60020800  0.58592500  0.97348000  1
  C  1568  1  0.57479600  0.56565900  0.99475100  1
  C  1570  1  0.64753000  0.63383500  0.97146400  1
  C  1571  1  0.68950400  0.68426800  0.97095000  1
  C  1572  1  0.68698200  0.68792000  0.93238200  1
  C  1573  1  0.66605100  0.66145200  0.91328600  1
  C  1576  1  0.64606400  0.63407100  0.93243600  1
  C  1577  1  0.62270500  0.60891700  0.91424700  1
  C  1578  1  0.60019400  0.58476700  0.93461500  1
  N  8  1  0.00472400  0.11067400  0.91788800  1
  N  15  1  0.00477300  0.89874000  0.09156300  1
  N  30  1  0.50467200  0.89873500  0.41787800  1
  N  37  1  0.50463900  0.11064500  0.59154200  1
  N  52  1  0.14974400  0.75512500  0.16648700  1
  N  59  1  0.35967900  0.75515300  0.34288900  1
  N  74  1  0.35969300  0.25429700  0.66651500  1
  N  81  1  0.14972900  0.25429000  0.84294000  1
  N  96  1  0.85981800  0.25379600  0.84275600  1
  N  103  1  0.64959300  0.25379900  0.66666667  1
  N  118  1  0.64962600  0.75554500  0.34279000  1
  N  125  1  0.85977100  0.75549000  0.16661100  1
  N  140  1  0.50458700  0.60885900  0.41541900  1
  N  147  1  0.50461700  0.40053400  0.59402800  1
  N  162  1  0.00481700  0.40052300  0.91539900  1
  N  169  1  0.00481500  0.60888900  0.09399800  1
  N  179  1  0.86313000  0.87221500  0.17549900  1
  N  189  1  0.90856400  0.91948200  0.13527700  1
  N  201  1  0.64634400  0.13713600  0.67547100  1
  N  211  1  0.60088300  0.08993700  0.63520700  1
  N  223  1  0.38739000  0.61242100  0.42502300  1
  N  233  1  0.34011200  0.65779700  0.38475900  1
  N  245  1  0.12201900  0.39692000  0.92506000  1
  N  255  1  0.16931200  0.35159300  0.88477400  1
  N  267  1  0.64632000  0.87225300  0.33392400  1
  N  277  1  0.60088300  0.91949800  0.37416100  1
  N  289  1  0.86306100  0.13713100  0.83393400  1
  N  299  1  0.90851200  0.08992800  0.87420100  1
  N  311  1  0.12205400  0.61239100  0.08436600  1
  N  321  1  0.16932500  0.65776200  0.12464400  1
  N  333  1  0.38741700  0.39692200  0.58438600  1
  N  343  1  0.34011500  0.35159000  0.62466400  1
  N  355  1  0.14670000  0.13758600  0.83423000  1
  N  365  1  0.10126500  0.09035900  0.87448900  1
  N  377  1  0.36267000  0.87181700  0.33421500  1
  N  387  1  0.40811000  0.91903200  0.37448300  1
  N  399  1  0.62192600  0.39600600  0.58395800  1
  N  409  1  0.66926400  0.35072800  0.62431000  1
  N  421  1  0.88745500  0.61334300  0.08395200  1
  N  431  1  0.84006700  0.65857100  0.12430000  1
  N  443  1  0.36269200  0.13758100  0.67519700  1
  N  453  1  0.40810100  0.09033200  0.63492400  1
  N  465  1  0.14674000  0.87180600  0.17517800  1
  N  475  1  0.10130500  0.91902900  0.13491500  1
  N  487  1  0.88749600  0.39603600  0.92542500  1
  N  497  1  0.84015700  0.35074500  0.88507800  1
  N  509  1  0.62193400  0.61338400  0.42547300  1
  N  519  1  0.66932500  0.65861800  0.38513400  1
  N  536  1  0.00472400  0.11067400  0.21972200  1
  N  543  1  0.00477300  0.89874000  0.39339700  1
  N  558  1  0.50467200  0.89873500  0.71971200  1
  N  565  1  0.50463900  0.11064500  0.89337600  1
  N  580  1  0.14974400  0.75512500  0.46832100  1
  N  587  1  0.35967900  0.75515300  0.64472300  1
  N  602  1  0.35969300  0.25429700  0.96834900  1
  N  609  1  0.14972900  0.25429000  0.14477400  1
  N  624  1  0.85981800  0.25379600  0.14459000  1
  N  631  1  0.64959300  0.25379900  0.96849200  1
  N  646  1  0.64962600  0.75554500  0.64462400  1
  N  653  1  0.85977100  0.75549000  0.46844500  1
  N  668  1  0.50458700  0.60885900  0.71725300  1
  N  675  1  0.50461700  0.40053400  0.89586200  1
  N  690  1  0.00481700  0.40052300  0.21723300  1
  N  697  1  0.00481500  0.60888900  0.39583200  1
  N  707  1  0.86313000  0.87221500  0.47733300  1
  N  717  1  0.90856400  0.91948200  0.43711100  1
  N  729  1  0.64634400  0.13713600  0.97730500  1
  N  739  1  0.60088300  0.08993700  0.93704100  1
  N  751  1  0.38739000  0.61242100  0.72685700  1
  N  761  1  0.34011200  0.65779700  0.68659300  1
  N  773  1  0.12201900  0.39692000  0.22689400  1
  N  783  1  0.16931200  0.35159300  0.18660800  1
  N  795  1  0.64632000  0.87225300  0.63575800  1
  N  805  1  0.60088300  0.91949800  0.67599500  1
  N  817  1  0.86306100  0.13713100  0.13576800  1
  N  827  1  0.90851200  0.08992800  0.17603500  1
  N  839  1  0.12205400  0.61239100  0.38620000  1
  N  849  1  0.16932500  0.65776200  0.42647800  1
  N  861  1  0.38741700  0.39692200  0.88622000  1
  N  871  1  0.34011500  0.35159000  0.92649800  1
  N  883  1  0.14670000  0.13758600  0.13606400  1
  N  893  1  0.10126500  0.09035900  0.17632300  1
  N  905  1  0.36267000  0.87181700  0.63604900  1
  N  915  1  0.40811000  0.91903200  0.67631700  1
  N  927  1  0.62192600  0.39600600  0.88579200  1
  N  937  1  0.66926400  0.35072800  0.92614400  1
  N  949  1  0.88745500  0.61334300  0.38578600  1
  N  959  1  0.84006700  0.65857100  0.42613400  1
  N  971  1  0.36269200  0.13758100  0.97703100  1
  N  981  1  0.40810100  0.09033200  0.93675800  1
  N  993  1  0.14674000  0.87180600  0.47701200  1
  N  1003  1  0.10130500  0.91902900  0.43674900  1
  N  1015  1  0.88749600  0.39603600  0.22725900  1
  N  1025  1  0.84015700  0.35074500  0.18691200  1
  N  1037  1  0.62193400  0.61338400  0.72730700  1
  N  1047  1  0.66932500  0.65861800  0.68696800  1
  N  1064  1  0.00472400  0.11067400  0.52155600  1
  N  1071  1  0.00477300  0.89874000  0.69523100  1
  N  1086  1  0.50467200  0.89873500  0.02154560  1
  N  1093  1  0.50463900  0.11064500  0.19521000  1
  N  1108  1  0.14974400  0.75512500  0.77015500  1
  N  1115  1  0.35967900  0.75515300  0.94655700  1
  N  1130  1  0.35969300  0.25429700  0.27018300  1
  N  1137  1  0.14972900  0.25429000  0.44660800  1
  N  1152  1  0.85981800  0.25379600  0.44642400  1
  N  1159  1  0.64959300  0.25379900  0.27032600  1
  N  1174  1  0.64962600  0.75554500  0.94645800  1
  N  1181  1  0.85977100  0.75549000  0.77027900  1
  N  1196  1  0.50458700  0.60885900  0.01908660  1
  N  1203  1  0.50461700  0.40053400  0.19769600  1
  N  1218  1  0.00481700  0.40052300  0.51906700  1
  N  1225  1  0.00481500  0.60888900  0.69766600  1
  N  1235  1  0.86313000  0.87221500  0.77916700  1
  N  1245  1  0.90856400  0.91948200  0.73894500  1
  N  1257  1  0.64634400  0.13713600  0.27913900  1
  N  1267  1  0.60088300  0.08993700  0.23887500  1
  N  1279  1  0.38739000  0.61242100  0.02869060  1
  N  1289  1  0.34011200  0.65779700  0.98842700  1
  N  1301  1  0.12201900  0.39692000  0.52872800  1
  N  1311  1  0.16931200  0.35159300  0.48844200  1
  N  1323  1  0.64632000  0.87225300  0.93759200  1
  N  1333  1  0.60088300  0.91949800  0.97782900  1
  N  1345  1  0.86306100  0.13713100  0.43760200  1
  N  1355  1  0.90851200  0.08992800  0.47786900  1
  N  1367  1  0.12205400  0.61239100  0.68803400  1
  N  1377  1  0.16932500  0.65776200  0.72831200  1
  N  1389  1  0.38741700  0.39692200  0.18805400  1
  N  1399  1  0.34011500  0.35159000  0.22833200  1
  N  1411  1  0.14670000  0.13758600  0.43789800  1
  N  1421  1  0.10126500  0.09035900  0.47815700  1
  N  1433  1  0.36267000  0.87181700  0.93788300  1
  N  1443  1  0.40811000  0.91903200  0.97815100  1
  N  1455  1  0.62192600  0.39600600  0.18762600  1
  N  1465  1  0.66926400  0.35072800  0.22797800  1
  N  1477  1  0.88745500  0.61334300  0.68762000  1
  N  1487  1  0.84006700  0.65857100  0.72796800  1
  N  1499  1  0.36269200  0.13758100  0.27886500  1
  N  1509  1  0.40810100  0.09033200  0.23859200  1
  N  1521  1  0.14674000  0.87180600  0.77884600  1
  N  1531  1  0.10130500  0.91902900  0.73858300  1
  N  1543  1  0.88749600  0.39603600  0.52909300  1
  N  1553  1  0.84015700  0.35074500  0.48874600  1
  N  1565  1  0.62193400  0.61338400  0.02914060  1
  N  1575  1  0.66932500  0.65861800  0.98880200  1
  O  195  1  0.85751500  0.87175900  0.02326400  1
  O  197  1  0.81124200  0.82804500  0.06235900  1
  O  217  1  0.65183800  0.13784600  0.52323200  1
  O  219  1  0.69816900  0.18147200  0.56236300  1
  O  239  1  0.38897900  0.60778900  0.27278100  1
  O  241  1  0.43247000  0.56130900  0.31189000  1
  O  261  1  0.12049100  0.40168300  0.77281300  1
  O  263  1  0.07697600  0.44812200  0.81194100  1
  O  283  1  0.65190100  0.87170700  0.48616100  1
  O  285  1  0.69818800  0.82802100  0.44705200  1
  O  305  1  0.85751500  0.13780100  0.98617100  1
  O  307  1  0.81120600  0.18144600  0.94703900  1
  O  327  1  0.12037900  0.60782800  0.23661700  1
  O  329  1  0.07686900  0.56136400  0.19750700  1
  O  349  1  0.38888000  0.40171600  0.73663400  1
  O  351  1  0.43239300  0.44816300  0.69751100  1
  O  371  1  0.15181500  0.13865400  0.98648100  1
  O  373  1  0.19810300  0.18233500  0.94736600  1
  O  393  1  0.35756300  0.87072500  0.48646600  1
  O  395  1  0.31122100  0.82710200  0.44735100  1
  O  415  1  0.62118000  0.40170500  0.73618600  1
  O  417  1  0.57767400  0.44808900  0.69698600  1
  O  437  1  0.88834100  0.60781700  0.23618800  1
  O  439  1  0.93188200  0.56145200  0.19700300  1
  O  459  1  0.35761000  0.13869800  0.52294600  1
  O  461  1  0.31133300  0.18239100  0.56206400  1
  O  481  1  0.15185500  0.87073300  0.02292700  1
  O  483  1  0.19819100  0.82710200  0.06204100  1
  O  503  1  0.88828100  0.40167000  0.77319700  1
  O  505  1  0.93179400  0.44805300  0.81239100  1
  O  525  1  0.62114400  0.60778600  0.27323800  1
  O  527  1  0.57761900  0.56140500  0.31241700  1
  O  723  1  0.85751500  0.87175900  0.32509800  1
  O  725  1  0.81124200  0.82804500  0.36419300  1
  O  745  1  0.65183800  0.13784600  0.82506600  1
  O  747  1  0.69816900  0.18147200  0.86419700  1
  O  767  1  0.38897900  0.60778900  0.57461500  1
  O  769  1  0.43247000  0.56130900  0.61372400  1
  O  789  1  0.12049100  0.40168300  0.07464680  1
  O  791  1  0.07697600  0.44812200  0.11377500  1
  O  811  1  0.65190100  0.87170700  0.78799500  1
  O  813  1  0.69818800  0.82802100  0.74888600  1
  O  833  1  0.85751500  0.13780100  0.28800500  1
  O  835  1  0.81120600  0.18144600  0.24887300  1
  O  855  1  0.12037900  0.60782800  0.53845100  1
  O  857  1  0.07686900  0.56136400  0.49934100  1
  O  877  1  0.38888000  0.40171600  0.03846780  1
  O  879  1  0.43239300  0.44816300  0.99934500  1
  O  899  1  0.15181500  0.13865400  0.28831500  1
  O  901  1  0.19810300  0.18233500  0.24920000  1
  O  921  1  0.35756300  0.87072500  0.78830000  1
  O  923  1  0.31122100  0.82710200  0.74918500  1
  O  943  1  0.62118000  0.40170500  0.03801980  1
  O  945  1  0.57767400  0.44808900  0.99882000  1
  O  965  1  0.88834100  0.60781700  0.53802200  1
  O  967  1  0.93188200  0.56145200  0.49883700  1
  O  987  1  0.35761000  0.13869800  0.82478000  1
  O  989  1  0.31133300  0.18239100  0.86389800  1
  O  1009  1  0.15185500  0.87073300  0.32476100  1
  O  1011  1  0.19819100  0.82710200  0.36387500  1
  O  1031  1  0.88828100  0.40167000  0.07503080  1
  O  1033  1  0.93179400  0.44805300  0.11422500  1
  O  1053  1  0.62114400  0.60778600  0.57507200  1
  O  1055  1  0.57761900  0.56140500  0.61425100  1
  O  1251  1  0.85751500  0.87175900  0.62693200  1
  O  1253  1  0.81124200  0.82804500  0.66602700  1
  O  1273  1  0.65183800  0.13784600  0.12690000  1
  O  1275  1  0.69816900  0.18147200  0.16603100  1
  O  1295  1  0.38897900  0.60778900  0.87644900  1
  O  1297  1  0.43247000  0.56130900  0.91555800  1
  O  1317  1  0.12049100  0.40168300  0.37648100  1
  O  1319  1  0.07697600  0.44812200  0.41560900  1
  O  1339  1  0.65190100  0.87170700  0.08982860  1
  O  1341  1  0.69818800  0.82802100  0.05071960  1
  O  1361  1  0.85751500  0.13780100  0.58983900  1
  O  1363  1  0.81120600  0.18144600  0.55070700  1
  O  1383  1  0.12037900  0.60782800  0.84028500  1
  O  1385  1  0.07686900  0.56136400  0.80117500  1
  O  1405  1  0.38888000  0.40171600  0.34030200  1
  O  1407  1  0.43239300  0.44816300  0.30117900  1
  O  1427  1  0.15181500  0.13865400  0.59014900  1
  O  1429  1  0.19810300  0.18233500  0.55103400  1
  O  1449  1  0.35756300  0.87072500  0.09013360  1
  O  1451  1  0.31122100  0.82710200  0.05101860  1
  O  1471  1  0.62118000  0.40170500  0.33985400  1
  O  1473  1  0.57767400  0.44808900  0.30065400  1
  O  1493  1  0.88834100  0.60781700  0.83985600  1
  O  1495  1  0.93188200  0.56145200  0.80067100  1
  O  1515  1  0.35761000  0.13869800  0.12661400  1
  O  1517  1  0.31133300  0.18239100  0.16573200  1
  O  1537  1  0.15185500  0.87073300  0.62659500  1
  O  1539  1  0.19819100  0.82710200  0.66570900  1
  O  1559  1  0.88828100  0.40167000  0.37686500  1
  O  1561  1  0.93179400  0.44805300  0.41605900  1
  O  1581  1  0.62114400  0.60778600  0.87690600  1
  O  1583  1  0.57761900  0.56140500  0.91608500  1
