# generated using pymatgen
data_H10C17(NO2)4
_symmetry_space_group_name_H-M   'P 1'
_cell_length_a   35.36120000
_cell_length_b   42.68320000
_cell_length_c   42.68320000
_cell_angle_alpha   90.00000000
_cell_angle_beta   90.00000000
_cell_angle_gamma   90.00000000
_symmetry_Int_Tables_number   1
_chemical_formula_structural   H10C17(NO2)4
_chemical_formula_sum   'H320 C544 N128 O256'
_cell_volume   64422.99890748
_cell_formula_units_Z   32
loop_
 _symmetry_equiv_pos_site_id
 _symmetry_equiv_pos_as_xyz
  1  'x, y, z'
loop_
 _atom_site_type_symbol
 _atom_site_label
 _atom_site_symmetry_multiplicity
 _atom_site_fract_x
 _atom_site_fract_y
 _atom_site_fract_z
 _atom_site_occupancy
  H  5  1  0.24553500  0.17489700  0.63926500  1
  H  6  1  0.20363500  0.19538400  0.63056800  1
  H  9  1  0.15059800  0.16625800  0.60097400  1
  H  10  1  0.15217700  0.12559000  0.59520600  1
  H  11  1  0.14342800  0.18703900  0.65905000  1
  H  12  1  0.14046700  0.16009400  0.69022900  1
  H  15  1  0.15002800  0.08771600  0.64102700  1
  H  16  1  0.14569300  0.10214400  0.67981300  1
  H  18  1  0.21332600  0.09500800  0.61227300  1
  H  19  1  0.25052500  0.11651300  0.62865700  1
  H  21  1  0.19982300  0.12881600  0.70697800  1
  H  22  1  0.24291900  0.13388800  0.68739600  1
  H  27  1  0.24554400  0.82138600  0.35700400  1
  H  28  1  0.20364800  0.80089800  0.36570800  1
  H  31  1  0.15061400  0.83002400  0.39530500  1
  H  32  1  0.15218700  0.87069300  0.40106800  1
  H  33  1  0.14343300  0.80923600  0.33723300  1
  H  34  1  0.14046700  0.83617600  0.30605200  1
  H  37  1  0.15002300  0.90856100  0.35524300  1
  H  38  1  0.14569100  0.89412900  0.31645700  1
  H  40  1  0.21333000  0.90127700  0.38399200  1
  H  41  1  0.25052800  0.87977200  0.36760600  1
  H  43  1  0.19982100  0.86745800  0.28929400  1
  H  44  1  0.24292000  0.86239200  0.30887300  1
  H  49  1  0.24554900  0.35698800  0.17487800  1
  H  50  1  0.20365500  0.36569400  0.19536900  1
  H  53  1  0.15061900  0.39529600  0.16624600  1
  H  54  1  0.15219300  0.40105900  0.12557600  1
  H  55  1  0.14343700  0.33722400  0.18703500  1
  H  56  1  0.14046200  0.30604500  0.16009600  1
  H  59  1  0.15002400  0.35523100  0.08770900  1
  H  60  1  0.14568000  0.31644700  0.10214300  1
  H  62  1  0.21333100  0.38397000  0.09498700  1
  H  63  1  0.25052800  0.36758500  0.11649200  1
  H  65  1  0.19980800  0.28927800  0.12881300  1
  H  66  1  0.24291200  0.30885200  0.13387400  1
  H  71  1  0.24554600  0.63927000  0.82136500  1
  H  72  1  0.20364600  0.63056400  0.80088100  1
  H  75  1  0.15062300  0.60095700  0.83001000  1
  H  76  1  0.15220500  0.59518900  0.87067900  1
  H  77  1  0.14343000  0.65903400  0.80923100  1
  H  78  1  0.14046600  0.69021000  0.83617800  1
  H  81  1  0.15004200  0.64100800  0.90855300  1
  H  82  1  0.14570600  0.67979600  0.89412900  1
  H  84  1  0.21335300  0.61226400  0.90125600  1
  H  85  1  0.25054500  0.62865700  0.87974800  1
  H  87  1  0.19982300  0.70696600  0.86745500  1
  H  88  1  0.24292300  0.68739400  0.86237600  1
  H  93  1  0.24871100  0.81869400  0.63179600  1
  H  94  1  0.28833000  0.79476400  0.62606800  1
  H  97  1  0.34968200  0.81619600  0.60496600  1
  H  98  1  0.35307900  0.85579700  0.59264700  1
  H  99  1  0.34822900  0.80414500  0.66352000  1
  H  100  1  0.34600900  0.83437000  0.69135600  1
  H  103  1  0.35254400  0.90053200  0.63089600  1
  H  104  1  0.34981500  0.89331100  0.67119100  1
  H  106  1  0.29525600  0.89065700  0.59582600  1
  H  107  1  0.25255800  0.87704200  0.61234600  1
  H  109  1  0.28857600  0.86963200  0.69504300  1
  H  110  1  0.24868300  0.86399000  0.67104100  1
  H  115  1  0.24874900  0.17761900  0.36447800  1
  H  116  1  0.28837000  0.20154800  0.37019700  1
  H  119  1  0.34971900  0.18012400  0.39131500  1
  H  120  1  0.35311000  0.14052700  0.40364800  1
  H  121  1  0.34827400  0.19214600  0.33275400  1
  H  122  1  0.34605100  0.16191000  0.30493200  1
  H  125  1  0.35257800  0.09577500  0.36542000  1
  H  126  1  0.34985200  0.10297800  0.32512300  1
  H  128  1  0.29529000  0.10567200  0.40048300  1
  H  129  1  0.25259200  0.11927900  0.38395600  1
  H  131  1  0.28861600  0.12665000  0.30125600  1
  H  132  1  0.24872200  0.13230400  0.32525700  1
  H  137  1  0.24870900  0.63179600  0.17759500  1
  H  138  1  0.28832400  0.62607000  0.20152700  1
  H  141  1  0.34967700  0.60495400  0.18010400  1
  H  142  1  0.35307000  0.59262600  0.14050600  1
  H  143  1  0.34823700  0.66351100  0.19213800  1
  H  144  1  0.34602000  0.69133900  0.16190700  1
  H  147  1  0.35254700  0.63086600  0.09576000  1
  H  148  1  0.34982400  0.67116300  0.10297100  1
  H  150  1  0.29525600  0.59580300  0.10564500  1
  H  151  1  0.25255800  0.61233200  0.11924800  1
  H  153  1  0.28859000  0.69502700  0.12664600  1
  H  154  1  0.24869200  0.67102900  0.13229200  1
  H  159  1  0.24875200  0.36448300  0.81865200  1
  H  160  1  0.28837800  0.37020400  0.79473100  1
  H  163  1  0.34972800  0.39131100  0.81616600  1
  H  164  1  0.35311300  0.40363600  0.85576500  1
  H  165  1  0.34827100  0.33275400  0.80412800  1
  H  166  1  0.34604000  0.30492500  0.83436000  1
  H  169  1  0.35256700  0.36540100  0.90050800  1
  H  170  1  0.34983500  0.32510400  0.89329900  1
  H  172  1  0.29528400  0.40046900  0.89061400  1
  H  173  1  0.25258700  0.38394900  0.87699800  1
  H  175  1  0.28860400  0.30124900  0.86961500  1
  H  176  1  0.24871200  0.32525200  0.86396000  1
  H  181  1  0.74503900  0.82658900  0.35695000  1
  H  182  1  0.78235400  0.80083900  0.36511500  1
  H  185  1  0.84231200  0.82310300  0.39449400  1
  H  186  1  0.84299400  0.86290800  0.40473300  1
  H  187  1  0.84632800  0.80597000  0.33722100  1
  H  188  1  0.85158800  0.83486400  0.30753800  1
  H  191  1  0.85190500  0.90454500  0.35919700  1
  H  192  1  0.85643000  0.89124700  0.32028300  1
  H  194  1  0.79021000  0.90030200  0.38767400  1
  H  195  1  0.74949300  0.88457200  0.36988500  1
  H  197  1  0.79741900  0.86944000  0.29120800  1
  H  198  1  0.75383100  0.86672200  0.31067700  1
  H  203  1  0.74502500  0.16968200  0.63935900  1
  H  204  1  0.78233200  0.19544300  0.63118900  1
  H  207  1  0.84229300  0.17319400  0.60181000  1
  H  208  1  0.84298300  0.13339000  0.59156500  1
  H  209  1  0.84631400  0.19032000  0.65908100  1
  H  210  1  0.85158000  0.16142500  0.68876200  1
  H  213  1  0.85191300  0.09175400  0.63709300  1
  H  214  1  0.85644100  0.10504600  0.67601300  1
  H  216  1  0.79021600  0.09598100  0.60862800  1
  H  217  1  0.74949600  0.11170000  0.62641900  1
  H  219  1  0.79742100  0.12684000  0.70509400  1
  H  220  1  0.75383400  0.12954600  0.68562500  1
  H  225  1  0.74504500  0.63935600  0.82660300  1
  H  226  1  0.78235700  0.63118200  0.80084800  1
  H  229  1  0.84231200  0.60180100  0.82311200  1
  H  230  1  0.84299400  0.59156700  0.86291700  1
  H  231  1  0.84633400  0.65907100  0.80597200  1
  H  232  1  0.85160500  0.68875800  0.83486200  1
  H  235  1  0.85191900  0.63710700  0.90454700  1
  H  236  1  0.85644900  0.67602000  0.89124500  1
  H  238  1  0.79021900  0.60863500  0.90031400  1
  H  239  1  0.74950200  0.62642600  0.88458600  1
  H  241  1  0.79743600  0.70509700  0.86944000  1
  H  242  1  0.75384600  0.68563000  0.86673100  1
  H  247  1  0.74503600  0.35695300  0.16970400  1
  H  248  1  0.78234800  0.36511500  0.19545800  1
  H  251  1  0.84230700  0.39449200  0.17320100  1
  H  252  1  0.84299100  0.40473700  0.13339700  1
  H  253  1  0.84632500  0.33721900  0.19032500  1
  H  254  1  0.85158300  0.30754000  0.16142800  1
  H  257  1  0.85190800  0.35920900  0.09175800  1
  H  258  1  0.85643200  0.32029200  0.10504700  1
  H  260  1  0.79021300  0.38768200  0.09599600  1
  H  261  1  0.74949300  0.36989000  0.11172200  1
  H  263  1  0.79741600  0.29121300  0.12685200  1
  H  264  1  0.75383100  0.31068200  0.12956800  1
  H  269  1  0.74403300  0.18274900  0.36973800  1
  H  270  1  0.70078200  0.20307900  0.37151100  1
  H  273  1  0.64001700  0.17730400  0.38903600  1
  H  274  1  0.64047600  0.13788500  0.40123200  1
  H  275  1  0.65037600  0.19160900  0.33162000  1
  H  276  1  0.65502800  0.16151300  0.30353100  1
  H  279  1  0.64985600  0.09318000  0.35860500  1
  H  280  1  0.65484400  0.10461500  0.31940200  1
  H  282  1  0.70005500  0.10611500  0.39976800  1
  H  283  1  0.74337100  0.12218800  0.38734900  1
  H  285  1  0.72095400  0.12972300  0.30267400  1
  H  286  1  0.75460100  0.13833400  0.33127800  1
  H  291  1  0.74398200  0.81351900  0.62653900  1
  H  292  1  0.70073100  0.79318700  0.62478400  1
  H  295  1  0.63996100  0.81896600  0.60726000  1
  H  296  1  0.64042200  0.85838200  0.59505600  1
  H  297  1  0.65033400  0.80467200  0.66467800  1
  H  298  1  0.65499700  0.83477500  0.69275900  1
  H  301  1  0.64981900  0.90309500  0.63767200  1
  H  302  1  0.65481600  0.89166900  0.67687500  1
  H  304  1  0.70001000  0.89014600  0.59650100  1
  H  305  1  0.74332300  0.87406900  0.60891800  1
  H  307  1  0.72092500  0.86655800  0.69359800  1
  H  308  1  0.75456400  0.85793600  0.66499200  1
  H  313  1  0.74401000  0.36975900  0.81353000  1
  H  314  1  0.70075600  0.37151600  0.79320100  1
  H  317  1  0.63998400  0.38902900  0.81898200  1
  H  318  1  0.64044400  0.40122800  0.85840000  1
  H  319  1  0.65036500  0.33161300  0.80468400  1
  H  320  1  0.65503100  0.30352900  0.83478200  1
  H  323  1  0.64985000  0.35860700  0.90310900  1
  H  324  1  0.65485300  0.31940600  0.89167800  1
  H  326  1  0.70003200  0.39978700  0.89016200  1
  H  327  1  0.74334800  0.38737700  0.87408800  1
  H  329  1  0.72096800  0.30269300  0.86656500  1
  H  330  1  0.75459800  0.33130600  0.85794600  1
  H  335  1  0.74400700  0.62656500  0.18276300  1
  H  336  1  0.70075600  0.62478900  0.20309400  1
  H  339  1  0.63999500  0.60724800  0.17732200  1
  H  340  1  0.64045600  0.59504400  0.13790500  1
  H  341  1  0.65034200  0.66467100  0.19161600  1
  H  342  1  0.65498600  0.69275400  0.16151300  1
  H  345  1  0.64982500  0.63766700  0.09319200  1
  H  346  1  0.65480800  0.67687200  0.10461900  1
  H  348  1  0.70003800  0.59651300  0.10613600  1
  H  349  1  0.74334800  0.60894200  0.12220700  1
  H  351  1  0.72090800  0.69361700  0.12972500  1
  H  352  1  0.75456400  0.66502200  0.13834100  1
  H  359  1  0.22386200  0.16319900  0.41156000  1
  H  366  1  0.23383200  0.20092800  0.58561200  1
  H  367  1  0.20738200  0.10749000  0.56269900  1
  H  368  1  0.33545500  0.16746400  0.44588500  1
  H  387  1  0.22382600  0.83313300  0.58472100  1
  H  394  1  0.23382800  0.79535900  0.41067200  1
  H  395  1  0.20739100  0.88880100  0.43357300  1
  H  396  1  0.33542400  0.82886600  0.55040800  1
  H  415  1  0.22381900  0.58471700  0.16314500  1
  H  422  1  0.23377300  0.41067600  0.20092400  1
  H  423  1  0.20742300  0.43354700  0.10746200  1
  H  424  1  0.33541000  0.55039400  0.16745900  1
  H  443  1  0.22386800  0.41155700  0.83307200  1
  H  450  1  0.23387000  0.58561600  0.79533600  1
  H  451  1  0.20740000  0.56268500  0.88876400  1
  H  452  1  0.33546900  0.44587500  0.82882700  1
  H  471  1  0.76697300  0.83390100  0.57975200  1
  H  478  1  0.79060000  0.79439600  0.41802400  1
  H  479  1  0.74779100  0.88619300  0.42529100  1
  H  480  1  0.65305400  0.82337000  0.55299500  1
  H  499  1  0.76703500  0.16235800  0.41650300  1
  H  506  1  0.79057800  0.20188300  0.57827600  1
  H  507  1  0.74779400  0.11008100  0.57101600  1
  H  508  1  0.65313100  0.17289600  0.44329400  1
  H  527  1  0.76699300  0.41654800  0.83391800  1
  H  534  1  0.79059500  0.57827400  0.79441000  1
  H  535  1  0.74780500  0.57101600  0.88621200  1
  H  536  1  0.65307100  0.44329600  0.82339800  1
  H  555  1  0.76701800  0.57979900  0.16238100  1
  H  562  1  0.79060000  0.41802800  0.20190000  1
  H  563  1  0.74779400  0.42529100  0.11010500  1
  H  564  1  0.65311900  0.55299500  0.17292900  1
  H  583  1  0.72681600  0.66694600  0.91360700  1
  H  590  1  0.70512000  0.70292500  0.07883200  1
  H  591  1  0.74225100  0.60986200  0.06708200  1
  H  592  1  0.83975000  0.67531000  0.94388100  1
  H  611  1  0.72680200  0.32936800  0.08271300  1
  H  618  1  0.70518500  0.29337300  0.91745400  1
  H  619  1  0.74225100  0.38645200  0.92921500  1
  H  620  1  0.83972800  0.32103200  0.05240900  1
  H  639  1  0.72681600  0.08266900  0.66693600  1
  H  646  1  0.70514500  0.91744900  0.70291100  1
  H  647  1  0.74224800  0.92919400  0.60983900  1
  H  648  1  0.83975900  0.05240700  0.67528400  1
  H  667  1  0.72679600  0.91357400  0.32936400  1
  H  674  1  0.70515900  0.07883400  0.29335400  1
  H  675  1  0.74227400  0.06706400  0.38641600  1
  H  676  1  0.83971900  0.94387600  0.32099000  1
  H  695  1  0.27608700  0.32793200  0.08799200  1
  H  702  1  0.30444400  0.29444600  0.92026300  1
  H  703  1  0.26080400  0.38542300  0.93303400  1
  H  704  1  0.16655600  0.31466700  0.05153500  1
  H  723  1  0.27610600  0.66830900  0.90823500  1
  H  730  1  0.30443000  0.70183300  0.07600500  1
  H  731  1  0.26083300  0.61084900  0.06320100  1
  H  732  1  0.16659600  0.68154400  0.94473400  1
  H  751  1  0.27609400  0.90827200  0.32795500  1
  H  758  1  0.30446300  0.07600200  0.29446500  1
  H  759  1  0.26081900  0.06324200  0.38544200  1
  H  760  1  0.16656700  0.94473900  0.31468800  1
  H  779  1  0.27609300  0.08803400  0.66831200  1
  H  786  1  0.30443000  0.92027200  0.70186100  1
  H  787  1  0.26079700  0.93308300  0.61088900  1
  H  788  1  0.16658300  0.05154600  0.68158800  1
  H  807  1  0.09509700  0.18322100  0.61929200  1
  H  814  1  0.90938300  0.17731100  0.67399500  1
  H  815  1  0.90037300  0.11058100  0.60159000  1
  H  816  1  0.08631500  0.09413000  0.66120600  1
  H  835  1  0.09510600  0.81306900  0.37701900  1
  H  842  1  0.90939200  0.81897300  0.32231900  1
  H  843  1  0.90037600  0.88575300  0.39468000  1
  H  844  1  0.08630900  0.90212200  0.33503100  1
  H  863  1  0.09510900  0.37699100  0.18321300  1
  H  870  1  0.90938900  0.32230000  0.17730700  1
  H  871  1  0.90037900  0.39470800  0.11057800  1
  H  872  1  0.08631100  0.33506800  0.09412700  1
  H  891  1  0.09511000  0.61923400  0.81306900  1
  H  898  1  0.90940300  0.67395800  0.81896100  1
  H  899  1  0.90038200  0.60161800  0.88576000  1
  H  900  1  0.08632100  0.66123900  0.90211500  1
  H  919  1  0.41168500  0.82847100  0.60206300  1
  H  926  1  0.59217400  0.81681300  0.68250200  1
  H  927  1  0.59215100  0.89124200  0.61757500  1
  H  928  1  0.40068200  0.86938400  0.69145400  1
  H  947  1  0.41172200  0.16783100  0.39423400  1
  H  954  1  0.59220800  0.17948200  0.31381200  1
  H  955  1  0.59219400  0.10503900  0.37872000  1
  H  956  1  0.40072100  0.12690300  0.30485000  1
  H  975  1  0.41168000  0.60203500  0.16782300  1
  H  982  1  0.59217100  0.68247400  0.17948300  1
  H  983  1  0.59216600  0.61754900  0.10505200  1
  H  984  1  0.40069300  0.69142400  0.12689900  1
  H  1003  1  0.41172800  0.39421600  0.82845900  1
  H  1010  1  0.59220800  0.31378600  0.81682400  1
  H  1011  1  0.59218300  0.37870600  0.89125900  1
  H  1012  1  0.40070400  0.30482900  0.86937900  1
  H  1031  1  0.26961200  0.18160100  0.69092500  1
  H  1038  1  0.25163700  0.27448700  0.83633500  1
  H  1039  1  0.29977800  0.32852500  0.76401900  1
  H  1040  1  0.15788100  0.21300700  0.70456900  1
  H  1059  1  0.26961100  0.81467400  0.30534000  1
  H  1066  1  0.25161700  0.72178900  0.15992600  1
  H  1067  1  0.29974400  0.66774500  0.23224200  1
  H  1068  1  0.15787700  0.78327200  0.29170500  1
  H  1087  1  0.26961000  0.30532100  0.18158500  1
  H  1094  1  0.25162400  0.15992700  0.27449900  1
  H  1095  1  0.29978600  0.23225100  0.32851300  1
  H  1096  1  0.15788100  0.29170500  0.21300800  1
  H  1115  1  0.26960600  0.69093200  0.81465900  1
  H  1122  1  0.25160400  0.83634700  0.72179600  1
  H  1123  1  0.29972900  0.76404000  0.66774000  1
  H  1124  1  0.15786600  0.70456200  0.78327200  1
  H  1143  1  0.72196000  0.81550800  0.30834100  1
  H  1150  1  0.70602800  0.72867000  0.16565800  1
  H  1151  1  0.73653300  0.65888600  0.23084500  1
  H  1152  1  0.83368700  0.79057300  0.28444200  1
  H  1171  1  0.72194900  0.18076600  0.68797000  1
  H  1178  1  0.70607800  0.26764400  0.83063300  1
  H  1179  1  0.73652400  0.33742800  0.76542900  1
  H  1180  1  0.83367900  0.20571500  0.71185600  1
  H  1199  1  0.72197200  0.68796300  0.81551200  1
  H  1206  1  0.70604200  0.83063100  0.72865800  1
  H  1207  1  0.73653800  0.76543900  0.65887200  1
  H  1208  1  0.83370400  0.71185100  0.79057000  1
  H  1227  1  0.72195700  0.30834400  0.18078500  1
  H  1234  1  0.70606400  0.16566300  0.26763200  1
  H  1235  1  0.73654400  0.23085200  0.33742100  1
  H  1236  1  0.83368400  0.28444000  0.20571800  1
  C  1  1  0.19818600  0.16654900  0.67188900  1
  C  2  1  0.15390800  0.16446400  0.66752000  1
  C  3  1  0.21474300  0.17273100  0.63828100  1
  C  4  1  0.20461400  0.14646700  0.61356900  1
  C  7  1  0.16056100  0.14433300  0.61129200  1
  C  8  1  0.14140600  0.13827600  0.64393000  1
  C  13  1  0.15826900  0.10675900  0.65682900  1
  C  14  1  0.20252100  0.10661800  0.66072800  1
  C  17  1  0.21972900  0.11476100  0.62763300  1
  C  20  1  0.21235200  0.13369400  0.68402300  1
  C  23  1  0.19818900  0.82972900  0.32438500  1
  C  24  1  0.15391100  0.83180900  0.32875900  1
  C  25  1  0.21475200  0.82355100  0.35799300  1
  C  26  1  0.20462400  0.84981600  0.38270100  1
  C  29  1  0.16057100  0.85194800  0.38498300  1
  C  30  1  0.14140900  0.85800000  0.35234700  1
  C  35  1  0.15826700  0.88951600  0.33944200  1
  C  36  1  0.20251900  0.88966100  0.33553900  1
  C  39  1  0.21973200  0.88152200  0.36863400  1
  C  42  1  0.21235200  0.86258200  0.31224700  1
  C  45  1  0.19818800  0.32437100  0.16654000  1
  C  46  1  0.15391000  0.32875000  0.16446100  1
  C  47  1  0.21475600  0.35797900  0.17271500  1
  C  48  1  0.20462700  0.38268700  0.14644800  1
  C  51  1  0.16057500  0.38497300  0.14432000  1
  C  52  1  0.14141000  0.35233700  0.13827000  1
  C  57  1  0.15826300  0.33943100  0.10675400  1
  C  58  1  0.20251300  0.33552100  0.10660800  1
  C  61  1  0.21973200  0.36861500  0.11474300  1
  C  64  1  0.21234500  0.31223000  0.13368600  1
  C  67  1  0.19818800  0.67188200  0.82971900  1
  C  68  1  0.15391100  0.66750300  0.83180700  1
  C  69  1  0.21475300  0.63827600  0.82353400  1
  C  70  1  0.20463500  0.61356200  0.84979700  1
  C  73  1  0.16058300  0.61127800  0.85193600  1
  C  74  1  0.14141800  0.64391300  0.85799500  1
  C  79  1  0.15828200  0.65681300  0.88951100  1
  C  80  1  0.20253300  0.66071800  0.88964900  1
  C  83  1  0.21974900  0.62762600  0.88150300  1
  C  86  1  0.21235700  0.68401600  0.86257300  1
  C  89  1  0.29280400  0.82777900  0.66613000  1
  C  90  1  0.33725400  0.82775800  0.66766500  1
  C  91  1  0.27961000  0.81855800  0.63210300  1
  C  92  1  0.29605900  0.84095100  0.60632900  1
  C  95  1  0.34029600  0.84013100  0.60998400  1
  C  96  1  0.35544300  0.85048100  0.64301800  1
  C  101  1  0.34034200  0.88475700  0.64844400  1
  C  102  1  0.29611200  0.88685400  0.64725200  1
  C  105  1  0.28337800  0.87527100  0.61386600  1
  C  108  1  0.27961200  0.86273200  0.67157300  1
  C  111  1  0.29284600  0.16851500  0.33015100  1
  C  112  1  0.33729300  0.16853400  0.32861800  1
  C  113  1  0.27964900  0.17775300  0.36417100  1
  C  114  1  0.29609300  0.15537200  0.38995600  1
  C  117  1  0.34033300  0.15618800  0.38630400  1
  C  118  1  0.35548300  0.14582000  0.35327900  1
  C  123  1  0.34037800  0.11154200  0.34786500  1
  C  124  1  0.29614600  0.10944700  0.34905700  1
  C  127  1  0.28341500  0.12104800  0.38243800  1
  C  130  1  0.27965000  0.13356000  0.32472200  1
  C  133  1  0.29280900  0.66612300  0.16850400  1
  C  134  1  0.33725900  0.66765300  0.16852600  1
  C  135  1  0.27960800  0.63210100  0.17773300  1
  C  136  1  0.29605300  0.60632000  0.15534700  1
  C  139  1  0.34029400  0.60996800  0.15616800  1
  C  140  1  0.35544600  0.64299700  0.14580800  1
  C  145  1  0.34034700  0.64841900  0.11153000  1
  C  146  1  0.29611800  0.64723100  0.10943200  1
  C  149  1  0.28337800  0.61384800  0.12102300  1
  C  152  1  0.27962000  0.67155900  0.13354900  1
  C  155  1  0.29284100  0.33015100  0.82775600  1
  C  156  1  0.33728800  0.32861400  0.82774000  1
  C  157  1  0.27965200  0.36417600  0.81852300  1
  C  158  1  0.29609600  0.38995400  0.84091100  1
  C  161  1  0.34033600  0.38629700  0.84010000  1
  C  162  1  0.35547700  0.35326500  0.85046000  1
  C  167  1  0.34036700  0.34784900  0.88473600  1
  C  168  1  0.29613500  0.34904300  0.88682600  1
  C  171  1  0.28340900  0.38242900  0.87523100  1
  C  174  1  0.27964000  0.32471800  0.86270900  1
  C  177  1  0.79424300  0.83084100  0.32516500  1
  C  178  1  0.83822000  0.82971000  0.33010200  1
  C  179  1  0.77584100  0.82490500  0.35823200  1
  C  180  1  0.78969300  0.84876200  0.38387000  1
  C  183  1  0.83384600  0.84646800  0.38661800  1
  C  184  1  0.85420400  0.85355800  0.35467800  1
  C  189  1  0.84211700  0.88676500  0.34260300  1
  C  190  1  0.79804100  0.89034300  0.33813700  1
  C  193  1  0.78026400  0.88257600  0.37104300  1
  C  196  1  0.78437600  0.86491800  0.31404100  1
  C  199  1  0.79423400  0.16543800  0.67113900  1
  C  200  1  0.83821200  0.16657900  0.66619800  1
  C  201  1  0.77582700  0.17137400  0.63807500  1
  C  202  1  0.78968100  0.14752100  0.61243500  1
  C  205  1  0.83383400  0.14982700  0.60968200  1
  C  206  1  0.85419800  0.14273700  0.64162000  1
  C  211  1  0.84212600  0.10952800  0.65369200  1
  C  212  1  0.79804900  0.10593800  0.65816200  1
  C  215  1  0.78026700  0.11370500  0.62526000  1
  C  218  1  0.78437900  0.13135900  0.68226100  1
  C  221  1  0.79425400  0.67113700  0.83084600  1
  C  222  1  0.83823200  0.66619400  0.82971200  1
  C  223  1  0.77584700  0.63807000  0.82491600  1
  C  224  1  0.78969800  0.61243500  0.84877400  1
  C  227  1  0.83384800  0.60968000  0.84647500  1
  C  228  1  0.85421500  0.64162000  0.85356200  1
  C  233  1  0.84213400  0.65369900  0.88676700  1
  C  234  1  0.79805800  0.65817200  0.89035000  1
  C  237  1  0.78027300  0.62526700  0.88258500  1
  C  240  1  0.78439300  0.68226300  0.86492300  1
  C  243  1  0.79424000  0.32516700  0.16545100  1
  C  244  1  0.83821800  0.33010200  0.16658500  1
  C  245  1  0.77583900  0.35823400  0.17139000  1
  C  246  1  0.78969300  0.38387200  0.14753600  1
  C  249  1  0.83384300  0.38662000  0.14983400  1
  C  250  1  0.85420400  0.35468300  0.14274100  1
  C  255  1  0.84212000  0.34261000  0.10953300  1
  C  256  1  0.79804400  0.33814400  0.10595100  1
  C  259  1  0.78026400  0.37104700  0.11372100  1
  C  262  1  0.78437600  0.31404600  0.13137400  1
  C  265  1  0.70603000  0.17051000  0.33149100  1
  C  266  1  0.66210900  0.16818900  0.32757600  1
  C  267  1  0.71351300  0.18022700  0.36655800  1
  C  268  1  0.69683400  0.15625500  0.39074400  1
  C  271  1  0.65293000  0.15440600  0.38457500  1
  C  272  1  0.64284500  0.14400900  0.35028500  1
  C  277  1  0.66173300  0.11133200  0.34346500  1
  C  278  1  0.70574800  0.11153300  0.34864000  1
  C  281  1  0.71286800  0.12271100  0.38331400  1
  C  284  1  0.72412100  0.13709300  0.32691300  1
  C  287  1  0.70599100  0.82576500  0.66479300  1
  C  288  1  0.66207300  0.82809100  0.66871500  1
  C  289  1  0.71346500  0.81604200  0.62972700  1
  C  290  1  0.69678300  0.84000900  0.60553800  1
  C  293  1  0.65287900  0.84186500  0.61171600  1
  C  294  1  0.64280600  0.85226900  0.64600300  1
  C  299  1  0.66169900  0.88494700  0.65281400  1
  C  300  1  0.70571400  0.88473900  0.64763100  1
  C  303  1  0.71282300  0.87355100  0.61295700  1
  C  306  1  0.72408700  0.85918300  0.66936100  1
  C  309  1  0.70602200  0.33150000  0.82577600  1
  C  310  1  0.66210400  0.32757600  0.82810300  1
  C  311  1  0.71349100  0.36657000  0.81605300  1
  C  312  1  0.69680600  0.39075500  0.84002500  1
  C  315  1  0.65290400  0.38457300  0.84188100  1
  C  316  1  0.64283400  0.35028000  0.85228100  1
  C  321  1  0.66173300  0.34347000  0.88495900  1
  C  322  1  0.70574500  0.34865700  0.88475000  1
  C  325  1  0.71284900  0.38333300  0.87356800  1
  C  328  1  0.72412100  0.32693200  0.85919000  1
  C  331  1  0.70599600  0.66480400  0.17051800  1
  C  332  1  0.66207300  0.66871200  0.16819500  1
  C  333  1  0.71348500  0.62973900  0.18024100  1
  C  334  1  0.69681400  0.60554700  0.15627300  1
  C  337  1  0.65290700  0.61170900  0.15442200  1
  C  338  1  0.64281400  0.64599400  0.14402000  1
  C  343  1  0.66170200  0.65281100  0.11134000  1
  C  344  1  0.70571700  0.64764300  0.11154400  1
  C  347  1  0.71284600  0.61297100  0.12272800  1
  C  350  1  0.72408100  0.66938000  0.13709900  1
  C  353  1  0.28228600  0.16408800  0.42268600  1
  C  354  1  0.30687300  0.16785800  0.44870800  1
  C  355  1  0.29370300  0.16944000  0.47987900  1
  C  356  1  0.25427800  0.16899000  0.48559100  1
  C  357  1  0.22865000  0.16832200  0.46008200  1
  C  358  1  0.24302300  0.16567100  0.42928600  1
  C  360  1  0.24108200  0.16436700  0.51672700  1
  C  361  1  0.24267300  0.18886600  0.53903100  1
  C  362  1  0.23243200  0.18257200  0.57043200  1
  C  363  1  0.21973300  0.15271500  0.58067100  1
  C  364  1  0.21767800  0.12914700  0.55731500  1
  C  365  1  0.22907800  0.13408600  0.52602200  1
  C  381  1  0.28224500  0.83225700  0.57359500  1
  C  382  1  0.30684500  0.82846600  0.54758300  1
  C  383  1  0.29367800  0.82687000  0.51640700  1
  C  384  1  0.25425300  0.82729700  0.51069700  1
  C  385  1  0.22862000  0.82798300  0.53619900  1
  C  386  1  0.24298400  0.83064700  0.56699800  1
  C  388  1  0.24109200  0.83193100  0.47954900  1
  C  389  1  0.24267700  0.80742900  0.45724700  1
  C  390  1  0.23245400  0.81372500  0.42584200  1
  C  391  1  0.21975100  0.84357900  0.41560100  1
  C  392  1  0.21769000  0.86714600  0.43895500  1
  C  393  1  0.22908400  0.86220700  0.47025300  1
  C  409  1  0.28224200  0.57359100  0.16405700  1
  C  410  1  0.30682800  0.54757100  0.16784200  1
  C  411  1  0.29365800  0.51639700  0.16942700  1
  C  412  1  0.25423300  0.51068500  0.16896100  1
  C  413  1  0.22860500  0.53619400  0.16827600  1
  C  414  1  0.24297800  0.56699100  0.16562500  1
  C  416  1  0.24104400  0.47954400  0.16434300  1
  C  417  1  0.24261400  0.45725200  0.18885100  1
  C  418  1  0.23239300  0.42584600  0.18255900  1
  C  419  1  0.21977100  0.41558000  0.15268900  1
  C  420  1  0.21769800  0.43893600  0.12912300  1
  C  421  1  0.22907100  0.47023900  0.13405800  1
  C  437  1  0.28228800  0.42268800  0.83221000  1
  C  438  1  0.30688700  0.44870100  0.82842100  1
  C  439  1  0.29372000  0.47987500  0.82682600  1
  C  440  1  0.25429400  0.48558400  0.82724500  1
  C  441  1  0.22866200  0.46008000  0.82792200  1
  C  442  1  0.24302600  0.42928300  0.83058800  1
  C  444  1  0.24113000  0.51673000  0.83188900  1
  C  445  1  0.24272100  0.53903800  0.80739200  1
  C  446  1  0.23249000  0.57043900  0.81369400  1
  C  447  1  0.21976500  0.58066600  0.84354700  1
  C  448  1  0.21770700  0.55730800  0.86711100  1
  C  449  1  0.22911100  0.52601500  0.86216500  1
  C  465  1  0.70778100  0.83064900  0.57226500  1
  C  466  1  0.68128600  0.82400300  0.54820400  1
  C  467  1  0.69208000  0.82015100  0.51650700  1
  C  468  1  0.73079200  0.82246300  0.50828200  1
  C  469  1  0.75833100  0.82665900  0.53199600  1
  C  470  1  0.74644800  0.82990900  0.56340200  1
  C  472  1  0.74150700  0.82732500  0.47650600  1
  C  473  1  0.76103400  0.80398300  0.45937700  1
  C  474  1  0.77578800  0.81145400  0.42946600  1
  C  475  1  0.77169300  0.84147100  0.41555400  1
  C  476  1  0.75147600  0.86396700  0.43339700  1
  C  477  1  0.73690300  0.85763400  0.46351700  1
  C  493  1  0.70785200  0.16560000  0.42401900  1
  C  494  1  0.68136200  0.17225900  0.44808200  1
  C  495  1  0.69216500  0.17610700  0.47977900  1
  C  496  1  0.73088300  0.17378600  0.48798100  1
  C  497  1  0.75841500  0.16960200  0.46426700  1
  C  498  1  0.74652400  0.16635700  0.43286300  1
  C  500  1  0.74156700  0.16892300  0.51976400  1
  C  501  1  0.76105100  0.19227900  0.53690600  1
  C  502  1  0.77576200  0.18482500  0.56683900  1
  C  503  1  0.77167600  0.15480900  0.58075300  1
  C  504  1  0.75148100  0.13230400  0.56290300  1
  C  505  1  0.73694000  0.13862400  0.53277100  1
  C  521  1  0.70780100  0.42403100  0.83067000  1
  C  522  1  0.68130000  0.44808900  0.82403100  1
  C  523  1  0.69209100  0.47978800  0.82018200  1
  C  524  1  0.73080000  0.48801600  0.82249400  1
  C  525  1  0.75834500  0.46430200  0.82668300  1
  C  526  1  0.74646500  0.43289600  0.82993000  1
  C  528  1  0.74151300  0.51979400  0.82735100  1
  C  529  1  0.76103100  0.53692000  0.80400400  1
  C  530  1  0.77578200  0.56683400  0.81147100  1
  C  531  1  0.77169000  0.58075300  0.84148500  1
  C  532  1  0.75148100  0.56290700  0.86398600  1
  C  533  1  0.73691500  0.53278500  0.85766000  1
  C  549  1  0.70783700  0.57227600  0.16562500  1
  C  550  1  0.68135400  0.54821100  0.17229200  1
  C  551  1  0.69216200  0.51651700  0.17614400  1
  C  552  1  0.73088300  0.50831900  0.17382000  1
  C  553  1  0.75841300  0.53203600  0.16963200  1
  C  554  1  0.74651300  0.56343700  0.16638300  1
  C  556  1  0.74157200  0.47653600  0.16895300  1
  C  557  1  0.76106500  0.45939600  0.19230500  1
  C  558  1  0.77577900  0.42946600  0.18484500  1
  C  559  1  0.77169300  0.41555700  0.15482700  1
  C  560  1  0.75148400  0.43340400  0.13232900  1
  C  561  1  0.73694000  0.46353300  0.13865400  1
  C  577  1  0.78571700  0.66862300  0.92296700  1
  C  578  1  0.81132400  0.67498900  0.94777300  1
  C  579  1  0.79938700  0.67853800  0.97917100  1
  C  580  1  0.76038100  0.67630300  0.98625800  1
  C  581  1  0.73366500  0.67321500  0.96175500  1
  C  582  1  0.74671900  0.67032600  0.93061100  1
  C  584  1  0.74884900  0.67019100  0.01755900  1
  C  585  1  0.73149600  0.69361900  0.03604600  1
  C  586  1  0.71816800  0.68567000  0.06626500  1
  C  587  1  0.72165200  0.65512400  0.07915800  1
  C  588  1  0.73925000  0.63243300  0.05974600  1
  C  589  1  0.75249100  0.63929100  0.02931900  1
  C  605  1  0.78569100  0.32770200  0.07333300  1
  C  606  1  0.81130100  0.32134600  0.04852100  1
  C  607  1  0.79935900  0.31779900  0.01712300  1
  C  608  1  0.76034100  0.32001300  0.01005900  1
  C  609  1  0.73363100  0.32309900  0.03455800  1
  C  610  1  0.74669100  0.32598000  0.06570000  1
  C  612  1  0.74884600  0.32612800  0.97874700  1
  C  613  1  0.73153000  0.30269000  0.96024800  1
  C  614  1  0.71822700  0.31063000  0.93002100  1
  C  615  1  0.72168900  0.34118300  0.91713300  1
  C  616  1  0.73926200  0.36388100  0.93655000  1
  C  617  1  0.75248200  0.35702500  0.96698400  1
  C  633  1  0.78571900  0.07331600  0.66860700  1
  C  634  1  0.81133200  0.04851200  0.67496300  1
  C  635  1  0.79940100  0.01711100  0.67850500  1
  C  636  1  0.76039500  0.01002100  0.67627500  1
  C  637  1  0.73367400  0.03452100  0.67319400  1
  C  638  1  0.74672200  0.06566600  0.67031200  1
  C  640  1  0.74886500  0.97871700  0.67016500  1
  C  641  1  0.73152200  0.96023200  0.69359800  1
  C  642  1  0.71818800  0.93001400  0.68565300  1
  C  643  1  0.72165500  0.91712400  0.65510300  1
  C  644  1  0.73925300  0.93652900  0.63241000  1
  C  645  1  0.75249900  0.96695600  0.63926500  1
  C  661  1  0.78568500  0.92296000  0.32769500  1
  C  662  1  0.81129300  0.94776600  0.32130900  1
  C  663  1  0.79934700  0.97916200  0.31774800  1
  C  664  1  0.76033300  0.98622600  0.31996900  1
  C  665  1  0.73362300  0.96172900  0.32306800  1
  C  666  1  0.74668200  0.93058800  0.32596400  1
  C  668  1  0.74884000  0.01753800  0.32608600  1
  C  669  1  0.73151000  0.03603800  0.30265700  1
  C  670  1  0.71821000  0.06626600  0.31060400  1
  C  671  1  0.72168000  0.07914700  0.34115700  1
  C  672  1  0.73927300  0.05973100  0.36384500  1
  C  673  1  0.75249100  0.02929900  0.35698600  1
  C  689  1  0.21826800  0.32411800  0.07530800  1
  C  690  1  0.19516800  0.31625100  0.04926500  1
  C  691  1  0.20972500  0.31323500  0.01861700  1
  C  692  1  0.24890700  0.31770100  0.01359600  1
  C  693  1  0.27346400  0.32172800  0.03946700  1
  C  694  1  0.25786500  0.32373400  0.06990800  1
  C  696  1  0.26167900  0.32517000  0.98293900  1
  C  697  1  0.27984000  0.30262000  0.96393600  1
  C  698  1  0.29089500  0.31110600  0.93324000  1
  C  699  1  0.28381400  0.34117600  0.92020000  1
  C  700  1  0.26613400  0.36315000  0.94036900  1
  C  701  1  0.25532500  0.35583100  0.97134200  1
  C  717  1  0.21830600  0.67211200  0.92094700  1
  C  718  1  0.19521000  0.67997700  0.94699700  1
  C  719  1  0.20977600  0.68300800  0.97764200  1
  C  720  1  0.24897300  0.67858500  0.98263600  1
  C  721  1  0.27351500  0.67453400  0.95676700  1
  C  722  1  0.25790900  0.67252600  0.92633100  1
  C  724  1  0.26170700  0.67111400  0.01330900  1
  C  725  1  0.27985200  0.69366100  0.03232300  1
  C  726  1  0.29089500  0.68517300  0.06302100  1
  C  727  1  0.28380800  0.65510000  0.07605500  1
  C  728  1  0.26615500  0.63312400  0.05587300  1
  C  729  1  0.25536800  0.64044600  0.02489600  1
  C  745  1  0.21827600  0.92096400  0.32414100  1
  C  746  1  0.19517900  0.94700700  0.31627400  1
  C  747  1  0.20974000  0.97765300  0.31326100  1
  C  748  1  0.24892300  0.98267200  0.31773100  1
  C  749  1  0.27347600  0.95679700  0.32175900  1
  C  750  1  0.25787400  0.92635700  0.32375900  1
  C  752  1  0.26169900  0.01332900  0.32519600  1
  C  753  1  0.27985900  0.03233000  0.30264600  1
  C  754  1  0.29091500  0.06302700  0.31112700  1
  C  755  1  0.28383400  0.07607000  0.34119700  1
  C  756  1  0.26615100  0.05590400  0.36317300  1
  C  757  1  0.25534400  0.02493100  0.35585600  1
  C  773  1  0.21829400  0.07531800  0.67211900  1
  C  774  1  0.19519500  0.04928100  0.68001600  1
  C  775  1  0.20976200  0.01863900  0.68306700  1
  C  776  1  0.24895700  0.01363900  0.67863400  1
  C  777  1  0.27350100  0.03950500  0.67456500  1
  C  778  1  0.25789700  0.06994200  0.67254000  1
  C  780  1  0.26168200  0.98296700  0.67115800  1
  C  781  1  0.27984000  0.96395200  0.69370100  1
  C  782  1  0.29088600  0.93325600  0.68520600  1
  C  783  1  0.28380000  0.92023000  0.65512800  1
  C  784  1  0.26612700  0.94040900  0.63316200  1
  C  785  1  0.25533300  0.97138100  0.64049000  1
  C  801  1  0.09854500  0.13825100  0.64033100  1
  C  802  1  0.07504200  0.11332200  0.65052900  1
  C  803  1  0.03526100  0.11411700  0.64777400  1
  C  804  1  0.01793400  0.14017200  0.63308500  1
  C  805  1  0.04033800  0.16535600  0.62208500  1
  C  806  1  0.07988000  0.16420600  0.62646800  1
  C  808  1  0.97791000  0.14272400  0.63312700  1
  C  809  1  0.96039400  0.16221900  0.65568100  1
  C  810  1  0.92059600  0.16300100  0.65733300  1
  C  811  1  0.89704800  0.14415300  0.63808900  1
  C  812  1  0.91576900  0.12496200  0.61584100  1
  C  813  1  0.95557500  0.12413500  0.61281000  1
  C  829  1  0.09854800  0.85802300  0.35594800  1
  C  830  1  0.07504000  0.88294200  0.34572800  1
  C  831  1  0.03526000  0.88215000  0.34849000  1
  C  832  1  0.01794400  0.85611100  0.36322500  1
  C  833  1  0.04034800  0.83093500  0.37423400  1
  C  834  1  0.07988800  0.83207800  0.36983400  1
  C  836  1  0.97791900  0.85356900  0.36318500  1
  C  837  1  0.96039900  0.83406100  0.34064200  1
  C  838  1  0.92060200  0.83327300  0.33899500  1
  C  839  1  0.89705300  0.85214500  0.35821100  1
  C  840  1  0.91577100  0.87135600  0.38044200  1
  C  841  1  0.95557800  0.87218300  0.38347600  1
  C  857  1  0.09854900  0.35594500  0.13824700  1
  C  858  1  0.07504200  0.34574900  0.11331900  1
  C  859  1  0.03526300  0.34851200  0.11411300  1
  C  860  1  0.01794100  0.36320800  0.14016700  1
  C  861  1  0.04034800  0.37420500  0.16535000  1
  C  862  1  0.07988900  0.36981500  0.16420000  1
  C  864  1  0.97791600  0.36316800  0.14272100  1
  C  865  1  0.96039900  0.34061400  0.16221500  1
  C  866  1  0.92060200  0.33896400  0.16299700  1
  C  867  1  0.89705000  0.35821100  0.14415400  1
  C  868  1  0.91577400  0.38045400  0.12495900  1
  C  869  1  0.95558100  0.38348500  0.12413100  1
  C  885  1  0.09855700  0.64031000  0.85802100  1
  C  886  1  0.07505000  0.65053600  0.88293700  1
  C  887  1  0.03526900  0.64778400  0.88214300  1
  C  888  1  0.01795100  0.63304700  0.85610900  1
  C  889  1  0.04035300  0.62202900  0.83093500  1
  C  890  1  0.07989400  0.62642400  0.83207800  1
  C  892  1  0.97792400  0.63309400  0.85356500  1
  C  893  1  0.96040800  0.65563200  0.83405100  1
  C  894  1  0.92061300  0.65728600  0.83326400  1
  C  895  1  0.89706200  0.63808000  0.85215000  1
  C  896  1  0.91577700  0.61584800  0.87135900  1
  C  897  1  0.95558300  0.61280700  0.87218300  1
  C  913  1  0.39838800  0.84991200  0.64574800  1
  C  914  1  0.41649000  0.86171500  0.67296200  1
  C  915  1  0.45618000  0.86452700  0.67547600  1
  C  916  1  0.47906400  0.85373100  0.65051300  1
  C  917  1  0.46229500  0.83958500  0.62392900  1
  C  918  1  0.42251900  0.83829900  0.62186200  1
  C  920  1  0.51904300  0.85565200  0.65233100  1
  C  921  1  0.53911900  0.83347500  0.67047400  1
  C  922  1  0.57898400  0.83337600  0.66927000  1
  C  923  1  0.60001000  0.85396500  0.64978000  1
  C  924  1  0.57871600  0.87601400  0.63229000  1
  C  925  1  0.53883900  0.87745500  0.63344500  1
  C  941  1  0.39842500  0.14638500  0.35055200  1
  C  942  1  0.41653000  0.13457600  0.32334000  1
  C  943  1  0.45622000  0.13176200  0.32083100  1
  C  944  1  0.47910400  0.14256600  0.34579200  1
  C  945  1  0.46233100  0.15671100  0.37237300  1
  C  946  1  0.42255600  0.15800100  0.37443700  1
  C  948  1  0.51908000  0.14063300  0.34397600  1
  C  949  1  0.53915600  0.16281200  0.32583500  1
  C  950  1  0.57902100  0.16289600  0.32701800  1
  C  951  1  0.60005000  0.14231300  0.34651300  1
  C  952  1  0.57875500  0.12026600  0.36400500  1
  C  953  1  0.53887800  0.11883100  0.36285400  1
  C  969  1  0.39839100  0.64572000  0.14637600  1
  C  970  1  0.41649900  0.67292900  0.13457000  1
  C  971  1  0.45619200  0.67543900  0.13176200  1
  C  972  1  0.47907000  0.65047300  0.14256200  1
  C  973  1  0.46229500  0.62389400  0.15670800  1
  C  974  1  0.42251900  0.62183200  0.15799300  1
  C  976  1  0.51904900  0.65229100  0.14064500  1
  C  977  1  0.53911900  0.67043400  0.16282300  1
  C  978  1  0.57898400  0.66923900  0.16291900  1
  C  979  1  0.60001900  0.64975900  0.14232600  1
  C  980  1  0.57872400  0.63226000  0.12028200  1
  C  981  1  0.53884700  0.63340800  0.11884500  1
  C  997  1  0.39842200  0.35053300  0.84990000  1
  C  998  1  0.41651800  0.32331900  0.86171100  1
  C  999  1  0.45620900  0.32080500  0.86453200  1
  C  1000  1  0.47909500  0.34576600  0.85373100  1
  C  1001  1  0.46233100  0.37234800  0.83958300  1
  C  1002  1  0.42255900  0.37441900  0.83828900  1
  C  1004  1  0.51907100  0.34394500  0.85567100  1
  C  1005  1  0.53915000  0.32580200  0.83349400  1
  C  1006  1  0.57901800  0.32699300  0.83340900  1
  C  1007  1  0.60004100  0.34650100  0.85398200  1
  C  1008  1  0.57874400  0.36398600  0.87603500  1
  C  1009  1  0.53887000  0.36282900  0.87747100  1
  C  1025  1  0.21114100  0.19230200  0.69418800  1
  C  1026  1  0.18621400  0.21385200  0.70881700  1
  C  1027  1  0.19886200  0.23736300  0.72964700  1
  C  1028  1  0.23787600  0.23933100  0.73688700  1
  C  1029  1  0.26380000  0.21848000  0.72260200  1
  C  1030  1  0.25011900  0.19596000  0.70118400  1
  C  1032  1  0.25088700  0.26163000  0.75916200  1
  C  1033  1  0.24439500  0.25653200  0.79150300  1
  C  1034  1  0.25720000  0.27900200  0.81336400  1
  C  1035  1  0.27755100  0.30622800  0.80444900  1
  C  1036  1  0.28448100  0.30983600  0.77190500  1
  C  1037  1  0.27093700  0.28854700  0.74918200  1
  C  1053  1  0.21114000  0.80397400  0.30208600  1
  C  1054  1  0.18620900  0.78242700  0.28745500  1
  C  1055  1  0.19885200  0.75891900  0.26662200  1
  C  1056  1  0.23786400  0.75694800  0.25937600  1
  C  1057  1  0.26379200  0.77779700  0.27366000  1
  C  1058  1  0.25011700  0.80031400  0.29508300  1
  C  1060  1  0.25086800  0.73464700  0.23710000  1
  C  1061  1  0.24437400  0.73974500  0.20476000  1
  C  1062  1  0.25716300  0.71726800  0.18289700  1
  C  1063  1  0.27752700  0.69004800  0.19181200  1
  C  1064  1  0.28445000  0.68643600  0.22435700  1
  C  1065  1  0.27091100  0.70772800  0.24708100  1
  C  1081  1  0.21114100  0.30207400  0.19229400  1
  C  1082  1  0.18621300  0.28745200  0.21384900  1
  C  1083  1  0.19885900  0.26662000  0.23735800  1
  C  1084  1  0.23787100  0.25937100  0.23932300  1
  C  1085  1  0.26379500  0.27364800  0.21846700  1
  C  1086  1  0.25011700  0.29506900  0.19594800  1
  C  1088  1  0.25088000  0.23709800  0.26162500  1
  C  1089  1  0.24438100  0.20475800  0.25653400  1
  C  1090  1  0.25719100  0.18289800  0.27900700  1
  C  1091  1  0.27755800  0.19181700  0.30622300  1
  C  1092  1  0.28448400  0.22436300  0.30982700  1
  C  1093  1  0.27093800  0.24708300  0.28853500  1
  C  1109  1  0.21113400  0.69418400  0.80396700  1
  C  1110  1  0.18619700  0.70881500  0.78242200  1
  C  1111  1  0.19883600  0.72965000  0.75891200  1
  C  1112  1  0.23784800  0.73689400  0.75693700  1
  C  1113  1  0.26377900  0.72261200  0.77778300  1
  C  1114  1  0.25010900  0.70118900  0.80030300  1
  C  1116  1  0.25084800  0.75917200  0.73463700  1
  C  1117  1  0.24435600  0.79151200  0.73974200  1
  C  1118  1  0.25714800  0.81337800  0.71727000  1
  C  1119  1  0.27751500  0.80446800  0.69004800  1
  C  1120  1  0.28443600  0.77192100  0.68643100  1
  C  1121  1  0.27089200  0.74919600  0.70771600  1
  C  1137  1  0.78040600  0.80686700  0.30133800  1
  C  1138  1  0.80511900  0.78812400  0.28297500  1
  C  1139  1  0.79214500  0.76526800  0.26176100  1
  C  1140  1  0.75279100  0.76020200  0.25895200  1
  C  1141  1  0.72692900  0.77887300  0.27605500  1
  C  1142  1  0.74115400  0.80215100  0.29645600  1
  C  1144  1  0.73988100  0.73675500  0.23807700  1
  C  1145  1  0.72692900  0.74541700  0.20797300  1
  C  1146  1  0.71677400  0.72161400  0.18669300  1
  C  1147  1  0.72027200  0.68921200  0.19366400  1
  C  1148  1  0.73384600  0.68164000  0.22399000  1
  C  1149  1  0.74329400  0.70475000  0.24633600  1
  C  1165  1  0.78039400  0.18941400  0.69496600  1
  C  1166  1  0.80510800  0.20816300  0.71332200  1
  C  1167  1  0.79213300  0.23103200  0.73452300  1
  C  1168  1  0.75278200  0.23610400  0.73732700  1
  C  1169  1  0.72692100  0.21742100  0.72023800  1
  C  1170  1  0.74114200  0.19412800  0.69985100  1
  C  1172  1  0.73987500  0.25955600  0.75819700  1
  C  1173  1  0.72694600  0.25089700  0.78831000  1
  C  1174  1  0.71682200  0.27470300  0.80959900  1
  C  1175  1  0.72032000  0.30710400  0.80262400  1
  C  1176  1  0.73385200  0.31467400  0.77228700  1
  C  1177  1  0.74328300  0.29156200  0.74993900  1
  C  1193  1  0.78042000  0.69495900  0.80686700  1
  C  1194  1  0.80513300  0.71332000  0.78812200  1
  C  1195  1  0.79215900  0.73452700  0.76525800  1
  C  1196  1  0.75281000  0.73733600  0.76019100  1
  C  1197  1  0.72694600  0.72024100  0.77886600  1
  C  1198  1  0.74116800  0.69984600  0.80215100  1
  C  1200  1  0.73989800  0.75821100  0.73674400  1
  C  1201  1  0.72694900  0.78831700  0.74540300  1
  C  1202  1  0.71678800  0.80959400  0.72160000  1
  C  1203  1  0.72027800  0.80261700  0.68920000  1
  C  1204  1  0.73385500  0.77229400  0.68162400  1
  C  1205  1  0.74330900  0.74995300  0.70473600  1
  C  1221  1  0.78040300  0.30134100  0.18942600  1
  C  1222  1  0.80511600  0.28297500  0.20816700  1
  C  1223  1  0.79214200  0.26176800  0.23103000  1
  C  1224  1  0.75279100  0.25896600  0.23610200  1
  C  1225  1  0.72692600  0.27606400  0.21742900  1
  C  1226  1  0.74115100  0.29645600  0.19414200  1
  C  1228  1  0.73988400  0.23809300  0.25955200  1
  C  1229  1  0.72694300  0.20798600  0.25089000  1
  C  1230  1  0.71681600  0.18669600  0.27469300  1
  C  1231  1  0.72032600  0.19366200  0.30709500  1
  C  1232  1  0.73386300  0.22399800  0.31466700  1
  C  1233  1  0.74329700  0.24634700  0.29155700  1
  N  369  1  0.22918500  0.10903900  0.50415300  1
  N  370  1  0.25377100  0.21929900  0.52940900  1
  N  371  1  0.31943500  0.16958900  0.50538800  1
  N  372  1  0.18920000  0.16947700  0.46590200  1
  N  397  1  0.22918200  0.88725500  0.49212100  1
  N  398  1  0.25375900  0.77699400  0.46687700  1
  N  399  1  0.31942300  0.82670400  0.49090700  1
  N  400  1  0.18917300  0.82681900  0.53036800  1
  N  425  1  0.22917900  0.49210000  0.10900600  1
  N  426  1  0.25366800  0.46689100  0.21929000  1
  N  427  1  0.31938900  0.49089100  0.16959600  1
  N  428  1  0.18915400  0.53037200  0.16941300  1
  N  453  1  0.22920800  0.50414200  0.88720800  1
  N  454  1  0.25381800  0.52942100  0.77695800  1
  N  455  1  0.31946600  0.50537600  0.82666900  1
  N  456  1  0.18921500  0.46591100  0.82675100  1
  N  481  1  0.71915500  0.88161100  0.48127600  1
  N  482  1  0.76579900  0.77383500  0.47268000  1
  N  483  1  0.66485300  0.81512600  0.49265900  1
  N  484  1  0.79705700  0.82945200  0.52380100  1
  N  509  1  0.71921700  0.11464100  0.51500300  1
  N  510  1  0.76583300  0.22242100  0.52359700  1
  N  511  1  0.66494000  0.18114900  0.50362900  1
  N  512  1  0.79714200  0.16681600  0.47246200  1
  N  537  1  0.71917500  0.51502700  0.88164100  1
  N  538  1  0.76579600  0.52361500  0.77385900  1
  N  539  1  0.66485800  0.50363300  0.81516300  1
  N  540  1  0.79706800  0.47250200  0.82947600  1
  N  565  1  0.71920900  0.48129900  0.11467500  1
  N  566  1  0.76585300  0.47270300  0.22244800  1
  N  567  1  0.66494600  0.49266200  0.18119100  1
  N  568  1  0.79713900  0.52384700  0.16684500  1
  N  593  1  0.76839300  0.61547800  0.01020100  1
  N  594  1  0.72760800  0.72431700  0.02386400  1
  N  595  1  0.82576300  0.68282600  0.00382000  1
  N  596  1  0.69461700  0.67108300  0.96897300  1
  N  621  1  0.76835300  0.38084700  0.98611300  1
  N  622  1  0.72764400  0.27199000  0.97243100  1
  N  623  1  0.82573500  0.31350500  0.99247400  1
  N  624  1  0.69458300  0.32521900  0.02733900  1
  N  649  1  0.76839800  0.98607300  0.61544800  1
  N  650  1  0.72764400  0.97241500  0.72429800  1
  N  651  1  0.82578300  0.99246500  0.68278300  1
  N  652  1  0.69462800  0.02729900  0.67106400  1
  N  677  1  0.76837600  0.01016900  0.38079800  1
  N  678  1  0.72761100  0.02385800  0.27195700  1
  N  679  1  0.82572100  0.00380800  0.31343200  1
  N  680  1  0.69457400  0.96894700  0.32519100  1
  N  705  1  0.23860500  0.37883300  0.99097200  1
  N  706  1  0.28641300  0.27217900  0.97596400  1
  N  707  1  0.18559200  0.30769200  0.99265400  1
  N  708  1  0.31273200  0.32571600  0.03420000  1
  N  733  1  0.23868300  0.61743900  0.00524900  1
  N  734  1  0.28642700  0.72410400  0.02030100  1
  N  735  1  0.18564500  0.68857000  0.00360100  1
  N  736  1  0.31278600  0.67056100  0.96203100  1
  N  761  1  0.23862300  0.00530300  0.37886100  1
  N  762  1  0.28643200  0.02029900  0.27220800  1
  N  763  1  0.18561100  0.00361800  0.30772000  1
  N  764  1  0.31274700  0.96206200  0.32574900  1
  N  789  1  0.23863000  0.99102800  0.61749300  1
  N  790  1  0.28642400  0.97597100  0.72414400  1
  N  791  1  0.18563200  0.99268300  0.68865000  1
  N  792  1  0.31276900  0.03423500  0.67058900  1
  N  817  1  0.97340500  0.10496600  0.59007700  1
  N  818  1  0.98274600  0.17972100  0.67706200  1
  N  819  1  0.01257300  0.08977600  0.66038300  1
  N  820  1  0.02290300  0.19119100  0.60699000  1
  N  845  1  0.97340800  0.89137600  0.40618800  1
  N  846  1  0.98275200  0.81654500  0.31927100  1
  N  847  1  0.01257000  0.90648000  0.33586000  1
  N  848  1  0.02291500  0.80511700  0.38935900  1
  N  873  1  0.97341100  0.40621300  0.10495900  1
  N  874  1  0.98275200  0.31923100  0.17971600  1
  N  875  1  0.01257100  0.33590500  0.08977300  1
  N  876  1  0.02291800  0.38930500  0.19118400  1
  N  901  1  0.97340800  0.59009800  0.89138300  1
  N  902  1  0.98276600  0.67699200  0.81652400  1
  N  903  1  0.01258200  0.66042600  0.90646800  1
  N  904  1  0.02291800  0.60690100  0.80511900  1
  N  929  1  0.51848600  0.90005100  0.61587400  1
  N  930  1  0.51911700  0.81107500  0.68859600  1
  N  931  1  0.47325900  0.87841500  0.70211400  1
  N  932  1  0.48542700  0.82667600  0.60001800  1
  N  957  1  0.51852600  0.09623800  0.38043000  1
  N  958  1  0.51915300  0.18522700  0.30772700  1
  N  959  1  0.47330100  0.11787200  0.29419300  1
  N  960  1  0.48546400  0.16961900  0.39628700  1
  N  985  1  0.51850000  0.61583200  0.09625000  1
  N  986  1  0.51911400  0.68855100  0.18522600  1
  N  987  1  0.47327500  0.70207400  0.11787200  1
  N  988  1  0.48542200  0.59998000  0.16962000  1
  N  1013  1  0.51851100  0.38040200  0.90006500  1
  N  1014  1  0.51915300  0.30769000  0.81108200  1
  N  1015  1  0.47327800  0.29416700  0.87842500  1
  N  1016  1  0.48547000  0.39625900  0.82667800  1
  N  1041  1  0.27675100  0.29390200  0.71675200  1
  N  1042  1  0.22600800  0.22874600  0.80153000  1
  N  1043  1  0.17322100  0.25906900  0.74312600  1
  N  1044  1  0.30273300  0.21995300  0.73043400  1
  N  1069  1  0.27672300  0.70236900  0.27950800  1
  N  1070  1  0.22599600  0.76753600  0.19473100  1
  N  1071  1  0.17320600  0.73721500  0.25314400  1
  N  1072  1  0.30272400  0.77631900  0.26582600  1
  N  1097  1  0.27675500  0.27951000  0.29388600  1
  N  1098  1  0.22598000  0.19472500  0.22875700  1
  N  1099  1  0.17321900  0.25315100  0.25907100  1
  N  1100  1  0.30272700  0.26580700  0.21993500  1
  N  1125  1  0.27670200  0.71676900  0.70235300  1
  N  1126  1  0.22597800  0.80153700  0.76753300  1
  N  1127  1  0.17318600  0.74312800  0.73721200  1
  N  1128  1  0.30271300  0.73044800  0.77630200  1
  N  1153  1  0.75543500  0.69644400  0.27689800  1
  N  1154  1  0.72455100  0.77750700  0.19957500  1
  N  1155  1  0.81787000  0.74771500  0.24321300  1
  N  1156  1  0.68755500  0.77362700  0.27278600  1
  N  1181  1  0.75540400  0.29986200  0.71937100  1
  N  1182  1  0.72456500  0.21880900  0.79670900  1
  N  1183  1  0.81786500  0.24859400  0.75306200  1
  N  1184  1  0.68754700  0.22266500  0.72350700  1
  N  1209  1  0.75545500  0.71939000  0.69643300  1
  N  1210  1  0.72457600  0.79671600  0.77749300  1
  N  1211  1  0.81789000  0.75307100  0.74770100  1
  N  1212  1  0.68757200  0.72350900  0.77362000  1
  N  1237  1  0.75542600  0.27691200  0.29986200  1
  N  1238  1  0.72455400  0.19959200  0.21880000  1
  N  1239  1  0.81787000  0.24322200  0.24858500  1
  N  1240  1  0.68755300  0.27279800  0.22267600  1
  O  373  1  0.19697400  0.09698300  0.50107500  1
  O  374  1  0.17232800  0.14590500  0.45514100  1
  O  375  1  0.33900100  0.14502300  0.50608900  1
  O  376  1  0.28221400  0.22876900  0.54430300  1
  O  377  1  0.25208000  0.08799300  0.51213800  1
  O  378  1  0.17480800  0.19358800  0.45395300  1
  O  379  1  0.34121000  0.19283400  0.50432400  1
  O  380  1  0.22740400  0.23867700  0.53315500  1
  O  401  1  0.19696900  0.89930900  0.49519200  1
  O  402  1  0.17229300  0.85039500  0.54111400  1
  O  403  1  0.33898700  0.85127100  0.49019500  1
  O  404  1  0.28220700  0.76751700  0.45199000  1
  O  405  1  0.25207600  0.90830300  0.48413900  1
  O  406  1  0.17478200  0.80271300  0.54232500  1
  O  407  1  0.34120100  0.80346100  0.49199200  1
  O  408  1  0.22738800  0.75762100  0.46312100  1
  O  429  1  0.19697400  0.49515900  0.09693500  1
  O  430  1  0.17229900  0.54112600  0.14583000  1
  O  431  1  0.33897300  0.49018500  0.14503900  1
  O  432  1  0.28210800  0.45200900  0.22878900  1
  O  433  1  0.25209300  0.48412000  0.08797200  1
  O  434  1  0.17474500  0.54232500  0.19351400  1
  O  435  1  0.34114800  0.49196100  0.19285100  1
  O  436  1  0.22728000  0.46314000  0.23864600  1
  O  457  1  0.19699200  0.50105900  0.89925200  1
  O  458  1  0.17232600  0.45516000  0.85031800  1
  O  459  1  0.33902100  0.50608400  0.85124100  1
  O  460  1  0.28226700  0.54431200  0.76749300  1
  O  461  1  0.25209400  0.51211900  0.90826100  1
  O  462  1  0.17483500  0.45395600  0.80263600  1
  O  463  1  0.34124900  0.50429400  0.80343000  1
  O  464  1  0.22745500  0.53317900  0.75757900  1
  O  485  1  0.74161500  0.90364800  0.48718400  1
  O  486  1  0.80999200  0.85597500  0.53077000  1
  O  487  1  0.64127300  0.83711100  0.49126300  1
  O  488  1  0.75025100  0.75316700  0.45614400  1
  O  489  1  0.69063800  0.89251900  0.46751100  1
  O  490  1  0.81678200  0.80880500  0.53696300  1
  O  491  1  0.64728200  0.78991400  0.49700100  1
  O  492  1  0.80017300  0.76701300  0.47574400  1
  O  513  1  0.74168500  0.09260300  0.50912300  1
  O  514  1  0.81008500  0.14029900  0.46548300  1
  O  515  1  0.64134900  0.15917500  0.50503000  1
  O  516  1  0.75025700  0.24309500  0.54010400  1
  O  517  1  0.69068300  0.10373700  0.52874900  1
  O  518  1  0.81685800  0.18747100  0.45930200  1
  O  519  1  0.64738700  0.20636700  0.49928300  1
  O  520  1  0.80021000  0.22924600  0.52056300  1
  O  541  1  0.74163700  0.50912300  0.90367600  1
  O  542  1  0.81000600  0.46552900  0.85599700  1
  O  543  1  0.64128200  0.50502500  0.83715100  1
  O  544  1  0.75024300  0.54014700  0.75319000  1
  O  545  1  0.69065500  0.52879100  0.89255000  1
  O  546  1  0.81679300  0.45934700  0.80882600  1
  O  547  1  0.64728500  0.49929400  0.78995400  1
  O  548  1  0.80016700  0.52055300  0.76703400  1
  O  569  1  0.74167100  0.48718700  0.09263400  1
  O  570  1  0.81007700  0.53082400  0.14032600  1
  O  571  1  0.64135200  0.49125400  0.15922000  1
  O  572  1  0.75028200  0.45619100  0.24312100  1
  O  573  1  0.69067500  0.46755400  0.10377400  1
  O  574  1  0.81685200  0.53701200  0.18749700  1
  O  575  1  0.64739300  0.49701000  0.20641000  1
  O  576  1  0.80023000  0.47574000  0.22926700  1
  O  597  1  0.74483300  0.59421500  0.00441500  1
  O  598  1  0.68107400  0.64507800  0.96092500  1
  O  599  1  0.84885400  0.66051000  0.00551900  1
  O  600  1  0.74490600  0.74394600  0.04047600  1
  O  601  1  0.79717300  0.60343600  0.02257300  1
  O  602  1  0.67609700  0.69253400  0.95590500  1
  O  603  1  0.84393600  0.70788200  0.00038500  1
  O  604  1  0.69346000  0.73228500  0.02213700  1
  O  625  1  0.74477300  0.40209900  0.99188600  1
  O  626  1  0.68103100  0.35121800  0.03539100  1
  O  627  1  0.84882200  0.33582300  0.99076800  1
  O  628  1  0.74496900  0.25236800  0.95583200  1
  O  629  1  0.79713600  0.39290100  0.97375900  1
  O  630  1  0.67607400  0.30375900  0.04040600  1
  O  631  1  0.84391000  0.28845100  0.99591600  1
  O  632  1  0.69350000  0.26401200  0.97413700  1
  O  653  1  0.74483300  0.99186000  0.59418900  1
  O  654  1  0.68107900  0.03534900  0.64506100  1
  O  655  1  0.84886800  0.99077300  0.66046300  1
  O  656  1  0.74494900  0.95580200  0.74392000  1
  O  657  1  0.79717500  0.97369900  0.60340300  1
  O  658  1  0.67610800  0.04036000  0.69252000  1
  O  659  1  0.84396100  0.99589500  0.70783800  1
  O  660  1  0.69350300  0.97414400  0.73227600  1
  O  681  1  0.74480700  0.00439400  0.40206000  1
  O  682  1  0.68102800  0.96090700  0.35119600  1
  O  683  1  0.84882000  0.00552700  0.33574300  1
  O  684  1  0.74492300  0.04046000  0.25233100  1
  O  685  1  0.79716400  0.02252400  0.39284500  1
  O  686  1  0.67606300  0.95586900  0.30374000  1
  O  687  1  0.84388800  0.00035300  0.28837600  1
  O  688  1  0.69346300  0.02215100  0.26399100  1
  O  709  1  0.26077500  0.40131700  0.99583600  1
  O  710  1  0.32391400  0.35217800  0.04319500  1
  O  711  1  0.16108500  0.32880600  0.98967700  1
  O  712  1  0.26975700  0.25171900  0.95991600  1
  O  713  1  0.20834300  0.38930700  0.97964500  1
  O  714  1  0.33165100  0.30496500  0.04798600  1
  O  715  1  0.16908900  0.28175200  0.99515900  1
  O  716  1  0.32112000  0.26589800  0.97660100  1
  O  737  1  0.26087600  0.59496900  0.00039300  1
  O  738  1  0.32397400  0.64410100  0.95304400  1
  O  739  1  0.16115000  0.66744900  0.00660500  1
  O  740  1  0.26976000  0.74456200  0.03634600  1
  O  741  1  0.20842000  0.60694300  0.01655600  1
  O  742  1  0.33169100  0.69131100  0.94823400  1
  O  743  1  0.16912700  0.71450300  0.00107500  1
  O  744  1  0.32113400  0.73039000  0.01967800  1
  O  765  1  0.26079300  0.00044300  0.40134500  1
  O  766  1  0.32392300  0.95306300  0.35220900  1
  O  767  1  0.16110200  0.00659700  0.32883400  1
  O  768  1  0.26977400  0.03634300  0.25174500  1
  O  769  1  0.20836100  0.01663200  0.38933300  1
  O  770  1  0.33166300  0.94827600  0.30499600  1
  O  771  1  0.16911000  0.00111700  0.28177800  1
  O  772  1  0.32114000  0.01966200  0.26592400  1
  O  793  1  0.26081000  0.99589200  0.59501600  1
  O  794  1  0.32395100  0.04320500  0.64411900  1
  O  795  1  0.16112900  0.98966500  0.66753800  1
  O  796  1  0.26977000  0.95992000  0.74460400  1
  O  797  1  0.20836500  0.97971500  0.60700900  1
  O  798  1  0.33168300  0.04804600  0.69132800  1
  O  799  1  0.16912400  0.99522700  0.71458500  1
  O  800  1  0.32113400  0.97659900  0.73042000  1
  O  821  1  0.96409600  0.11298000  0.56282500  1
  O  822  1  0.03385700  0.19353400  0.57908500  1
  O  823  1  0.01631500  0.08787000  0.68959600  1
  O  824  1  0.97750300  0.17085200  0.70479700  1
  O  825  1  0.96522400  0.07655100  0.59375500  1
  O  826  1  0.02977100  0.21656100  0.62080600  1
  O  827  1  0.02042700  0.06366100  0.64845100  1
  O  828  1  0.97594500  0.20857300  0.67538900  1
  O  849  1  0.96409300  0.88339600  0.43344900  1
  O  850  1  0.03388500  0.80279800  0.41726200  1
  O  851  1  0.01629900  0.90834700  0.30664500  1
  O  852  1  0.97750600  0.82539200  0.29153100  1
  O  853  1  0.96523200  0.91978700  0.40247700  1
  O  854  1  0.02977100  0.77973500  0.37556400  1
  O  855  1  0.02043200  0.93260700  0.34776000  1
  O  856  1  0.97595300  0.78769300  0.32096700  1
  O  877  1  0.96410100  0.43346800  0.11297100  1
  O  878  1  0.03387900  0.41720800  0.19352500  1
  O  879  1  0.01630500  0.30669000  0.08787200  1
  O  880  1  0.97750900  0.29149900  0.17084700  1
  O  881  1  0.96523000  0.40253500  0.07654500  1
  O  882  1  0.02978200  0.37548900  0.21655500  1
  O  883  1  0.02042800  0.34783400  0.06365700  1
  O  884  1  0.97595000  0.32090600  0.20856800  1
  O  905  1  0.96408700  0.56283700  0.88341000  1
  O  906  1  0.03388000  0.57899600  0.80280700  1
  O  907  1  0.01631900  0.68964100  0.90832900  1
  O  908  1  0.97752600  0.70473600  0.82536200  1
  O  909  1  0.96523800  0.59381900  0.91979400  1
  O  910  1  0.02977900  0.62068900  0.77973200  1
  O  911  1  0.02043900  0.64853300  0.93260000  1
  O  912  1  0.97596200  0.67528600  0.78767500  1
  O  933  1  0.52663900  0.92736600  0.62450800  1
  O  934  1  0.47907600  0.83903400  0.57382000  1
  O  935  1  0.46325300  0.90650100  0.70514600  1
  O  936  1  0.52550500  0.78365200  0.67928800  1
  O  937  1  0.52501000  0.89774800  0.58702400  1
  O  938  1  0.48062500  0.79760100  0.59769600  1
  O  939  1  0.46504900  0.86389700  0.72680500  1
  O  940  1  0.52754100  0.81289500  0.71714100  1
  O  961  1  0.52667000  0.06892000  0.37179700  1
  O  962  1  0.47910700  0.15725700  0.42248200  1
  O  963  1  0.46329300  0.08978700  0.29116400  1
  O  964  1  0.52556200  0.21264400  0.31704300  1
  O  965  1  0.52505800  0.09854300  0.40928000  1
  O  966  1  0.48066200  0.19869300  0.39861100  1
  O  967  1  0.46509100  0.13239000  0.26950200  1
  O  968  1  0.52756100  0.18341300  0.27917800  1
  O  989  1  0.52664700  0.62446500  0.06893200  1
  O  990  1  0.47906400  0.57378300  0.15726000  1
  O  991  1  0.46327300  0.70510400  0.08978600  1
  O  992  1  0.52550800  0.67924300  0.21264800  1
  O  993  1  0.52503300  0.58698200  0.09855500  1
  O  994  1  0.48061700  0.59766100  0.19869400  1
  O  995  1  0.46506600  0.72676800  0.13238800  1
  O  996  1  0.52753300  0.71709900  0.18340600  1
  O  1017  1  0.52666200  0.37177100  0.92738300  1
  O  1018  1  0.47911500  0.42245600  0.83903900  1
  O  1019  1  0.46326700  0.29113800  0.90650800  1
  O  1020  1  0.52555900  0.31700000  0.78366400  1
  O  1021  1  0.52503800  0.40925200  0.89775800  1
  O  1022  1  0.48067600  0.39858000  0.79760400  1
  O  1023  1  0.46506900  0.26947600  0.86390400  1
  O  1024  1  0.52756700  0.27914200  0.81290200  1
  O  1045  1  0.26070500  0.31866100  0.70799000  1
  O  1046  1  0.31359800  0.19505500  0.74330400  1
  O  1047  1  0.14794400  0.24556700  0.75880800  1
  O  1048  1  0.24754400  0.21218800  0.81808900  1
  O  1049  1  0.31130400  0.29577700  0.71013100  1
  O  1050  1  0.32295500  0.22486100  0.70672200  1
  O  1051  1  0.15762900  0.27557000  0.72245500  1
  O  1052  1  0.19655300  0.23458400  0.81693200  1
  O  1073  1  0.26067200  0.67761300  0.28827000  1
  O  1074  1  0.31359200  0.80121900  0.25295900  1
  O  1075  1  0.14792900  0.75072100  0.23746300  1
  O  1076  1  0.24753600  0.78408500  0.17817000  1
  O  1077  1  0.31127600  0.70049100  0.28613100  1
  O  1078  1  0.32294700  0.77140600  0.28953500  1
  O  1079  1  0.15761400  0.72071200  0.27381200  1
  O  1080  1  0.19653500  0.76170400  0.17933500  1
  O  1101  1  0.26071600  0.28827900  0.31864500  1
  O  1102  1  0.31358100  0.25293300  0.19503700  1
  O  1103  1  0.14793300  0.23747000  0.24557400  1
  O  1104  1  0.24750600  0.17816100  0.21219600  1
  O  1105  1  0.31131000  0.28613300  0.29575300  1
  O  1106  1  0.32295500  0.28951400  0.22483800  1
  O  1107  1  0.15763700  0.27382600  0.27557200  1
  O  1108  1  0.19652400  0.17933100  0.23460500  1
  O  1129  1  0.26065300  0.70801100  0.67759400  1
  O  1130  1  0.31358100  0.74331500  0.80120000  1
  O  1131  1  0.14791200  0.75880800  0.75072300  1
  O  1132  1  0.24751900  0.81809200  0.78408800  1
  O  1133  1  0.31125600  0.71014300  0.70047600  1
  O  1134  1  0.32293300  0.70673900  0.77138700  1
  O  1135  1  0.15759100  0.72245900  0.72071200  1
  O  1136  1  0.19651900  0.81693700  0.76170400  1
  O  1157  1  0.78480900  0.67989000  0.27626500  1
  O  1158  1  0.67077700  0.79771400  0.26312400  1
  O  1159  1  0.83626100  0.76513400  0.22501900  1
  O  1160  1  0.69135600  0.78520100  0.19240700  1
  O  1161  1  0.73009600  0.68176200  0.29140000  1
  O  1162  1  0.67295700  0.76539700  0.29833000  1
  O  1163  1  0.84075100  0.73243000  0.25976500  1
  O  1164  1  0.74599800  0.78374600  0.17695000  1
  O  1185  1  0.78477800  0.31641500  0.71998500  1
  O  1186  1  0.67077100  0.19858500  0.73318700  1
  O  1187  1  0.83625200  0.23118600  0.77126500  1
  O  1188  1  0.69137300  0.21112200  0.80389600  1
  O  1189  1  0.73005700  0.31454700  0.70487900  1
  O  1190  1  0.67294300  0.23087900  0.69796000  1
  O  1191  1  0.84074000  0.26386900  0.73650000  1
  O  1192  1  0.74602900  0.21256400  0.81932200  1
  O  1213  1  0.78482300  0.72002300  0.67987600  1
  O  1214  1  0.67079100  0.73317800  0.79770200  1
  O  1215  1  0.83627800  0.77126800  0.76511500  1
  O  1216  1  0.69138400  0.80388700  0.78519100  1
  O  1217  1  0.73011600  0.70488300  0.68175200  1
  O  1218  1  0.67297200  0.69796300  0.76539400  1
  O  1219  1  0.84076800  0.73651400  0.73242100  1
  O  1220  1  0.74602600  0.81934300  0.78372700  1
  O  1241  1  0.78480300  0.27629100  0.31641200  1
  O  1242  1  0.67077100  0.26312900  0.19859500  1
  O  1243  1  0.83625500  0.22502300  0.23116800  1
  O  1244  1  0.69135600  0.19241300  0.21111600  1
  O  1245  1  0.73008500  0.29140700  0.31455200  1
  O  1246  1  0.67295500  0.29834400  0.23090000  1
  O  1247  1  0.84075100  0.25977600  0.26386200  1
  O  1248  1  0.74600900  0.17697700  0.21254900  1
