# generated using pymatgen
data_H36C43(NO)4
_symmetry_space_group_name_H-M   'P 1'
_cell_length_a   51.34292228
_cell_length_b   51.34292228
_cell_length_c   51.34292228
_cell_angle_alpha   109.47122063
_cell_angle_beta   109.47122063
_cell_angle_gamma   109.47122063
_symmetry_Int_Tables_number   1
_chemical_formula_structural   H36C43(NO)4
_chemical_formula_sum   'H432 C516 N48 O48'
_cell_volume   104188.51797742
_cell_formula_units_Z   12
loop_
 _symmetry_equiv_pos_site_id
 _symmetry_equiv_pos_as_xyz
  1  'x, y, z'
loop_
 _atom_site_type_symbol
 _atom_site_label
 _atom_site_symmetry_multiplicity
 _atom_site_fract_x
 _atom_site_fract_y
 _atom_site_fract_z
 _atom_site_occupancy
  C  1  1  0.64688300  0.29670000  0.31963900  1
  C  2  1  0.61300950  0.28010850  0.30213700  1
  C  3  1  0.61300950  0.33122950  0.30920600  1
  C  4  1  0.64688250  0.34851000  0.32557750  1
  C  5  1  0.66224050  0.38165800  0.33567450  1
  C  6  1  0.64474700  0.39741550  0.33052150  1
  C  7  1  0.61130800  0.37987400  0.31513300  1
  C  8  1  0.59559650  0.34709150  0.30426500  1
  C  9  1  0.59559700  0.24683250  0.28966650  1
  C  10  1  0.61131000  0.22976300  0.29451400  1
  C  11  1  0.64474700  0.24565900  0.31255800  1
  C  12  1  0.66224000  0.27891050  0.32490050  1
  C  13  1  0.68535650  0.33556650  0.31549400  1
  C  14  1  0.71921850  0.35160800  0.33277950  1
  C  15  1  0.71922200  0.36594200  0.38476900  1
  C  16  1  0.68535850  0.34811800  0.36819450  1
  C  17  1  0.73657800  0.38191200  0.41844500  1
  C  18  1  0.72080750  0.37983200  0.43591050  1
  C  19  1  0.68741050  0.36115050  0.42006800  1
  C  20  1  0.66995900  0.34566500  0.38644100  1
  C  21  1  0.66995400  0.32261400  0.28184600  1
  C  22  1  0.68740050  0.32457100  0.26566650  1
  C  23  1  0.72080150  0.33931150  0.28322400  1
  C  24  1  0.73657400  0.35299300  0.31645800  1
  C  37  1  0.66609000  0.33220900  0.33221100  1
  C  38  1  0.73767850  0.36800500  0.36800250  1
  C  41  1  0.59460350  0.29646500  0.29646750  1
  C  52  1  0.35645300  0.67442000  0.65148400  1
  C  53  1  0.39032650  0.69079150  0.66876700  1
  C  54  1  0.39032450  0.69786150  0.71988700  1
  C  55  1  0.35645000  0.68036100  0.70329400  1
  C  56  1  0.34109000  0.67510150  0.72108250  1
  C  57  1  0.35858300  0.68744300  0.75433500  1
  C  58  1  0.39202100  0.70549250  0.77023150  1
  C  59  1  0.40773400  0.71033250  0.75316150  1
  C  60  1  0.40773850  0.69573350  0.65290400  1
  C  61  1  0.39202950  0.68487950  0.62012500  1
  C  62  1  0.35859100  0.66947450  0.60257950  1
  C  63  1  0.34109500  0.66432100  0.61833600  1
  C  64  1  0.31797750  0.63180200  0.65187750  1
  C  65  1  0.28411450  0.61522500  0.63406150  1
  C  66  1  0.28411150  0.66721000  0.64838350  1
  C  67  1  0.31797350  0.68449900  0.66442050  1
  C  68  1  0.26675350  0.68352900  0.64699750  1
  C  69  1  0.28252250  0.71676050  0.66065600  1
  C  70  1  0.31592050  0.73431750  0.67537600  1
  C  71  1  0.33337300  0.71814500  0.67736100  1
  C  72  1  0.33338100  0.61355750  0.65433150  1
  C  73  1  0.31593550  0.57993250  0.63884200  1
  C  74  1  0.28253500  0.56408700  0.62017400  1
  C  75  1  0.26676100  0.58154900  0.61809700  1
  C  88  1  0.33724250  0.66778550  0.66778400  1
  C  89  1  0.26565550  0.63198850  0.63200700  1
  C  92  1  0.40873100  0.70352750  0.70352950  1
  C  103  1  0.02460750  0.70329750  0.34851800  1
  C  104  1  0.02370050  0.71989050  0.33123600  1
  C  105  1  0.97964850  0.66877000  0.28011450  1
  C  106  1  0.97873800  0.65148700  0.29670600  1
  C  107  1  0.95569000  0.61834000  0.27891700  1
  C  108  1  0.93477900  0.60258300  0.24566500  1
  C  109  1  0.93692400  0.62012600  0.22977100  1
  C  110  1  0.95884450  0.65290700  0.24684050  1
  C  111  1  0.04450550  0.75316450  0.34709900  1
  C  112  1  0.06642400  0.77023300  0.37988000  1
  C  113  1  0.06856600  0.75433850  0.39742350  1
  C  114  1  0.04765650  0.72108650  0.38166600  1
  C  115  1  0.98159400  0.66442900  0.34812200  1
  C  116  1  0.98283600  0.64838400  0.36594000  1
  C  117  1  0.02049750  0.63405650  0.35161700  1
  C  118  1  0.02174750  0.65188100  0.33557850  1
  C  119  1  0.03820200  0.61808500  0.35300200  1
  C  120  1  0.05776050  0.62017950  0.33932900  1
  C  121  1  0.06061050  0.63887300  0.32462550  1
  C  122  1  0.04245400  0.65434100  0.32263900  1
  C  123  1  0.96089950  0.67738100  0.34567150  1
  C  124  1  0.94275050  0.67541000  0.36114750  1
  C  125  1  0.94556750  0.66066950  0.37980700  1
  C  126  1  0.96512850  0.64699800  0.38190950  1
  C  139  1  0.00167100  0.66778700  0.33221500  1
  C  140  1  0.00166150  0.63198750  0.36800300  1
  C  143  1  0.00167450  0.70353200  0.29647350  1
  C  154  1  0.97873400  0.32557900  0.68036200  1
  C  155  1  0.97964250  0.30920450  0.69786200  1
  C  156  1  0.02369350  0.30213500  0.69079150  1
  C  157  1  0.02460250  0.31963550  0.67441800  1
  C  158  1  0.04765250  0.32489650  0.66432100  1
  C  159  1  0.06856200  0.31255450  0.66947250  1
  C  160  1  0.06641900  0.29451700  0.68487300  1
  C  161  1  0.04450000  0.28966650  0.69573450  1
  C  162  1  0.95883750  0.30426350  0.71033200  1
  C  163  1  0.93691750  0.31512400  0.70548050  1
  C  164  1  0.93477350  0.33052400  0.68744250  1
  C  165  1  0.95568500  0.33567850  0.67510250  1
  C  166  1  0.02174650  0.36819500  0.68450250  1
  C  167  1  0.02049900  0.38477000  0.66721500  1
  C  168  1  0.98283850  0.33278250  0.61522800  1
  C  169  1  0.98159200  0.31549600  0.63180400  1
  C  170  1  0.96513000  0.31646250  0.58155050  1
  C  171  1  0.94556950  0.28322950  0.56408900  1
  C  172  1  0.94274000  0.26567500  0.57993200  1
  C  173  1  0.96088750  0.28184900  0.61355750  1
  C  174  1  0.04244700  0.38644050  0.71814850  1
  C  175  1  0.06059800  0.42006500  0.73432400  1
  C  176  1  0.05776600  0.43590900  0.71676800  1
  C  177  1  0.03821000  0.41844700  0.68353500  1
  C  190  1  0.00166900  0.33221150  0.66778650  1
  C  191  1  0.00166900  0.36800600  0.63199400  1
  C  194  1  0.00166900  0.29646700  0.70353000  1
  C  205  1  0.32724200  0.68036000  0.97706000  1
  C  206  1  0.31087200  0.69786300  0.97797100  1
  C  207  1  0.30380100  0.69079450  0.02202250  1
  C  208  1  0.32130200  0.67442150  0.02293250  1
  C  209  1  0.32656300  0.66432500  0.04598300  1
  C  210  1  0.31422250  0.66947850  0.06689400  1
  C  211  1  0.29617350  0.68486750  0.06474200  1
  C  212  1  0.29133050  0.69573600  0.04282650  1
  C  213  1  0.30593000  0.71033400  0.95716700  1
  C  214  1  0.31679550  0.70548550  0.93524900  1
  C  215  1  0.33218900  0.68744050  0.93310050  1
  C  216  1  0.33733950  0.67509750  0.95401000  1
  C  217  1  0.36986050  0.68450450  0.02007200  1
  C  218  1  0.38643600  0.66721800  0.01882900  1
  C  219  1  0.33444900  0.61522900  0.98117400  1
  C  220  1  0.31716150  0.63180400  0.97992350  1
  C  221  1  0.31812800  0.58155250  0.96346750  1
  C  222  1  0.28489400  0.56408900  0.94392100  1
  C  223  1  0.26733800  0.57993150  0.94108150  1
  C  224  1  0.28351350  0.61355750  0.95922100  1
  C  225  1  0.38810550  0.71815150  0.04076800  1
  C  226  1  0.42173200  0.73433100  0.05890500  1
  C  227  1  0.43757450  0.71677400  0.05608850  1
  C  228  1  0.42011250  0.68353800  0.03653450  1
  C  241  1  0.33387700  0.66778750  0.99999750  1
  C  242  1  0.36967150  0.63199450  0.00000300  1
  C  245  1  0.29813450  0.70353200  0.99999650  1
  C  256  1  0.70497100  0.34851850  0.02293650  1
  C  257  1  0.72156000  0.33123400  0.02202500  1
  C  258  1  0.67043900  0.28011550  0.97797350  1
  C  259  1  0.65315750  0.29670750  0.97706600  1
  C  260  1  0.62000900  0.27891900  0.95401800  1
  C  261  1  0.60425000  0.24566700  0.93310700  1
  C  262  1  0.62179200  0.22977050  0.93525450  1
  C  263  1  0.65457500  0.24683900  0.95716900  1
  C  264  1  0.75483600  0.34709700  0.04283100  1
  C  265  1  0.77190550  0.37987650  0.06475600  1
  C  266  1  0.75601250  0.39742150  0.06689600  1
  C  267  1  0.72276050  0.38166600  0.04598650  1
  C  268  1  0.66610250  0.34812450  0.97992400  1
  C  269  1  0.65005650  0.36594100  0.98116550  1
  C  270  1  0.63572950  0.35161750  0.01882600  1
  C  271  1  0.65355550  0.33558150  0.02007800  1
  C  272  1  0.61975750  0.35300400  0.03653150  1
  C  273  1  0.62186650  0.33934400  0.05610250  1
  C  274  1  0.64054650  0.32462550  0.05894100  1
  C  275  1  0.65601250  0.32263900  0.04078250  1
  C  276  1  0.67905050  0.34567100  0.95922650  1
  C  277  1  0.67709500  0.36116050  0.94108950  1
  C  278  1  0.66236250  0.37982800  0.94391250  1
  C  279  1  0.64866600  0.38190600  0.96345300  1
  C  292  1  0.66946050  0.33221700  0.00000050  1
  C  293  1  0.63365150  0.36799550  0.99998300  1
  C  296  1  0.70520250  0.29647200  0.99999750  1
  C  307  1  0.67609100  0.65148250  0.35478050  1
  C  308  1  0.69246800  0.66876600  0.38865500  1
  C  309  1  0.69953450  0.71988600  0.38865550  1
  C  310  1  0.68203350  0.70329500  0.35478150  1
  C  311  1  0.67677400  0.72108500  0.33942300  1
  C  312  1  0.68911550  0.75433600  0.35691750  1
  C  313  1  0.70715400  0.77023100  0.39035600  1
  C  314  1  0.71200450  0.75316050  0.40606700  1
  C  315  1  0.69740800  0.65290200  0.40606700  1
  C  316  1  0.68654400  0.62012100  0.39035400  1
  C  317  1  0.67114350  0.60257750  0.35691500  1
  C  318  1  0.66599200  0.61833500  0.33942100  1
  C  319  1  0.63347450  0.65188000  0.31630750  1
  C  320  1  0.61689700  0.63406300  0.28244400  1
  C  321  1  0.66888150  0.64838500  0.28244050  1
  C  322  1  0.68617100  0.66442250  0.31630350  1
  C  323  1  0.68520150  0.64700050  0.26508400  1
  C  324  1  0.71843500  0.66067200  0.28085100  1
  C  325  1  0.73598650  0.67537600  0.31424750  1
  C  326  1  0.71981650  0.67736200  0.33170250  1
  C  327  1  0.61523050  0.65433100  0.33171150  1
  C  328  1  0.58160500  0.63885450  0.31426450  1
  C  329  1  0.56576150  0.62019550  0.28086300  1
  C  330  1  0.58322050  0.61809350  0.26508900  1
  C  343  1  0.66945700  0.66778500  0.33557300  1
  C  344  1  0.63366000  0.63199900  0.26398500  1
  C  347  1  0.70520300  0.70352800  0.40706000  1
  C  358  1  0.29837200  0.31963750  0.64521850  1
  C  359  1  0.28178100  0.30213850  0.61134550  1
  C  360  1  0.33290200  0.30920850  0.61134550  1
  C  361  1  0.35018450  0.32558100  0.64521950  1
  C  362  1  0.38333250  0.33568000  0.66057850  1
  C  363  1  0.39909000  0.33052850  0.64308450  1
  C  364  1  0.38154750  0.31513050  0.60964700  1
  C  365  1  0.34876650  0.30426750  0.59393400  1
  C  366  1  0.24850550  0.28966800  0.59393150  1
  C  367  1  0.23143650  0.29451850  0.60964400  1
  C  368  1  0.24733200  0.31255650  0.64308350  1
  C  369  1  0.28058250  0.32489650  0.66057800  1
  C  370  1  0.33724300  0.31549650  0.68369450  1
  C  371  1  0.35328250  0.33278350  0.71755700  1
  C  372  1  0.36760900  0.38477150  0.71755850  1
  C  373  1  0.34978650  0.36819600  0.68369450  1
  C  374  1  0.38357800  0.41844850  0.73491550  1
  C  375  1  0.38148100  0.43591000  0.71914500  1
  C  376  1  0.36280500  0.42006750  0.68574650  1
  C  377  1  0.34733100  0.38644300  0.66829500  1
  C  378  1  0.32429750  0.28184950  0.66829200  1
  C  379  1  0.32627050  0.26567450  0.68574100  1
  C  380  1  0.34099550  0.28322950  0.71914100  1
  C  381  1  0.35467300  0.31646350  0.73491350  1
  C  394  1  0.33388200  0.33221400  0.66442700  1
  C  395  1  0.36967400  0.36800600  0.73601500  1
  C  398  1  0.29814050  0.29647200  0.59294050  1
  C  409  1  0.35018200  0.02293850  0.70329850  1
  C  410  1  0.33290100  0.02202900  0.71989100  1
  C  411  1  0.28178000  0.97797700  0.66877100  1
  C  412  1  0.29837100  0.97706600  0.65148700  1
  C  413  1  0.28058100  0.95401700  0.61833900  1
  C  414  1  0.24733100  0.93310650  0.60258350  1
  C  415  1  0.23143300  0.93525850  0.62012450  1
  C  416  1  0.24850500  0.95717350  0.65290650  1
  C  417  1  0.34876350  0.04283250  0.75316500  1
  C  418  1  0.38154650  0.06474950  0.77023400  1
  C  419  1  0.39908850  0.06689850  0.75433900  1
  C  420  1  0.38332950  0.04598850  0.72108600  1
  C  421  1  0.34978800  0.97992600  0.66443000  1
  C  422  1  0.36760850  0.98117100  0.64838750  1
  C  423  1  0.35327650  0.01882500  0.63405450  1
  C  424  1  0.33723900  0.02007500  0.65187800  1
  C  425  1  0.35466250  0.03653150  0.61808300  1
  C  426  1  0.34097400  0.05607650  0.62016450  1
  C  427  1  0.32625950  0.05891900  0.63884950  1
  C  428  1  0.32429450  0.04077800  0.65433350  1
  C  429  1  0.34733650  0.95922950  0.67738000  1
  C  430  1  0.36282900  0.94109500  0.67542700  1
  C  431  1  0.38148800  0.94391200  0.66068500  1
  C  432  1  0.38357850  0.96346350  0.64700200  1
  C  445  1  0.33388050  0.00000150  0.66778800  1
  C  446  1  0.36967000  0.99999550  0.63199050  1
  C  449  1  0.29813900  0.00000350  0.70353450  1
  C  460  1  0.68203650  0.97706500  0.32558250  1
  C  461  1  0.69953750  0.97797400  0.30920850  1
  C  462  1  0.69246650  0.02202700  0.30213950  1
  C  463  1  0.67609150  0.02293250  0.31964000  1
  C  464  1  0.66599200  0.04598050  0.32489850  1
  C  465  1  0.67114450  0.06689200  0.31255850  1
  C  466  1  0.68653700  0.06474500  0.29451400  1
  C  467  1  0.69740550  0.04282950  0.28966900  1
  C  468  1  0.71200700  0.95716950  0.30426550  1
  C  469  1  0.70715100  0.93524450  0.31511950  1
  C  470  1  0.68911750  0.93310500  0.33052550  1
  C  471  1  0.67677650  0.95401350  0.33567900  1
  C  472  1  0.68617950  0.02007650  0.36819900  1
  C  473  1  0.66889250  0.01883550  0.38477500  1
  C  474  1  0.61690450  0.98117450  0.33279000  1
  C  475  1  0.63347750  0.97992100  0.31550050  1
  C  476  1  0.58322650  0.96346750  0.31647000  1
  C  477  1  0.56576550  0.94389500  0.28324050  1
  C  478  1  0.58160650  0.94105550  0.26568300  1
  C  479  1  0.61523100  0.95921450  0.28185450  1
  C  480  1  0.71982600  0.04077550  0.38644350  1
  C  481  1  0.73600500  0.05891150  0.42006950  1
  C  482  1  0.71845000  0.05608800  0.43591400  1
  C  483  1  0.68521450  0.03654750  0.41845200  1
  C  496  1  0.66946150  0.99999900  0.33221550  1
  C  497  1  0.63366900  0.00001700  0.36801200  1
  C  500  1  0.70520550  0.00000250  0.29647300  1
  C  511  1  0.32130800  0.64521950  0.29669950  1
  C  512  1  0.30380900  0.61134450  0.28010750  1
  C  513  1  0.31087700  0.61134450  0.33122850  1
  C  514  1  0.32724950  0.64521800  0.34851050  1
  C  515  1  0.33734900  0.66057750  0.38165950  1
  C  516  1  0.33219500  0.64308200  0.39741600  1
  C  517  1  0.31679750  0.60964450  0.37987300  1
  C  518  1  0.30593600  0.59393350  0.34709150  1
  C  519  1  0.29134000  0.59393350  0.24683350  1
  C  520  1  0.29618900  0.60964450  0.22976450  1
  C  521  1  0.31422650  0.64308300  0.24565850  1
  C  522  1  0.32656800  0.66057750  0.27891050  1
  C  523  1  0.31716400  0.68369200  0.33556900  1
  C  524  1  0.33445000  0.71755500  0.35161300  1
  C  525  1  0.38643900  0.71755950  0.36593950  1
  C  526  1  0.36986550  0.68369650  0.34811700  1
  C  527  1  0.42011650  0.73491800  0.38191150  1
  C  528  1  0.43758000  0.71914800  0.37981700  1
  C  529  1  0.42173600  0.68575100  0.36112600  1
  C  530  1  0.38811100  0.66829700  0.34565800  1
  C  531  1  0.28351650  0.66828900  0.32261750  1
  C  532  1  0.26733800  0.68573500  0.32458600  1
  C  533  1  0.28489500  0.71913650  0.33932550  1
  C  534  1  0.31812750  0.73491000  0.35299750  1
  C  547  1  0.33388250  0.66442700  0.33221050  1
  C  548  1  0.36967200  0.73601450  0.36800750  1
  C  551  1  0.29814100  0.59293900  0.29646600  1
  C  562  1  0.65315650  0.35478150  0.67442200  1
  C  563  1  0.67043900  0.38865500  0.69079500  1
  C  564  1  0.72155850  0.38865450  0.69786500  1
  C  565  1  0.70496800  0.35478150  0.68036550  1
  C  566  1  0.72275700  0.33942300  0.67510400  1
  C  567  1  0.75600800  0.35691550  0.68744650  1
  C  568  1  0.77190350  0.39035550  0.70548600  1
  C  569  1  0.75483400  0.40606800  0.71033700  1
  C  570  1  0.65457600  0.40606800  0.69573700  1
  C  571  1  0.62179450  0.39035450  0.68487600  1
  C  572  1  0.60425050  0.35691600  0.66947550  1
  C  573  1  0.62000750  0.33942200  0.66432150  1
  C  574  1  0.65355300  0.31630650  0.63180550  1
  C  575  1  0.63573050  0.28244350  0.61523000  1
  C  576  1  0.65005650  0.28244300  0.66721650  1
  C  577  1  0.66609550  0.31630450  0.68450500  1
  C  578  1  0.64866850  0.26508600  0.68353650  1
  C  579  1  0.66234000  0.28085550  0.71676850  1
  C  580  1  0.67706400  0.31425400  0.73432400  1
  C  581  1  0.67903850  0.33170550  0.71815000  1
  C  582  1  0.65600850  0.33170800  0.61356050  1
  C  583  1  0.64053200  0.31425700  0.57993600  1
  C  584  1  0.62185900  0.28085850  0.56409050  1
  C  585  1  0.61976500  0.26508650  0.58155350  1
  C  598  1  0.66945800  0.33557250  0.66778850  1
  C  599  1  0.63366400  0.26398550  0.63199350  1
  C  602  1  0.70520200  0.40706000  0.70353400  1
  C  1225  1  0.70135100  0.52884900  0.35279200  1
  C  1226  1  0.69850350  0.49974300  0.35048350  1
  C  1227  1  0.67247900  0.47032150  0.32360250  1
  C  1228  1  0.64885900  0.47113550  0.30030250  1
  C  1229  1  0.65116800  0.50024350  0.30315150  1
  C  1230  1  0.67805000  0.52966400  0.32917500  1
  C  1237  1  0.67000700  0.43921200  0.31945100  1
  C  1240  1  0.68220300  0.56077450  0.33164750  1
  C  1243  1  0.30197350  0.65310600  0.82916150  1
  C  1244  1  0.30482300  0.65364400  0.80290300  1
  C  1245  1  0.33084850  0.65279250  0.79950800  1
  C  1246  1  0.35447000  0.65311400  0.82394300  1
  C  1247  1  0.35215900  0.65365350  0.85074050  1
  C  1248  1  0.32527700  0.65279250  0.85327850  1
  C  1255  1  0.33332350  0.65111350  0.77087200  1
  C  1258  1  0.32112400  0.65111200  0.88023600  1
  C  1261  1  0.82561400  0.47114600  0.17083400  1
  C  1262  1  0.85241200  0.50025200  0.19709400  1
  C  1263  1  0.85495400  0.52967350  0.20049050  1
  C  1264  1  0.83084050  0.52886150  0.17605900  1
  C  1265  1  0.80458250  0.49975350  0.14925900  1
  C  1266  1  0.80118400  0.47033300  0.14671900  1
  C  1273  1  0.88191350  0.56078350  0.22912900  1
  C  1276  1  0.77254700  0.43922350  0.11975950  1
  C  1279  1  0.17772650  0.34688950  0.64720000  1
  C  1280  1  0.15092550  0.34634600  0.64950650  1
  C  1281  1  0.14838650  0.34720550  0.67638700  1
  C  1282  1  0.17250050  0.34688950  0.69968900  1
  C  1283  1  0.19876050  0.34635100  0.69684250  1
  C  1284  1  0.20215950  0.34720750  0.67082000  1
  C  1291  1  0.12142600  0.34888400  0.68053700  1
  C  1294  1  0.23079650  0.34888600  0.66834750  1
  C  1297  1  0.34856350  0.64721050  0.17605900  1
  C  1298  1  0.34802550  0.64951950  0.14926200  1
  C  1299  1  0.34887650  0.67639750  0.14671900  1
  C  1300  1  0.34855600  0.69969650  0.17083150  1
  C  1301  1  0.34801700  0.69684850  0.19709050  1
  C  1302  1  0.34887750  0.67082600  0.20048850  1
  C  1309  1  0.35055450  0.68054850  0.11976000  1
  C  1312  1  0.35055600  0.66835250  0.22912650  1
  C  1315  1  0.47281300  0.17083800  0.82394500  1
  C  1316  1  0.50192000  0.19709650  0.85074350  1
  C  1317  1  0.53134150  0.20049300  0.85328450  1
  C  1318  1  0.53052750  0.17605950  0.82917100  1
  C  1319  1  0.50141900  0.14925900  0.80291400  1
  C  1320  1  0.47199950  0.14672250  0.79951500  1
  C  1327  1  0.56245150  0.22913050  0.88024200  1
  C  1330  1  0.44088800  0.11976350  0.77087550  1
  C  1333  1  0.65478050  0.82916750  0.30031200  1
  C  1334  1  0.65531650  0.80290600  0.30315750  1
  C  1335  1  0.65446300  0.79950850  0.32918150  1
  C  1336  1  0.65478350  0.82394200  0.35280250  1
  C  1337  1  0.65532050  0.85073950  0.35049300  1
  C  1338  1  0.65446500  0.85328250  0.32361350  1
  C  1345  1  0.65278500  0.77087150  0.33165550  1
  C  1348  1  0.65278800  0.88024150  0.31946350  1
  C  1351  1  0.53052750  0.35280250  0.69968700  1
  C  1352  1  0.50142100  0.35049550  0.69683750  1
  C  1353  1  0.47199900  0.32361350  0.67081750  1
  C  1354  1  0.47281150  0.30031100  0.64719950  1
  C  1355  1  0.50191800  0.30315800  0.64950800  1
  C  1356  1  0.53133950  0.32918200  0.67638750  1
  C  1363  1  0.44089000  0.31946300  0.66834700  1
  C  1366  1  0.56245000  0.33165250  0.68053950  1
  C  1369  1  0.17250550  0.82393950  0.47115000  1
  C  1370  1  0.19876450  0.85073800  0.50025650  1
  C  1371  1  0.20215950  0.85328050  0.52967800  1
  C  1372  1  0.17772550  0.82916700  0.52886450  1
  C  1373  1  0.15092650  0.80290900  0.49975650  1
  C  1374  1  0.14838800  0.79950950  0.47033650  1
  C  1381  1  0.23079550  0.88023900  0.56078850  1
  C  1384  1  0.12142950  0.77087250  0.43922500  1
  C  1387  1  0.64886650  0.17605300  0.34689050  1
  C  1388  1  0.65117550  0.14925450  0.34635100  1
  C  1389  1  0.67805750  0.14671500  0.34720750  1
  C  1390  1  0.70135450  0.17082700  0.34688550  1
  C  1391  1  0.69850650  0.19708600  0.34634650  1
  C  1392  1  0.67248400  0.20048500  0.34720600  1
  C  1399  1  0.68220850  0.11975700  0.34888650  1
  C  1402  1  0.67001200  0.22912250  0.34888650  1
  C  1405  1  0.35447250  0.69968500  0.52885450  1
  C  1406  1  0.35216200  0.69683800  0.49974700  1
  C  1407  1  0.32528200  0.67081600  0.47032700  1
  C  1408  1  0.30198100  0.64719550  0.47113950  1
  C  1409  1  0.30482900  0.64950650  0.50024650  1
  C  1410  1  0.33085350  0.67638550  0.52966800  1
  C  1417  1  0.32113000  0.66834450  0.43921650  1
  C  1420  1  0.33332500  0.68053650  0.56077850  1
  C  1423  1  0.83083750  0.30030850  0.65310900  1
  C  1424  1  0.80458050  0.30315950  0.65365100  1
  C  1425  1  0.80118000  0.32917950  0.65279350  1
  C  1426  1  0.82561050  0.35279750  0.65310900  1
  C  1427  1  0.85240900  0.35048900  0.65364700  1
  C  1428  1  0.85495100  0.32361000  0.65279200  1
  C  1435  1  0.77254250  0.33165150  0.65111500  1
  C  1438  1  0.88191000  0.31945900  0.65111200  1
  C  1657  1  0.30913200  0.47005950  0.64154650  1
  C  1658  1  0.30986650  0.49803500  0.64239350  1
  C  1659  1  0.33530850  0.52847150  0.66825300  1
  C  1660  1  0.36009650  0.52993750  0.69254400  1
  C  1661  1  0.35926450  0.50196550  0.69180300  1
  C  1662  1  0.33341050  0.47152850  0.66635200  1
  C  1669  1  0.33425450  0.55804050  0.67179800  1
  C  1672  1  0.32985950  0.44195850  0.66740700  1
  C  1675  1  0.69421650  0.33408450  0.16260200  1
  C  1676  1  0.69347250  0.33418000  0.18983350  1
  C  1677  1  0.66803100  0.33460050  0.19482650  1
  C  1678  1  0.64324100  0.33409900  0.17150400  1
  C  1679  1  0.64408700  0.33420850  0.14437350  1
  C  1680  1  0.66993950  0.33460850  0.13978900  1
  C  1687  1  0.66908150  0.33920300  0.22544950  1
  C  1690  1  0.67348850  0.33921650  0.11377100  1
  C  1693  1  0.17318800  0.52993300  0.83737900  1
  C  1694  1  0.14604750  0.50195950  0.81014900  1
  C  1695  1  0.14146550  0.47152300  0.80516250  1
  C  1696  1  0.16429100  0.47005900  0.82848600  1
  C  1697  1  0.19151400  0.49803250  0.85563350  1
  C  1698  1  0.19650700  0.52846800  0.86021100  1
  C  1705  1  0.11543850  0.44195200  0.77454250  1
  C  1708  1  0.22712350  0.55804200  0.88623650  1
  C  1711  1  0.83016150  0.66587050  0.35842200  1
  C  1712  1  0.85731150  0.66580150  0.35759900  1
  C  1713  1  0.86188750  0.66538850  0.33173900  1
  C  1714  1  0.83906150  0.66588700  0.30744950  1
  C  1715  1  0.81182800  0.66579050  0.30819050  1
  C  1716  1  0.80684250  0.66538200  0.33363950  1
  C  1723  1  0.88791250  0.66079350  0.32819300  1
  C  1726  1  0.77622300  0.66078300  0.33259600  1
  C  1729  1  0.66755250  0.35843350  0.82849500  1
  C  1730  1  0.66745650  0.35759950  0.85563400  1
  C  1731  1  0.66704500  0.33174150  0.86021350  1
  C  1732  1  0.66754550  0.30745200  0.83738950  1
  C  1733  1  0.66744700  0.30818900  0.81015500  1
  C  1734  1  0.66704250  0.33363900  0.80516750  1
  C  1741  1  0.66245150  0.32819900  0.88624050  1
  C  1744  1  0.66244600  0.33258850  0.77454650  1
  C  1747  1  0.53161100  0.83738750  0.17149150  1
  C  1748  1  0.50363750  0.81015800  0.14434850  1
  C  1749  1  0.47320300  0.80516750  0.13977550  1
  C  1750  1  0.47173650  0.82848850  0.16260300  1
  C  1751  1  0.49971100  0.85562850  0.18983250  1
  C  1752  1  0.53014700  0.86020700  0.19481900  1
  C  1759  1  0.44362850  0.77454700  0.11375350  1
  C  1762  1  0.55971800  0.88622650  0.22544450  1
  C  1765  1  0.33578850  0.16260900  0.69254650  1
  C  1766  1  0.33588750  0.18984350  0.69180600  1
  C  1767  1  0.33629200  0.19483150  0.66635650  1
  C  1768  1  0.33578600  0.17150550  0.64156450  1
  C  1769  1  0.33588550  0.14436950  0.64240400  1
  C  1770  1  0.33629250  0.13978850  0.66826000  1
  C  1777  1  0.34088800  0.22545250  0.66740650  1
  C  1780  1  0.34088700  0.11376150  0.67180350  1
  C  1783  1  0.47173650  0.64156000  0.30746350  1
  C  1784  1  0.49971350  0.64239450  0.30821200  1
  C  1785  1  0.53014900  0.66825750  0.33365550  1
  C  1786  1  0.53161150  0.69254650  0.35844100  1
  C  1787  1  0.50363850  0.69180300  0.35760850  1
  C  1788  1  0.47320200  0.66635150  0.33174950  1
  C  1795  1  0.55971800  0.67180600  0.33260300  1
  C  1798  1  0.44362900  0.66739950  0.32819150  1
  C  1801  1  0.83905250  0.17150750  0.52994300  1
  C  1802  1  0.81181850  0.14436700  0.50196950  1
  C  1803  1  0.80682700  0.13979200  0.47153400  1
  C  1804  1  0.83014000  0.16262800  0.47006800  1
  C  1805  1  0.85729050  0.18984700  0.49804050  1
  C  1806  1  0.86187200  0.19483500  0.52847700  1
  C  1813  1  0.77620950  0.11376400  0.44196050  1
  C  1816  1  0.88789950  0.22545550  0.55804800  1
  C  1819  1  0.36011700  0.82851050  0.66590150  1
  C  1820  1  0.35928500  0.85565150  0.66581350  1
  C  1821  1  0.33342400  0.86022700  0.66540000  1
  C  1822  1  0.30914300  0.83741250  0.66591650  1
  C  1823  1  0.30987450  0.81016850  0.66580000  1
  C  1824  1  0.33532250  0.80518050  0.66539100  1
  C  1831  1  0.32987650  0.88624900  0.66079750  1
  C  1834  1  0.33426750  0.77455550  0.66078300  1
  C  1837  1  0.64323950  0.30747150  0.47007000  1
  C  1838  1  0.64408250  0.30820600  0.49804350  1
  C  1839  1  0.66993750  0.33365500  0.52848150  1
  C  1840  1  0.69421750  0.35845300  0.52994550  1
  C  1841  1  0.69347700  0.35761600  0.50197300  1
  C  1842  1  0.66803250  0.33175700  0.47153650  1
  C  1849  1  0.67348150  0.33259650  0.55804700  1
  C  1852  1  0.66908250  0.32820300  0.44196450  1
  C  1855  1  0.16428550  0.69255400  0.33411750  1
  C  1856  1  0.19150700  0.69180000  0.33419300  1
  C  1857  1  0.19649900  0.66635800  0.33461100  1
  C  1858  1  0.17318250  0.64157800  0.33412750  1
  C  1859  1  0.14604250  0.64241150  0.33421900  1
  C  1860  1  0.14146150  0.66826650  0.33461900  1
  C  1867  1  0.22711800  0.66740150  0.33920650  1
  C  1870  1  0.11543800  0.67181600  0.33921600  1
  H  25  1  0.73394800  0.34142650  0.27206850  1
  H  26  1  0.76098350  0.36453150  0.32876400  1
  H  27  1  0.76098500  0.39479150  0.43054750  1
  H  28  1  0.73395450  0.39085350  0.46021100  1
  H  29  1  0.64566300  0.33218400  0.37515300  1
  H  30  1  0.64565700  0.31179600  0.26883900  1
  H  31  1  0.68659050  0.39471600  0.34725650  1
  H  32  1  0.59816400  0.39077100  0.31109400  1
  H  33  1  0.57118350  0.33480000  0.29259050  1
  H  34  1  0.68659000  0.29020050  0.33766150  1
  H  35  1  0.57118400  0.23470900  0.27692500  1
  H  36  1  0.59816500  0.20571900  0.28539900  1
  H  39  1  0.75297100  0.35805350  0.37458650  1
  H  40  1  0.75296950  0.39325200  0.37671150  1
  H  42  1  0.57930350  0.29248100  0.30695950  1
  H  43  1  0.57930500  0.28514950  0.27067650  1
  H  45  1  0.65224300  0.35723000  0.43094400  1
  H  47  1  0.65223200  0.29333400  0.21962500  1
  H  49  1  0.67674400  0.44359200  0.36354400  1
  H  51  1  0.67674450  0.23147950  0.31152800  1
  H  76  1  0.26938650  0.53978750  0.60916400  1
  H  77  1  0.24235200  0.56944650  0.60523450  1
  H  78  1  0.24234500  0.67122350  0.63548250  1
  H  79  1  0.26937700  0.72791850  0.65856050  1
  H  80  1  0.35767050  0.73115450  0.68818000  1
  H  81  1  0.35767850  0.62484850  0.66780700  1
  H  82  1  0.31674150  0.66233600  0.70979150  1
  H  83  1  0.40516600  0.71459750  0.79427450  1
  H  84  1  0.43214800  0.72307050  0.76528550  1
  H  85  1  0.31674550  0.65273050  0.60527400  1
  H  86  1  0.43215300  0.70740400  0.66519600  1
  H  87  1  0.40517450  0.68889500  0.60922350  1
  H  90  1  0.25034800  0.62326900  0.60676200  1
  H  91  1  0.25037800  0.62541500  0.64197700  1
  H  93  1  0.42403250  0.72931850  0.71484700  1
  H  94  1  0.42402700  0.69303150  0.70751150  1
  H  96  1  0.35108800  0.78035750  0.70664250  1
  H  98  1  0.35110250  0.56905750  0.64277600  1
  H  100  1  0.32658450  0.68846800  0.76851150  1
  H  102  1  0.32659800  0.63644700  0.55640300  1
  H  127  1  0.93230500  0.65856450  0.39084750  1
  H  128  1  0.96589700  0.63546300  0.39478200  1
  H  129  1  0.03741450  0.60519650  0.36452100  1
  H  130  1  0.07102900  0.60914500  0.34144200  1
  H  131  1  0.04464300  0.66781750  0.31181850  1
  H  132  1  0.95871400  0.68820200  0.33219400  1
  H  133  1  0.95421600  0.60528050  0.29020750  1
  H  134  1  0.92199950  0.60922650  0.20572600  1
  H  135  1  0.95946450  0.66519750  0.23471800  1
  H  136  1  0.04912550  0.70979800  0.39472650  1
  H  137  1  0.04388800  0.76528800  0.33481000  1
  H  138  1  0.08134800  0.79427900  0.39078100  1
  H  141  1  0.01819400  0.64193600  0.39325000  1
  H  142  1  0.98512350  0.60674050  0.35804500  1
  H  144  1  0.01615150  0.70751600  0.28515750  1
  H  145  1  0.98719950  0.71484900  0.29248950  1
  H  147  1  0.07538250  0.64276900  0.29335550  1
  H  149  1  0.92795850  0.70665900  0.35722550  1
  H  151  1  0.92162650  0.55640500  0.23148350  1
  H  153  1  0.08171400  0.76851950  0.44360050  1
  H  178  1  0.07103800  0.46021100  0.72792400  1
  H  179  1  0.03743050  0.43054900  0.67123050  1
  H  180  1  0.96590300  0.32876900  0.56944900  1
  H  181  1  0.93229700  0.27207550  0.53978650  1
  H  182  1  0.95870000  0.26884000  0.62484600  1
  H  183  1  0.04463900  0.37515050  0.73115650  1
  H  184  1  0.04912300  0.33765600  0.65273100  1
  H  185  1  0.08134400  0.28539600  0.68889600  1
  H  186  1  0.04387950  0.27692250  0.70740400  1
  H  187  1  0.95421350  0.34726550  0.66234100  1
  H  188  1  0.95945700  0.29259100  0.72307300  1
  H  189  1  0.92199250  0.31109800  0.71460050  1
  H  192  1  0.98513300  0.37671650  0.62541150  1
  H  193  1  0.01820350  0.37458800  0.62328150  1
  H  195  1  0.98719250  0.27067550  0.69303700  1
  H  196  1  0.01614450  0.30695950  0.72932100  1
  H  198  1  0.92794350  0.21963200  0.56905450  1
  H  200  1  0.07539350  0.43094150  0.78036600  1
  H  202  1  0.08171150  0.31152250  0.63644600  1
  H  204  1  0.92162400  0.36354950  0.68847450  1
  H  229  1  0.46187700  0.72793000  0.06936000  1
  H  230  1  0.43221550  0.67123300  0.03576850  1
  H  231  1  0.33043450  0.56945050  0.96424500  1
  H  232  1  0.27374050  0.53978850  0.93064100  1
  H  233  1  0.27050700  0.62484650  0.95702750  1
  H  234  1  0.37681700  0.73116050  0.04295750  1
  H  235  1  0.33933000  0.65274350  0.04745950  1
  H  236  1  0.28706850  0.68890650  0.07967700  1
  H  237  1  0.27859050  0.70741000  0.04220850  1
  H  238  1  0.34892700  0.66233650  0.95253950  1
  H  239  1  0.29425850  0.72307550  0.95778500  1
  H  240  1  0.31276400  0.71459900  0.92031800  1
  H  243  1  0.37838200  0.62541050  0.98346850  1
  H  244  1  0.37625400  0.62328700  0.01654100  1
  H  246  1  0.27234200  0.69304000  0.98552100  1
  H  247  1  0.30862750  0.72932450  0.01447300  1
  H  249  1  0.22129450  0.56905450  0.92627700  1
  H  251  1  0.43260750  0.78037450  0.07371200  1
  H  253  1  0.31319600  0.63645600  0.08004900  1
  H  255  1  0.36521500  0.68847100  0.91995200  1
  H  280  1  0.66022350  0.39083950  0.93062400  1
  H  281  1  0.63712000  0.39476850  0.96421250  1
  H  282  1  0.60686450  0.36451850  0.03574100  1
  H  283  1  0.61081700  0.34143950  0.06935750  1
  H  284  1  0.66949100  0.31182000  0.04297300  1
  H  285  1  0.68987200  0.33219450  0.95704050  1
  H  286  1  0.60695150  0.29020950  0.95254500  1
  H  287  1  0.61089350  0.20572700  0.92032350  1
  H  288  1  0.66686550  0.23471700  0.95778550  1
  H  289  1  0.71147250  0.39472650  0.04745600  1
  H  290  1  0.76695900  0.33480500  0.04220900  1
  H  291  1  0.79595150  0.39077750  0.07967400  1
  H  294  1  0.64358950  0.39324150  0.01650900  1
  H  295  1  0.60840500  0.35802650  0.98343950  1
  H  297  1  0.70918600  0.28515400  0.01447300  1
  H  298  1  0.71651650  0.29248850  0.98552000  1
  H  300  1  0.64444300  0.29335750  0.07371250  1
  H  302  1  0.70832500  0.35722300  0.92627700  1
  H  304  1  0.55807650  0.23149050  0.91995800  1
  H  306  1  0.77019750  0.44359900  0.08004650  1
  H  331  1  0.54145800  0.60915600  0.26771800  1
  H  332  1  0.57111700  0.60522200  0.24068100  1
  H  333  1  0.67289500  0.63548050  0.24067550  1
  H  334  1  0.72958800  0.65855950  0.26770350  1
  H  335  1  0.73282650  0.68818300  0.35600050  1
  H  336  1  0.62652200  0.66780700  0.35600900  1
  H  337  1  0.66401050  0.70979400  0.31507450  1
  H  338  1  0.71627400  0.79427550  0.40350250  1
  H  339  1  0.72474750  0.76528350  0.43048100  1
  H  340  1  0.65439950  0.60527550  0.31507200  1
  H  341  1  0.70907900  0.66519100  0.43047900  1
  H  342  1  0.69056650  0.60921900  0.40349650  1
  H  345  1  0.62494600  0.60675250  0.24868650  1
  H  346  1  0.62708100  0.64195800  0.24869700  1
  H  348  1  0.73099550  0.71484450  0.42236000  1
  H  349  1  0.69471000  0.70751050  0.42235950  1
  H  351  1  0.78202800  0.70664500  0.34941500  1
  H  353  1  0.57073700  0.64277500  0.34943600  1
  H  355  1  0.69014550  0.76851850  0.32492300  1
  H  357  1  0.63811400  0.55640150  0.32492050  1
  H  382  1  0.34310850  0.27207250  0.73228600  1
  H  383  1  0.36619750  0.32876750  0.75932100  1
  H  384  1  0.39645100  0.43054950  0.75932250  1
  H  385  1  0.39251050  0.46021200  0.73229250  1
  H  386  1  0.33385600  0.37515450  0.64399750  1
  H  387  1  0.31348050  0.26884200  0.64399450  1
  H  388  1  0.39639100  0.34726900  0.68492700  1
  H  389  1  0.39244900  0.31110700  0.59650300  1
  H  390  1  0.33647650  0.29259850  0.56952200  1
  H  391  1  0.29187150  0.33765850  0.68492600  1
  H  392  1  0.23638400  0.27692850  0.56951950  1
  H  393  1  0.20739200  0.28539950  0.59649950  1
  H  396  1  0.35971850  0.37458700  0.75130650  1
  H  397  1  0.39491850  0.37671750  0.75130900  1
  H  399  1  0.29415650  0.30696500  0.57764150  1
  H  400  1  0.28682400  0.27068000  0.57764000  1
  H  402  1  0.35889650  0.43094350  0.65058000  1
  H  404  1  0.29502200  0.21963200  0.65057500  1
  H  406  1  0.44526650  0.36355500  0.67508250  1
  H  408  1  0.23314800  0.31152450  0.67507550  1
  H  433  1  0.39252000  0.93064150  0.65857150  1
  H  434  1  0.39644750  0.96423050  0.63546400  1
  H  435  1  0.36619000  0.03575200  0.60520300  1
  H  436  1  0.34309900  0.06935700  0.60914400  1
  H  437  1  0.31348100  0.04297200  0.66781700  1
  H  438  1  0.33386150  0.95704300  0.68820250  1
  H  439  1  0.29187250  0.95254000  0.60528150  1
  H  440  1  0.20739250  0.92032250  0.60922800  1
  H  441  1  0.23638250  0.95778900  0.66519850  1
  H  442  1  0.39638850  0.04746050  0.70979600  1
  H  443  1  0.33647450  0.04221350  0.76528800  1
  H  444  1  0.39244650  0.07967850  0.79427800  1
  H  447  1  0.39491600  0.01653150  0.64194150  1
  H  448  1  0.35971400  0.98345650  0.60674450  1
  H  450  1  0.28682250  0.01447850  0.70751800  1
  H  451  1  0.29415500  0.98552600  0.71484800  1
  H  453  1  0.29501750  0.07372000  0.64277250  1
  H  455  1  0.35890200  0.92629400  0.70666600  1
  H  457  1  0.23314950  0.91995100  0.55640650  1
  H  459  1  0.44526400  0.08004800  0.76851700  1
  H  484  1  0.72960050  0.06937800  0.46021450  1
  H  485  1  0.67290800  0.03578800  0.43055400  1
  H  486  1  0.57112500  0.96425850  0.32877650  1
  H  487  1  0.54146050  0.93064000  0.27208050  1
  H  488  1  0.62651950  0.95702550  0.26884700  1
  H  489  1  0.73283350  0.04296200  0.37515350  1
  H  490  1  0.65440650  0.04745400  0.33766350  1
  H  491  1  0.69056950  0.07967500  0.28540150  1
  H  492  1  0.70908000  0.04221350  0.27692850  1
  H  493  1  0.66401850  0.95254500  0.34727050  1
  H  494  1  0.72475000  0.95779000  0.29259500  1
  H  495  1  0.71627800  0.92032600  0.31110300  1
  H  498  1  0.62708050  0.98349150  0.37673100  1
  H  499  1  0.62496500  0.01656050  0.37458550  1
  H  501  1  0.69471450  0.98552650  0.27068100  1
  H  502  1  0.73099700  0.01447850  0.30696650  1
  H  504  1  0.57073400  0.92628450  0.21964350  1
  H  506  1  0.78204950  0.07372950  0.43094600  1
  H  508  1  0.63811750  0.08004200  0.31152950  1
  H  510  1  0.69015350  0.91995400  0.36355250  1
  H  535  1  0.27373750  0.73228100  0.34143150  1
  H  536  1  0.33043200  0.75931800  0.36453200  1
  H  537  1  0.43221700  0.75932450  0.39479850  1
  H  538  1  0.46188250  0.73229650  0.39085300  1
  H  539  1  0.37682400  0.64399950  0.33218350  1
  H  540  1  0.27051050  0.64399100  0.31179650  1
  H  541  1  0.34893450  0.68492650  0.39471800  1
  H  542  1  0.31277150  0.59649900  0.39077250  1
  H  543  1  0.29426550  0.56951900  0.33480150  1
  H  544  1  0.33932600  0.68492750  0.29020050  1
  H  545  1  0.27859800  0.56952100  0.23471100  1
  H  546  1  0.28706900  0.59650200  0.20572000  1
  H  549  1  0.37625500  0.75131050  0.35805750  1
  H  550  1  0.37838150  0.75130450  0.39325400  1
  H  552  1  0.30863400  0.57764000  0.29248200  1
  H  553  1  0.27234900  0.57764100  0.28515000  1
  H  555  1  0.43261100  0.65058600  0.35723500  1
  H  557  1  0.22129750  0.65056300  0.29333950  1
  H  559  1  0.36522050  0.67507800  0.44359250  1
  H  561  1  0.31319100  0.67507650  0.23147550  1
  H  586  1  0.61082650  0.26771300  0.53978950  1
  H  587  1  0.60688400  0.24067950  0.56945050  1
  H  588  1  0.63713350  0.24067700  0.67123050  1
  H  589  1  0.66022200  0.26770750  0.72792350  1
  H  590  1  0.68985950  0.35600250  0.73115900  1
  H  591  1  0.66948650  0.35600400  0.62484950  1
  H  592  1  0.71146750  0.31507300  0.66234450  1
  H  593  1  0.79594850  0.40349850  0.71460600  1
  H  594  1  0.76695750  0.43048050  0.72307900  1
  H  595  1  0.60694850  0.31507350  0.65273400  1
  H  596  1  0.66686550  0.43048000  0.70740950  1
  H  597  1  0.61089400  0.40349850  0.68890050  1
  H  600  1  0.60841750  0.24869200  0.62328250  1
  H  601  1  0.64361700  0.24869150  0.62541150  1
  H  603  1  0.71651700  0.42235950  0.72932650  1
  H  604  1  0.70918600  0.42236050  0.69304250  1
  H  606  1  0.70831250  0.34942000  0.78036750  1
  H  608  1  0.64444450  0.34942300  0.56905950  1
  H  610  1  0.77018950  0.32492050  0.68847500  1
  H  612  1  0.55807350  0.32492100  0.63644850  1
  H  1231  1  0.62964150  0.45028200  0.28073250  1
  H  1233  1  0.72092750  0.54970400  0.37200650  1
  H  1235  1  0.71926900  0.50605300  0.39199600  1
  H  1236  1  0.60965300  0.49393200  0.28239600  1
  H  1238  1  0.69305900  0.44055650  0.32482450  1
  H  1239  1  0.65322600  0.42060250  0.29444450  1
  H  1241  1  0.67682450  0.55942850  0.30859300  1
  H  1242  1  0.70721000  0.57938200  0.34842200  1
  H  1249  1  0.37368650  0.65275850  0.82230600  1
  H  1251  1  0.28240050  0.65274800  0.83044250  1
  H  1253  1  0.28406150  0.67439900  0.78845450  1
  H  1254  1  0.39367300  0.67440700  0.88594600  1
  H  1256  1  0.31027050  0.63343400  0.74916250  1
  H  1257  1  0.35010250  0.64288700  0.76904250  1
  H  1259  1  0.32650200  0.63343600  0.88426800  1
  H  1260  1  0.29611750  0.64288200  0.87383850  1
  H  1267  1  0.83212500  0.54971650  0.17769450  1
  H  1269  1  0.82397650  0.45029100  0.16955250  1
  H  1271  1  0.88761450  0.49393850  0.21154300  1
  H  1272  1  0.79013650  0.50605950  0.11405100  1
  H  1274  1  0.88594400  0.55943850  0.25083750  1
  H  1275  1  0.87551600  0.57939350  0.23096050  1
  H  1277  1  0.75083900  0.44057050  0.11572550  1
  H  1278  1  0.77071300  0.42061550  0.12615850  1
  H  1285  1  0.17121850  0.34724650  0.71926200  1
  H  1287  1  0.17936350  0.34724150  0.62798300  1
  H  1289  1  0.11572100  0.32559050  0.60799150  1
  H  1290  1  0.21320850  0.32559650  0.71760400  1
  H  1292  1  0.11739600  0.36656100  0.67515900  1
  H  1293  1  0.12782450  0.35711500  0.70554350  1
  H  1295  1  0.25250450  0.36656200  0.69140150  1
  H  1296  1  0.23262800  0.35711600  0.65157100  1
  H  1303  1  0.34890850  0.71926700  0.16954850  1
  H  1305  1  0.34892150  0.62799500  0.17769750  1
  H  1307  1  0.32727300  0.60800350  0.11405950  1
  H  1308  1  0.32725550  0.71760350  0.21153400  1
  H  1310  1  0.36823300  0.67517500  0.11573000  1
  H  1311  1  0.35878150  0.70555500  0.12615750  1
  H  1313  1  0.36822850  0.69140700  0.25083450  1
  H  1314  1  0.35878800  0.65157750  0.23095950  1
  H  1321  1  0.55138000  0.17769600  0.83045100  1
  H  1323  1  0.45195850  0.16955700  0.82230650  1
  H  1325  1  0.49560700  0.21154600  0.88594600  1
  H  1326  1  0.50772250  0.11405200  0.78845650  1
  H  1328  1  0.56110600  0.25083800  0.88427100  1
  H  1329  1  0.58106000  0.23095950  0.87384350  1
  H  1331  1  0.44223450  0.11573450  0.74916800  1
  H  1332  1  0.42228000  0.12616100  0.76904500  1
  H  1339  1  0.65443000  0.82230500  0.37202000  1
  H  1341  1  0.65442500  0.83044900  0.28073900  1
  H  1343  1  0.67607450  0.78846050  0.28240000  1
  H  1344  1  0.67608550  0.88594450  0.39200900  1
  H  1346  1  0.63510750  0.74916300  0.30860050  1
  H  1347  1  0.64455500  0.76903950  0.34843150  1
  H  1349  1  0.63511400  0.88427600  0.32484400  1
  H  1350  1  0.64455500  0.87384300  0.29445700  1
  H  1357  1  0.45195650  0.28073700  0.62798350  1
  H  1359  1  0.55138200  0.37201850  0.71926050  1
  H  1361  1  0.50772600  0.39200700  0.71759900  1
  H  1362  1  0.49560500  0.28239600  0.60799200  1
  H  1364  1  0.44223800  0.32484100  0.69140200  1
  H  1365  1  0.42228050  0.29445650  0.65157000  1
  H  1367  1  0.56110250  0.30859850  0.67516200  1
  H  1368  1  0.58105750  0.34842900  0.70554550  1
  H  1375  1  0.17936000  0.83045150  0.54971850  1
  H  1377  1  0.17122450  0.82230000  0.45029550  1
  H  1379  1  0.21321350  0.88593950  0.49394100  1
  H  1380  1  0.11572000  0.78846400  0.50606500  1
  H  1382  1  0.25250400  0.88426950  0.55944350  1
  H  1383  1  0.23262500  0.87384300  0.57939800  1
  H  1385  1  0.11739550  0.74916350  0.44057200  1
  H  1386  1  0.12782750  0.76903850  0.42061700  1
  H  1393  1  0.72092900  0.16954800  0.34724400  1
  H  1395  1  0.62965100  0.17769150  0.34724750  1
  H  1397  1  0.60966100  0.11405250  0.32559850  1
  H  1398  1  0.71926700  0.21153950  0.32559450  1
  H  1400  1  0.67683550  0.11572800  0.36656550  1
  H  1401  1  0.70721550  0.12615550  0.35711400  1
  H  1403  1  0.69306600  0.25083050  0.36656450  1
  H  1404  1  0.65323400  0.23095300  0.35711500  1
  H  1411  1  0.28240800  0.62797900  0.45028400  1
  H  1413  1  0.37368600  0.71925900  0.54970800  1
  H  1415  1  0.39367600  0.71760150  0.50605650  1
  H  1416  1  0.28407450  0.60799050  0.49393600  1
  H  1418  1  0.32650700  0.69139950  0.44056350  1
  H  1419  1  0.29612300  0.65156650  0.42060750  1
  H  1421  1  0.31027100  0.67515750  0.55943150  1
  H  1422  1  0.35010050  0.70554400  0.57938550  1
  H  1429  1  0.82397300  0.37201400  0.65275400  1
  H  1431  1  0.83212150  0.28073800  0.65275650  1
  H  1433  1  0.79013250  0.28240300  0.67441050  1
  H  1434  1  0.88761150  0.39200600  0.67440350  1
  H  1436  1  0.75083500  0.30859700  0.63344000  1
  H  1437  1  0.77070950  0.34842800  0.64288550  1
  H  1439  1  0.88594250  0.32483900  0.63343750  1
  H  1440  1  0.87551300  0.29445300  0.64288200  1
  H  1663  1  0.37825400  0.55153250  0.71198050  1
  H  1665  1  0.28967950  0.44846700  0.62341250  1
  H  1667  1  0.28722250  0.49029850  0.60062500  1
  H  1668  1  0.40103700  0.50970950  0.71444350  1
  H  1670  1  0.31411050  0.55636700  0.67556450  1
  H  1671  1  0.35569400  0.57948800  0.69287700  1
  H  1673  1  0.32607900  0.44362800  0.68754200  1
  H  1674  1  0.30878450  0.42051100  0.64596150  1
  H  1681  1  0.62510550  0.33541750  0.17495900  1
  H  1683  1  0.71364950  0.33536250  0.16044200  1
  H  1685  1  0.71609000  0.31502300  0.20471600  1
  H  1686  1  0.60232100  0.31510950  0.11034850  1
  H  1688  1  0.68922450  0.36311250  0.24392000  1
  H  1689  1  0.64763950  0.33884100  0.22545350  1
  H  1691  1  0.67727350  0.36313450  0.11922600  1
  H  1692  1  0.69455900  0.33884100  0.11339400  1
  H  1699  1  0.16211900  0.44846100  0.82505400  1
  H  1701  1  0.17662400  0.55152800  0.83953900  1
  H  1703  1  0.11201750  0.50970500  0.79526250  1
  H  1704  1  0.20639750  0.49029800  0.88967050  1
  H  1706  1  0.12088000  0.44361550  0.75607150  1
  H  1707  1  0.11506500  0.42050400  0.77454100  1
  H  1709  1  0.24559800  0.55637650  0.88079850  1
  H  1710  1  0.22712550  0.57948700  0.88660450  1
  H  1717  1  0.84121650  0.66459950  0.28801000  1
  H  1719  1  0.82673600  0.66461700  0.37659300  1
  H  1721  1  0.89134550  0.68494600  0.39937050  1
  H  1722  1  0.79693850  0.68493300  0.28555950  1
  H  1724  1  0.88246750  0.63687850  0.32441400  1
  H  1725  1  0.88828500  0.66116500  0.30711900  1
  H  1727  1  0.75775600  0.63686700  0.31246600  1
  H  1728  1  0.77622800  0.66116050  0.35404450  1
  H  1735  1  0.66625800  0.28801350  0.83954750  1
  H  1737  1  0.66627100  0.37658800  0.82505400  1
  H  1739  1  0.68660500  0.39937500  0.88966500  1
  H  1740  1  0.68658400  0.28555250  0.79526250  1
  H  1742  1  0.63854300  0.32443250  0.88080550  1
  H  1743  1  0.66281550  0.30712200  0.88661050  1
  H  1745  1  0.63853100  0.31245050  0.75607550  1
  H  1746  1  0.66281550  0.35403250  0.77454400  1
  H  1753  1  0.45014250  0.82504050  0.16045300  1
  H  1755  1  0.55320500  0.83954900  0.17492300  1
  H  1757  1  0.51137500  0.79527950  0.11031250  1
  H  1758  1  0.49197850  0.88965900  0.20475750  1
  H  1760  1  0.44529800  0.75607600  0.11919200  1
  H  1761  1  0.42218300  0.77454300  0.11338700  1
  H  1763  1  0.55804950  0.88077250  0.24390900  1
  H  1764  1  0.58116400  0.88660000  0.22544400  1
  H  1771  1  0.33706950  0.17494550  0.62341200  1
  H  1773  1  0.33707300  0.16045250  0.71198350  1
  H  1775  1  0.31674200  0.20473250  0.71443650  1
  H  1776  1  0.31673850  0.11033650  0.60063000  1
  H  1778  1  0.36480150  0.24392200  0.68754350  1
  H  1779  1  0.34051750  0.22545400  0.64596150  1
  H  1781  1  0.36479850  0.11920150  0.67557700  1
  H  1782  1  0.34051900  0.11339100  0.69288100  1
  H  1789  1  0.55320400  0.71198150  0.37659850  1
  H  1791  1  0.45014350  0.62340900  0.28802350  1
  H  1793  1  0.49198250  0.60062950  0.28556700  1
  H  1794  1  0.51137700  0.71443400  0.39937900  1
  H  1796  1  0.55804750  0.67558000  0.31246350  1
  H  1797  1  0.58116500  0.69288100  0.35404600  1
  H  1799  1  0.44529500  0.68753050  0.32440350  1
  H  1800  1  0.42218250  0.64595050  0.30712000  1
  H  1807  1  0.82670850  0.16045400  0.44847050  1
  H  1809  1  0.84121250  0.17494750  0.55153800  1
  H  1811  1  0.79694450  0.11033400  0.50971150  1
  H  1812  1  0.89132050  0.20474200  0.49029850  1
  H  1814  1  0.75773250  0.11919500  0.44362550  1
  H  1815  1  0.77620450  0.11339650  0.42051400  1
  H  1817  1  0.88245700  0.24392650  0.55638250  1
  H  1818  1  0.88827300  0.22545750  0.57949450  1
  H  1825  1  0.28968750  0.83954950  0.66459100  1
  H  1827  1  0.37827650  0.82507650  0.66462900  1
  H  1829  1  0.40105850  0.88968450  0.68496000  1
  H  1830  1  0.28721400  0.79524550  0.68490450  1
  H  1832  1  0.32610800  0.88080800  0.63688700  1
  H  1833  1  0.30879850  0.88661800  0.66116050  1
  H  1835  1  0.31413300  0.75609300  0.63686600  1
  H  1836  1  0.35571250  0.77455350  0.66115500  1
  H  1843  1  0.71365350  0.37660850  0.55154200  1
  H  1845  1  0.62510100  0.28801750  0.44847750  1
  H  1847  1  0.60231500  0.28554600  0.49030300  1
  H  1848  1  0.71610050  0.39939000  0.50970950  1
  H  1850  1  0.67726000  0.31245950  0.55637650  1
  H  1851  1  0.69455600  0.35403950  0.57949650  1
  H  1853  1  0.68922200  0.32443150  0.44363550  1
  H  1854  1  0.64763950  0.30712600  0.42051850  1
  H  1861  1  0.17661800  0.62342100  0.33540700  1
  H  1863  1  0.16211400  0.71197950  0.33537650  1
  H  1865  1  0.20639050  0.71441600  0.31503650  1
  H  1866  1  0.11201400  0.60063950  0.31508250  1
  H  1868  1  0.24558900  0.68753900  0.36311900  1
  H  1869  1  0.22711750  0.64595600  0.33883650  1
  H  1871  1  0.12089000  0.67560550  0.36313550  1
  H  1872  1  0.11506250  0.69288750  0.33883700  1
  N  44  1  0.67324150  0.35684500  0.43876950  1
  N  46  1  0.67323350  0.31471450  0.23279800  1
  N  48  1  0.65894800  0.43025800  0.34008700  1
  N  50  1  0.65894850  0.22701700  0.31719050  1
  N  95  1  0.33009350  0.76719100  0.68525550  1
  N  97  1  0.33010200  0.56123100  0.64315700  1
  N  99  1  0.34438100  0.68280800  0.77297600  1
  N  101  1  0.34439100  0.65990600  0.56973600  1
  N  146  1  0.08360600  0.64316750  0.31474650  1
  N  148  1  0.91974400  0.68527500  0.35683900  1
  N  150  1  0.91150250  0.56974000  0.22702250  1
  N  152  1  0.09184100  0.77298100  0.43026800  1
  N  197  1  0.91972900  0.23280450  0.56123050  1
  N  199  1  0.08360700  0.43876700  0.76719400  1
  N  201  1  0.09183800  0.31718650  0.65990450  1
  N  203  1  0.91149850  0.34009150  0.68281000  1
  N  248  1  0.23447000  0.56123050  0.91806850  1
  N  250  1  0.44043400  0.76719950  0.08191950  1
  N  252  1  0.31885800  0.65991400  0.09017100  1
  N  254  1  0.34175650  0.68280800  0.90982650  1
  N  299  1  0.64484050  0.31474650  0.08193600  1
  N  301  1  0.68694350  0.35684300  0.91807150  1
  N  303  1  0.57140750  0.22702600  0.90983250  1
  N  305  1  0.77465550  0.43026550  0.09017100  1
  N  350  1  0.76886100  0.68525600  0.32842200  1
  N  352  1  0.56290750  0.64316100  0.32843850  1
  N  354  1  0.68448150  0.77297850  0.34271700  1
  N  356  1  0.66157250  0.56973350  0.34271300  1
  N  401  1  0.35850450  0.43876850  0.67157500  1
  N  403  1  0.31640850  0.23280500  0.67157250  1
  N  405  1  0.43193350  0.34009700  0.65728550  1
  N  407  1  0.22868900  0.31719000  0.65728300  1
  N  452  1  0.31640200  0.08193050  0.64315850  1
  N  454  1  0.35851850  0.91808350  0.68528300  1
  N  456  1  0.22868800  0.90982800  0.56974100  1
  N  458  1  0.43193250  0.09017350  0.77298000  1
  N  503  1  0.56290600  0.91806000  0.23280800  1
  N  505  1  0.76887200  0.08193200  0.43877100  1
  N  507  1  0.66157500  0.09016600  0.31719200  1
  N  509  1  0.68448650  0.90982850  0.34009400  1
  N  554  1  0.44043650  0.67157600  0.35683550  1
  N  556  1  0.23446800  0.67156250  0.31472350  1
  N  558  1  0.34176350  0.65728350  0.43026000  1
  N  560  1  0.31885850  0.65728500  0.22701650  1
  N  605  1  0.68692650  0.32842350  0.76719500  1
  N  607  1  0.64483550  0.32842850  0.56123500  1
  N  609  1  0.77465050  0.34271600  0.68281250  1
  N  611  1  0.57140650  0.34271500  0.65990650  1
  O  1232  1  0.72229350  0.50051650  0.37336300  1
  O  1234  1  0.62828350  0.49947350  0.27936800  1
  O  1250  1  0.28103850  0.65274100  0.77988750  1
  O  1252  1  0.37504250  0.65274900  0.87285050  1
  O  1268  1  0.87452400  0.49948200  0.22010900  1
  O  1270  1  0.78157300  0.50052900  0.12714800  1
  O  1286  1  0.12881700  0.34725000  0.62662100  1
  O  1288  1  0.22177450  0.34725300  0.72062850  1
  O  1304  1  0.34892900  0.62663650  0.12714950  1
  O  1306  1  0.34891550  0.72063050  0.22010300  1
  O  1322  1  0.50115050  0.22011150  0.87285500  1
  O  1324  1  0.50219550  0.12715400  0.77989950  1
  O  1340  1  0.65441650  0.77989300  0.27937250  1
  O  1342  1  0.65442650  0.87285550  0.37338000  1
  O  1358  1  0.50219900  0.37337800  0.72062900  1
  O  1360  1  0.50114700  0.27937100  0.62662500  1
  O  1376  1  0.22178000  0.87284900  0.49948600  1
  O  1378  1  0.12881400  0.77989650  0.50052950  1
  O  1394  1  0.62829350  0.12714250  0.34725500  1
  O  1396  1  0.72229400  0.22010200  0.34725300  1
  O  1412  1  0.37504300  0.72062750  0.50052150  1
  O  1414  1  0.28104500  0.62662000  0.49947500  1
  O  1430  1  0.78156800  0.27937100  0.65275000  1
  O  1432  1  0.87452200  0.37337300  0.65274600  1
  O  1664  1  0.28430800  0.49496700  0.61931800  1
  O  1666  1  0.38234100  0.50502650  0.71735550  1
  O  1682  1  0.71901650  0.33663600  0.21231650  1
  O  1684  1  0.62102500  0.33671150  0.12437650  1
  O  1700  1  0.12602550  0.50502050  0.78766200  1
  O  1702  1  0.21399350  0.49496600  0.87565350  1
  O  1718  1  0.87732850  0.66333350  0.38068000  1
  O  1720  1  0.78934050  0.66332450  0.28264500  1
  O  1736  1  0.66499400  0.38068450  0.87565550  1
  O  1738  1  0.66497600  0.28263950  0.78766650  1
  O  1754  1  0.50669700  0.78767650  0.12432150  1
  O  1756  1  0.49664150  0.87562400  0.21232750  1
  O  1772  1  0.33835300  0.21233050  0.71735350  1
  O  1774  1  0.33834750  0.12434600  0.61931950  1
  O  1790  1  0.49664350  0.61932100  0.28265050  1
  O  1792  1  0.50669500  0.71735000  0.38068600  1
  O  1808  1  0.78933900  0.12434150  0.50503150  1
  O  1810  1  0.87730350  0.21233400  0.49497250  1
  O  1826  1  0.38236750  0.87567300  0.66335050  1
  O  1828  1  0.28431200  0.78767250  0.66330350  1
  O  1844  1  0.62101650  0.28264250  0.49497800  1
  O  1846  1  0.71902200  0.38070050  0.50503250  1
  O  1862  1  0.21398850  0.71734600  0.33665150  1
  O  1864  1  0.12602400  0.61933550  0.33669050  1
