# generated using pymatgen
data_H9C14(NO)2
_symmetry_space_group_name_H-M   'P 1'
_cell_length_a   74.28280000
_cell_length_b   74.28280000
_cell_length_c   74.28280000
_cell_angle_alpha   90.00000000
_cell_angle_beta   90.00000000
_cell_angle_gamma   90.00000000
_symmetry_Int_Tables_number   1
_chemical_formula_structural   H9C14(NO)2
_chemical_formula_sum   'H864 C1344 N192 O192'
_cell_volume   409887.61565365
_cell_formula_units_Z   96
loop_
 _symmetry_equiv_pos_site_id
 _symmetry_equiv_pos_as_xyz
  1  'x, y, z'
loop_
 _atom_site_type_symbol
 _atom_site_label
 _atom_site_symmetry_multiplicity
 _atom_site_fract_x
 _atom_site_fract_y
 _atom_site_fract_z
 _atom_site_occupancy
  H  7  1  0.23537500  0.06244100  0.40082700  1
  H  8  1  0.25637300  0.10428200  0.36900500  1
  H  9  1  0.26695400  0.05029200  0.35557200  1
  H  16  1  0.24782600  0.08631900  0.42243600  1
  H  17  1  0.21202100  0.12887600  0.43240900  1
  H  18  1  0.22243800  0.11296000  0.37911900  1
  H  29  1  0.74355600  0.91612800  0.40053300  1
  H  30  1  0.72249200  0.87407200  0.36908600  1
  H  31  1  0.71193500  0.92795800  0.35521300  1
  H  38  1  0.73098700  0.89231500  0.42229700  1
  H  39  1  0.76651300  0.84956700  0.43250100  1
  H  40  1  0.75645700  0.86548900  0.37914300  1
  H  51  1  0.74338200  0.06235400  0.59122900  1
  H  52  1  0.72239400  0.10430400  0.62287500  1
  H  53  1  0.71183400  0.05037000  0.63655800  1
  H  60  1  0.73084000  0.08624600  0.56956700  1
  H  61  1  0.76640700  0.12899200  0.55949700  1
  H  62  1  0.75636500  0.11288300  0.61280400  1
  H  73  1  0.23508700  0.91609400  0.59121800  1
  H  74  1  0.25609700  0.87415000  0.62287000  1
  H  75  1  0.26661100  0.92809000  0.63655800  1
  H  82  1  0.24763600  0.89225000  0.56955300  1
  H  83  1  0.21203400  0.84955200  0.55941800  1
  H  84  1  0.22214400  0.86552000  0.61275300  1
  H  95  1  0.39403600  0.23516900  0.06913900  1
  H  96  1  0.36231700  0.25616800  0.11104400  1
  H  97  1  0.34872700  0.26670900  0.05708500  1
  H  104  1  0.41567900  0.24768100  0.09299900  1
  H  105  1  0.42575200  0.21199100  0.13563400  1
  H  106  1  0.37243500  0.22221800  0.11968700  1
  H  117  1  0.39403900  0.74331100  0.92280600  1
  H  118  1  0.36235900  0.72234500  0.88086000  1
  H  119  1  0.34870900  0.71177900  0.93480100  1
  H  126  1  0.41571200  0.73082400  0.89896400  1
  H  127  1  0.42581700  0.76653700  0.85635600  1
  H  128  1  0.37248500  0.75625400  0.87221600  1
  H  139  1  0.58443000  0.74324000  0.06909600  1
  H  140  1  0.61616000  0.72229700  0.11101900  1
  H  141  1  0.62975200  0.71170200  0.05707000  1
  H  148  1  0.56278700  0.73077800  0.09298600  1
  H  149  1  0.55276800  0.76649700  0.13561300  1
  H  150  1  0.60606700  0.75623100  0.11962400  1
  H  161  1  0.58442800  0.23530400  0.92275900  1
  H  162  1  0.61618500  0.25630000  0.88087700  1
  H  163  1  0.62972300  0.26684900  0.93484800  1
  H  170  1  0.56280200  0.24780200  0.89888700  1
  H  171  1  0.55275900  0.21206300  0.85628700  1
  H  172  1  0.60606900  0.22234900  0.87222800  1
  H  183  1  0.06237900  0.39400500  0.24180200  1
  H  184  1  0.10433000  0.36238200  0.26283800  1
  H  185  1  0.05039300  0.34866600  0.27333300  1
  H  192  1  0.08623200  0.41568200  0.25434800  1
  H  193  1  0.12893800  0.42579100  0.21874700  1
  H  194  1  0.11295300  0.37246600  0.22887300  1
  H  205  1  0.91602900  0.39405000  0.74998000  1
  H  206  1  0.87411500  0.36232400  0.72900800  1
  H  207  1  0.92807300  0.34873600  0.71844400  1
  H  214  1  0.89219100  0.41570200  0.73749500  1
  H  215  1  0.84962000  0.42579600  0.77325500  1
  H  216  1  0.86544700  0.37246500  0.76291200  1
  H  227  1  0.06247700  0.58438200  0.74983900  1
  H  228  1  0.10434900  0.61617900  0.72888400  1
  H  229  1  0.05037300  0.62967500  0.71829700  1
  H  236  1  0.08636900  0.56277000  0.73737300  1
  H  237  1  0.12892900  0.55276900  0.77317300  1
  H  238  1  0.11298000  0.60606700  0.76282400  1
  H  249  1  0.91609700  0.58442100  0.24190500  1
  H  250  1  0.87419600  0.61615600  0.26289000  1
  H  251  1  0.92815600  0.62975400  0.27341200  1
  H  258  1  0.89224900  0.56278600  0.25441200  1
  H  259  1  0.84960000  0.55269800  0.21874300  1
  H  260  1  0.86552000  0.60602200  0.22897800  1
  H  271  1  0.06250900  0.23534500  0.59105800  1
  H  272  1  0.10434200  0.25638200  0.62287100  1
  H  273  1  0.05034600  0.26699500  0.63625500  1
  H  280  1  0.08636900  0.24779900  0.56944200  1
  H  281  1  0.12883700  0.21189800  0.55944600  1
  H  282  1  0.11304000  0.22243000  0.61274900  1
  H  293  1  0.91601900  0.74324400  0.59109400  1
  H  294  1  0.87414100  0.72225800  0.62287300  1
  H  295  1  0.92811700  0.71165500  0.63635200  1
  H  302  1  0.89216800  0.73078600  0.56945900  1
  H  303  1  0.84964300  0.76661000  0.55941600  1
  H  304  1  0.86544600  0.75616100  0.61273600  1
  H  315  1  0.06237900  0.74336100  0.40069200  1
  H  316  1  0.10434000  0.72236500  0.36906000  1
  H  317  1  0.05040900  0.71182600  0.35535200  1
  H  324  1  0.08624800  0.73081800  0.42236700  1
  H  325  1  0.12895500  0.76642300  0.43247000  1
  H  326  1  0.11292800  0.75632900  0.37914900  1
  H  337  1  0.91610800  0.23496000  0.40061400  1
  H  338  1  0.87410200  0.25602600  0.36909000  1
  H  339  1  0.92801300  0.26650300  0.35526300  1
  H  346  1  0.89231900  0.24755000  0.42233800  1
  H  347  1  0.84959100  0.21201300  0.43258200  1
  H  348  1  0.86545900  0.22207600  0.37920900  1
  H  359  1  0.23516500  0.39403200  0.92278200  1
  H  360  1  0.25616200  0.36232100  0.88087200  1
  H  361  1  0.26670000  0.34871600  0.93482800  1
  H  368  1  0.24767700  0.41567900  0.89892500  1
  H  369  1  0.21200100  0.42575600  0.85627800  1
  H  370  1  0.22221600  0.37243800  0.87223100  1
  H  381  1  0.74333800  0.39397300  0.06905700  1
  H  382  1  0.72238400  0.36229900  0.11101000  1
  H  383  1  0.71180200  0.34863800  0.05707500  1
  H  390  1  0.73084200  0.41564000  0.09292600  1
  H  391  1  0.76649000  0.42571800  0.13559800  1
  H  392  1  0.75630500  0.37240000  0.11962400  1
  H  403  1  0.74357200  0.58467800  0.92287000  1
  H  404  1  0.72246900  0.61609900  0.88081700  1
  H  405  1  0.71190800  0.62997100  0.93470300  1
  H  412  1  0.73096500  0.56291800  0.89902300  1
  H  413  1  0.76641500  0.55274600  0.85620000  1
  H  414  1  0.75649400  0.60608500  0.87227600  1
  H  425  1  0.23530400  0.58440900  0.06913300  1
  H  426  1  0.25627900  0.61618100  0.11101500  1
  H  427  1  0.26682500  0.62972200  0.05704500  1
  H  434  1  0.24778700  0.56278600  0.09300500  1
  H  435  1  0.21205200  0.55275000  0.13561000  1
  H  436  1  0.22234500  0.60605700  0.11966800  1
  H  447  1  0.39399700  0.06234000  0.75005000  1
  H  448  1  0.36233200  0.10427900  0.72905100  1
  H  449  1  0.34866100  0.05033800  0.71852200  1
  H  456  1  0.41566200  0.08620300  0.73752500  1
  H  457  1  0.42574200  0.12891400  0.77312600  1
  H  458  1  0.37242800  0.11289300  0.76300500  1
  H  469  1  0.39410400  0.91598000  0.24189700  1
  H  470  1  0.36236500  0.87410000  0.26294100  1
  H  471  1  0.34886400  0.92807700  0.27351400  1
  H  478  1  0.41575300  0.89215300  0.25439500  1
  H  479  1  0.42584300  0.84964800  0.21856100  1
  H  480  1  0.37250800  0.86539100  0.22901400  1
  H  491  1  0.58440700  0.06242600  0.24204700  1
  H  492  1  0.61616300  0.10433900  0.26298000  1
  H  493  1  0.62971700  0.05038300  0.27359000  1
  H  500  1  0.56277300  0.08631700  0.25449400  1
  H  501  1  0.55275800  0.12889700  0.21872000  1
  H  502  1  0.60606000  0.11294700  0.22904400  1
  H  513  1  0.58443700  0.91608700  0.74996700  1
  H  514  1  0.61617900  0.87419900  0.72896600  1
  H  515  1  0.62974600  0.92816400  0.71843300  1
  H  522  1  0.56280600  0.89221600  0.73745900  1
  H  523  1  0.55276100  0.84957700  0.77315200  1
  H  524  1  0.60606900  0.86554900  0.76291100  1
  H  535  1  0.74638800  0.91458600  0.59290900  1
  H  536  1  0.72618200  0.87103800  0.62326200  1
  H  537  1  0.71633000  0.92423100  0.63975000  1
  H  544  1  0.73570600  0.89229300  0.57011900  1
  H  545  1  0.76719300  0.84686400  0.55851000  1
  H  546  1  0.75747500  0.86130700  0.61233200  1
  H  557  1  0.23200400  0.06384700  0.59300200  1
  H  558  1  0.25225600  0.10741600  0.62329000  1
  H  559  1  0.26210500  0.05423500  0.63982300  1
  H  566  1  0.24269300  0.08613400  0.57017100  1
  H  567  1  0.21122400  0.13157700  0.55856800  1
  H  568  1  0.22094400  0.11713200  0.61238800  1
  H  579  1  0.23210500  0.91472600  0.39889100  1
  H  580  1  0.25232000  0.87114000  0.36859800  1
  H  581  1  0.26212400  0.92431500  0.35201600  1
  H  588  1  0.24276400  0.89248300  0.42173800  1
  H  589  1  0.21130200  0.84704600  0.43337500  1
  H  590  1  0.22106200  0.86141200  0.37954200  1
  H  601  1  0.74634500  0.06384200  0.39896100  1
  H  602  1  0.72622600  0.10743100  0.36860100  1
  H  603  1  0.71646900  0.05426300  0.35198900  1
  H  610  1  0.73570100  0.08612200  0.42177200  1
  H  611  1  0.76708400  0.13161900  0.43340900  1
  H  612  1  0.75743500  0.11716700  0.37958200  1
  H  623  1  0.58639000  0.74654200  0.92141400  1
  H  624  1  0.61653700  0.72616400  0.87780100  1
  H  625  1  0.63316700  0.71634700  0.93095800  1
  H  632  1  0.56350600  0.73581700  0.89917400  1
  H  633  1  0.55184300  0.76724700  0.85371600  1
  H  634  1  0.60568200  0.75753200  0.86809100  1
  H  645  1  0.58630600  0.23202700  0.07048100  1
  H  646  1  0.61657600  0.25226800  0.11406900  1
  H  647  1  0.63315000  0.26210100  0.06089800  1
  H  654  1  0.56346200  0.24272000  0.09274700  1
  H  655  1  0.55182700  0.21126700  0.13819200  1
  H  656  1  0.60565700  0.22096900  0.12378200  1
  H  667  1  0.39218100  0.23204200  0.92141400  1
  H  668  1  0.36190100  0.25228500  0.87783500  1
  H  669  1  0.34531600  0.26207600  0.93101000  1
  H  676  1  0.41502800  0.24272300  0.89916800  1
  H  677  1  0.42666700  0.21128700  0.85371100  1
  H  678  1  0.37283500  0.22101600  0.86809800  1
  H  689  1  0.39219300  0.74646100  0.07051800  1
  H  690  1  0.36185100  0.72629100  0.11409600  1
  H  691  1  0.34525200  0.71654600  0.06092000  1
  H  698  1  0.41501000  0.73580300  0.09279900  1
  H  699  1  0.42663500  0.76720200  0.13828800  1
  H  700  1  0.37281100  0.75753100  0.12383500  1
  H  711  1  0.91476800  0.58631400  0.75307200  1
  H  712  1  0.87119400  0.61665200  0.73289800  1
  H  713  1  0.92437300  0.63322800  0.72311700  1
  H  720  1  0.89252900  0.56348700  0.74241300  1
  H  721  1  0.84707500  0.55184000  0.77385000  1
  H  722  1  0.86145300  0.60567600  0.76412700  1
  H  733  1  0.06382600  0.58631100  0.23871600  1
  H  734  1  0.10740400  0.61656700  0.25900100  1
  H  735  1  0.05422700  0.63313100  0.26882400  1
  H  742  1  0.08609500  0.56347100  0.24944300  1
  H  743  1  0.13153900  0.55182900  0.21798900  1
  H  744  1  0.11712100  0.60566300  0.22767700  1
  H  755  1  0.91460900  0.39217300  0.23873000  1
  H  756  1  0.87105500  0.36194400  0.25909500  1
  H  757  1  0.92424400  0.34543700  0.26895500  1
  H  764  1  0.89235000  0.41502500  0.24944300  1
  H  765  1  0.84691100  0.42661800  0.21796400  1
  H  766  1  0.86132000  0.37279800  0.22775300  1
  H  777  1  0.06373400  0.39218400  0.75312900  1
  H  778  1  0.10731100  0.36181300  0.73299800  1
  H  779  1  0.05413400  0.34519700  0.72328600  1
  H  786  1  0.08599700  0.41499900  0.74247100  1
  H  787  1  0.13149400  0.42664800  0.77384400  1
  H  788  1  0.11706300  0.37281500  0.76419900  1
  H  799  1  0.91465000  0.74641500  0.39888400  1
  H  800  1  0.87108600  0.72619500  0.36856100  1
  H  801  1  0.92427100  0.71638600  0.35202000  1
  H  808  1  0.89238700  0.73575600  0.42170600  1
  H  809  1  0.84693500  0.76721000  0.43331300  1
  H  810  1  0.86134900  0.75746000  0.37949200  1
  H  821  1  0.06384600  0.23199700  0.39885000  1
  H  822  1  0.10742700  0.25227800  0.36859700  1
  H  823  1  0.05425300  0.26211900  0.35203900  1
  H  830  1  0.08611400  0.24268900  0.42169700  1
  H  831  1  0.13157900  0.21126000  0.43332100  1
  H  832  1  0.11715700  0.22096800  0.37949300  1
  H  843  1  0.91480400  0.23206300  0.59304600  1
  H  844  1  0.87121200  0.25227700  0.62333000  1
  H  845  1  0.92438300  0.26207000  0.63993300  1
  H  852  1  0.89256600  0.24274100  0.57020100  1
  H  853  1  0.84710900  0.21131700  0.55853700  1
  H  854  1  0.86147800  0.22102600  0.61237800  1
  H  865  1  0.06370700  0.74644000  0.59301500  1
  H  866  1  0.10729400  0.72627900  0.62335200  1
  H  867  1  0.05412300  0.71659400  0.64000400  1
  H  874  1  0.08596300  0.73575100  0.57019000  1
  H  875  1  0.13146500  0.76710900  0.55851400  1
  H  876  1  0.11704000  0.75749600  0.61235600  1
  H  887  1  0.74635600  0.58622800  0.07062100  1
  H  888  1  0.72618300  0.61657000  0.11419400  1
  H  889  1  0.71633600  0.63310100  0.06101600  1
  H  896  1  0.73570200  0.56342100  0.09290600  1
  H  897  1  0.76715400  0.55180200  0.13835800  1
  H  898  1  0.75745000  0.60562600  0.12392300  1
  H  909  1  0.23206900  0.58630400  0.92140500  1
  H  910  1  0.25230300  0.61658600  0.87782300  1
  H  911  1  0.26214600  0.63314600  0.93099700  1
  H  918  1  0.24275500  0.56346500  0.89914000  1
  H  919  1  0.21128700  0.55183500  0.85370300  1
  H  920  1  0.22100800  0.60566400  0.86810700  1
  H  931  1  0.23202700  0.39217400  0.07050700  1
  H  932  1  0.25226700  0.36189000  0.11408700  1
  H  933  1  0.26207400  0.34531800  0.06091000  1
  H  940  1  0.24269700  0.41501800  0.09276200  1
  H  941  1  0.21124600  0.42664000  0.13821400  1
  H  942  1  0.22099500  0.37281300  0.12381600  1
  H  953  1  0.74639100  0.39227800  0.92134400  1
  H  954  1  0.72623700  0.36193900  0.87775800  1
  H  955  1  0.71644600  0.34535500  0.93093100  1
  H  962  1  0.73570200  0.41508400  0.89904800  1
  H  963  1  0.76718600  0.42672900  0.85362500  1
  H  964  1  0.75752200  0.37289800  0.86806000  1
  H  975  1  0.58642500  0.91475200  0.23867000  1
  H  976  1  0.61658600  0.87113100  0.25900900  1
  H  977  1  0.63321400  0.92428400  0.26885000  1
  H  984  1  0.56354000  0.89251300  0.24936300  1
  H  985  1  0.55188300  0.84705500  0.21793500  1
  H  986  1  0.60572100  0.86142300  0.22766400  1
  H  997  1  0.58630000  0.06381300  0.75318300  1
  H  998  1  0.61654900  0.10739600  0.73289800  1
  H  999  1  0.63312700  0.05422200  0.72308300  1
  H  1006  1  0.56345200  0.08607800  0.74245900  1
  H  1007  1  0.55180900  0.13152100  0.77391300  1
  H  1008  1  0.60564300  0.11710900  0.76422200  1
  H  1019  1  0.39218700  0.91461100  0.75316800  1
  H  1020  1  0.36192800  0.87102800  0.73289500  1
  H  1021  1  0.34535900  0.92420400  0.72307400  1
  H  1028  1  0.41503600  0.89234800  0.74249100  1
  H  1029  1  0.42665100  0.84690800  0.77396200  1
  H  1030  1  0.37282700  0.86130900  0.76419900  1
  H  1041  1  0.39217800  0.06369600  0.23872400  1
  H  1042  1  0.36180800  0.10726300  0.25887600  1
  H  1043  1  0.34519200  0.05408100  0.26856300  1
  H  1050  1  0.41499100  0.08595800  0.24940100  1
  H  1051  1  0.42664300  0.13147300  0.21805300  1
  H  1052  1  0.37280900  0.11702700  0.22767500  1
  H  1063  1  0.20314900  0.18360700  0.40947000  1
  H  1065  1  0.15306500  0.16749200  0.37074000  1
  H  1067  1  0.16995700  0.13502700  0.37768800  1
  H  1068  1  0.17545100  0.20521200  0.42131800  1
  H  1070  1  0.14239000  0.20053500  0.37520700  1
  H  1072  1  0.21961900  0.15677500  0.39603100  1
  H  1079  1  0.77539000  0.79490900  0.40945800  1
  H  1081  1  0.82547300  0.81085400  0.37064700  1
  H  1083  1  0.80860500  0.84337300  0.37757100  1
  H  1084  1  0.80308100  0.77328700  0.42133300  1
  H  1086  1  0.83607800  0.77779000  0.37517700  1
  H  1088  1  0.75894600  0.82177200  0.39569200  1
  H  1095  1  0.77562100  0.18373400  0.58190400  1
  H  1097  1  0.82532600  0.16770200  0.62117200  1
  H  1099  1  0.80852300  0.13524800  0.61421200  1
  H  1100  1  0.80339600  0.20529400  0.57027000  1
  H  1102  1  0.83613500  0.20068700  0.61664200  1
  H  1104  1  0.75905100  0.15697900  0.59489400  1
  H  1111  1  0.20301200  0.79477800  0.58223900  1
  H  1113  1  0.15299600  0.81090100  0.62105900  1
  H  1115  1  0.16985000  0.84336300  0.61407400  1
  H  1116  1  0.17531100  0.77314800  0.57046500  1
  H  1118  1  0.14229000  0.77788800  0.61661500  1
  H  1120  1  0.21948800  0.82162300  0.59556200  1
  H  1127  1  0.40285400  0.20302800  0.19040100  1
  H  1129  1  0.36410700  0.15297000  0.17424800  1
  H  1131  1  0.37109700  0.16983800  0.14179300  1
  H  1132  1  0.41464900  0.17533700  0.21203400  1
  H  1134  1  0.36854000  0.14226400  0.20726200  1
  H  1136  1  0.38951600  0.21949500  0.16354900  1
  H  1143  1  0.40264100  0.77532100  0.80168000  1
  H  1145  1  0.36405500  0.82554700  0.81771900  1
  H  1147  1  0.37099200  0.80864400  0.85022400  1
  H  1148  1  0.41457400  0.80298200  0.78003400  1
  H  1150  1  0.36853100  0.83614800  0.78466500  1
  H  1152  1  0.38885300  0.75891600  0.82855600  1
  H  1159  1  0.57550600  0.77550600  0.19033800  1
  H  1161  1  0.61449500  0.82540400  0.17426500  1
  H  1163  1  0.60754100  0.80855400  0.14180400  1
  H  1164  1  0.56375900  0.80324400  0.21192000  1
  H  1166  1  0.60999800  0.83613100  0.20729300  1
  H  1168  1  0.58878100  0.75898200  0.16353500  1
  H  1175  1  0.57561400  0.20307900  0.80155500  1
  H  1177  1  0.61439200  0.15303600  0.81768800  1
  H  1179  1  0.60744500  0.16993300  0.85014200  1
  H  1180  1  0.56378800  0.17536500  0.77996400  1
  H  1182  1  0.60992200  0.14233900  0.78465200  1
  H  1184  1  0.58901600  0.21957200  0.82836800  1
  H  1191  1  0.18361500  0.40287100  0.20976900  1
  H  1193  1  0.16756000  0.36402100  0.15974600  1
  H  1195  1  0.13508000  0.37096800  0.17663200  1
  H  1196  1  0.20521300  0.41469200  0.18205300  1
  H  1198  1  0.20058200  0.36852300  0.14905100  1
  H  1200  1  0.15679500  0.38934100  0.22625300  1
  H  1207  1  0.79496100  0.40264900  0.78203600  1
  H  1209  1  0.81098100  0.36408700  0.83228200  1
  H  1211  1  0.84348500  0.37096500  0.81534700  1
  H  1212  1  0.77335800  0.41464300  0.80970900  1
  H  1214  1  0.77787100  0.36859700  0.84283300  1
  H  1216  1  0.82180800  0.38878900  0.76562000  1
  H  1223  1  0.18365900  0.57552700  0.78217200  1
  H  1225  1  0.16756100  0.61443900  0.83211900  1
  H  1227  1  0.13510500  0.60749800  0.81524600  1
  H  1228  1  0.20523600  0.56374500  0.80990300  1
  H  1230  1  0.20058500  0.60994600  0.84284800  1
  H  1232  1  0.15686800  0.58882400  0.76565400  1
  H  1239  1  0.79489400  0.57577600  0.20992200  1
  H  1241  1  0.81095300  0.61438200  0.15971900  1
  H  1243  1  0.84344700  0.60743600  0.17660100  1
  H  1244  1  0.77324500  0.56387000  0.18226700  1
  H  1246  1  0.77788200  0.60992200  0.14912600  1
  H  1248  1  0.82178000  0.58942300  0.22633200  1
  H  1255  1  0.18350000  0.20319000  0.58273900  1
  H  1257  1  0.16739000  0.15285900  0.62115100  1
  H  1259  1  0.13489900  0.16982400  0.61423300  1
  H  1260  1  0.20512700  0.17553500  0.57073100  1
  H  1262  1  0.20046000  0.14227700  0.61669100  1
  H  1264  1  0.15663300  0.21958500  0.59661100  1
  H  1271  1  0.79498900  0.77526900  0.58271100  1
  H  1273  1  0.81101300  0.82562900  0.62112300  1
  H  1275  1  0.84352900  0.80869600  0.61422500  1
  H  1276  1  0.77334100  0.80290000  0.57067900  1
  H  1278  1  0.77793100  0.83616300  0.61664000  1
  H  1280  1  0.82187700  0.75890800  0.59665100  1
  H  1287  1  0.18370200  0.77554900  0.40990400  1
  H  1289  1  0.16767100  0.82534100  0.37075100  1
  H  1291  1  0.13520600  0.80852500  0.37771500  1
  H  1292  1  0.20528300  0.80330200  0.42158400  1
  H  1294  1  0.20067100  0.83611200  0.37526600  1
  H  1296  1  0.15692100  0.75900200  0.39674700  1
  H  1303  1  0.79484300  0.20318400  0.40943400  1
  H  1305  1  0.81089200  0.15295500  0.37085500  1
  H  1307  1  0.84339800  0.16981600  0.37783300  1
  H  1308  1  0.77315600  0.17554500  0.42132500  1
  H  1310  1  0.77783500  0.14237400  0.37529300  1
  H  1312  1  0.82177600  0.21956900  0.39571000  1
  H  1319  1  0.20304000  0.40288400  0.80150900  1
  H  1321  1  0.15299600  0.36410600  0.81763800  1
  H  1323  1  0.16985200  0.37109100  0.85009900  1
  H  1324  1  0.17535000  0.41467200  0.77987400  1
  H  1326  1  0.14229500  0.36854700  0.78462300  1
  H  1328  1  0.21950600  0.38955700  0.82835900  1
  H  1335  1  0.77538800  0.40282300  0.19026800  1
  H  1337  1  0.82543400  0.36396300  0.17429300  1
  H  1339  1  0.80857800  0.37088400  0.14179100  1
  H  1340  1  0.80308400  0.41466600  0.21188100  1
  H  1342  1  0.83610000  0.36849200  0.20731700  1
  H  1344  1  0.75893100  0.38926700  0.16344700  1
  H  1351  1  0.77561600  0.57517800  0.80145900  1
  H  1353  1  0.82528400  0.61451800  0.81740100  1
  H  1355  1  0.80850500  0.60757200  0.84988100  1
  H  1356  1  0.80339100  0.56354500  0.77989400  1
  H  1358  1  0.83605100  0.60996000  0.78438900  1
  H  1360  1  0.75904400  0.58829400  0.82823000  1
  H  1367  1  0.20309600  0.57564200  0.19033600  1
  H  1369  1  0.15303800  0.61440600  0.17420900  1
  H  1371  1  0.16993300  0.60745300  0.14175000  1
  H  1372  1  0.17538500  0.56381200  0.21193500  1
  H  1374  1  0.14235500  0.60994200  0.20725100  1
  H  1376  1  0.21958000  0.58907200  0.16351200  1
  H  1383  1  0.40309600  0.18367000  0.78219800  1
  H  1385  1  0.36406200  0.16761000  0.83207200  1
  H  1387  1  0.37102800  0.13514700  0.81524300  1
  H  1388  1  0.41481200  0.20526600  0.80993100  1
  H  1390  1  0.36855800  0.20061700  0.84282000  1
  H  1392  1  0.38990200  0.15687000  0.76568000  1
  H  1399  1  0.40231700  0.79496900  0.20994000  1
  H  1401  1  0.36411900  0.81110500  0.15945300  1
  H  1403  1  0.37108100  0.84360900  0.17641600  1
  H  1404  1  0.41436900  0.77327600  0.18233400  1
  H  1406  1  0.36852000  0.77803100  0.14892800  1
  H  1408  1  0.38827900  0.82192200  0.22625800  1
  H  1415  1  0.57551600  0.18363200  0.20972200  1
  H  1417  1  0.61443300  0.16754100  0.15977600  1
  H  1419  1  0.60749100  0.13508200  0.17664500  1
  H  1420  1  0.56373600  0.20521200  0.18199200  1
  H  1422  1  0.60994000  0.20056500  0.14905200  1
  H  1424  1  0.58881500  0.15683500  0.22623700  1
  H  1431  1  0.57560200  0.79485600  0.78213700  1
  H  1433  1  0.61443300  0.81096700  0.83214700  1
  H  1435  1  0.60748100  0.84342600  0.81526500  1
  H  1436  1  0.56379600  0.77326400  0.80985700  1
  H  1438  1  0.60995700  0.77792700  0.84284200  1
  H  1440  1  0.58899400  0.82167400  0.76564100  1
  H  1447  1  0.70063800  0.67774900  0.90721300  1
  H  1449  1  0.64409000  0.66581400  0.87676100  1
  H  1451  1  0.66430900  0.63260000  0.87725500  1
  H  1452  1  0.68086200  0.71133100  0.90808300  1
  H  1454  1  0.63230100  0.68600800  0.90475000  1
  H  1456  1  0.70562300  0.64355300  0.87637600  1
  H  1463  1  0.27740200  0.30001000  0.90736700  1
  H  1465  1  0.33391200  0.31265900  0.87712500  1
  H  1467  1  0.31333900  0.34569400  0.87783600  1
  H  1468  1  0.29752700  0.26656700  0.90802500  1
  H  1470  1  0.34579800  0.29238300  0.90502200  1
  H  1472  1  0.27159600  0.33374200  0.87681600  1
  H  1479  1  0.27745100  0.67852200  0.08431700  1
  H  1481  1  0.33375700  0.66603700  0.11500300  1
  H  1483  1  0.31319600  0.63298300  0.11428500  1
  H  1484  1  0.29753500  0.71196700  0.08364500  1
  H  1486  1  0.34584500  0.68621300  0.08714700  1
  H  1488  1  0.27137400  0.64501200  0.11496900  1
  H  1495  1  0.70096200  0.30017600  0.08452200  1
  H  1497  1  0.64448900  0.31261900  0.11491400  1
  H  1499  1  0.66498700  0.34569900  0.11426900  1
  H  1500  1  0.68091600  0.26670300  0.08379900  1
  H  1502  1  0.63258800  0.29240300  0.08697500  1
  H  1504  1  0.70655200  0.33404100  0.11519500  1
  H  1511  1  0.90082300  0.70118200  0.68539300  1
  H  1513  1  0.87033100  0.64484000  0.67259300  1
  H  1515  1  0.87109300  0.66553300  0.63962600  1
  H  1516  1  0.90146400  0.68099000  0.71875500  1
  H  1518  1  0.89808900  0.63271500  0.69280400  1
  H  1520  1  0.87028000  0.70743300  0.65196100  1
  H  1527  1  0.90043000  0.27756800  0.30706900  1
  H  1529  1  0.87037800  0.33421500  0.31954400  1
  H  1531  1  0.87097700  0.31375900  0.35263100  1
  H  1532  1  0.90117800  0.29759800  0.27357800  1
  H  1534  1  0.89836500  0.34593600  0.29924600  1
  H  1536  1  0.86981100  0.27225200  0.34112500  1
  H  1543  1  0.07752100  0.27731600  0.68549400  1
  H  1545  1  0.10823000  0.33355100  0.67274600  1
  H  1547  1  0.10741900  0.31287600  0.63977000  1
  H  1548  1  0.07691100  0.29748400  0.71885900  1
  H  1550  1  0.08053600  0.34578800  0.69293500  1
  H  1552  1  0.10803400  0.27076100  0.65230100  1
  H  1559  1  0.07784500  0.70088300  0.30702800  1
  H  1561  1  0.10825900  0.64439400  0.31934900  1
  H  1563  1  0.10765200  0.66483500  0.35246100  1
  H  1564  1  0.07708800  0.68088500  0.27352400  1
  H  1566  1  0.08028100  0.63253000  0.29913700  1
  H  1568  1  0.10856900  0.70634600  0.34094900  1
  H  1575  1  0.67856900  0.90071200  0.70775800  1
  H  1577  1  0.66577200  0.87040500  0.65131500  1
  H  1579  1  0.63278100  0.87117700  0.67196100  1
  H  1580  1  0.71197100  0.90131400  0.68756200  1
  H  1582  1  0.68606600  0.89827300  0.63935400  1
  H  1584  1  0.64493000  0.87021000  0.71376900  1
  H  1591  1  0.29972900  0.90058300  0.28393400  1
  H  1593  1  0.31279100  0.87059600  0.34048500  1
  H  1595  1  0.34572800  0.87142700  0.31976300  1
  H  1596  1  0.26637100  0.90113800  0.30419300  1
  H  1598  1  0.29241600  0.89835000  0.35240200  1
  H  1600  1  0.33325800  0.87025000  0.27776000  1
  H  1607  1  0.67842000  0.07755900  0.28425700  1
  H  1609  1  0.66608200  0.10855700  0.34042500  1
  H  1611  1  0.63301800  0.10788200  0.31987500  1
  H  1612  1  0.71186400  0.07683300  0.30432400  1
  H  1614  1  0.68613900  0.08068700  0.35264400  1
  H  1616  1  0.64493400  0.10834100  0.27815300  1
  H  1623  1  0.30012800  0.07786000  0.70771500  1
  H  1625  1  0.31268100  0.10808700  0.65117500  1
  H  1627  1  0.34574900  0.10738800  0.67168300  1
  H  1628  1  0.26664900  0.07719900  0.68763900  1
  H  1630  1  0.29238700  0.08014600  0.63935200  1
  H  1632  1  0.33398900  0.10843000  0.71334200  1
  H  1639  1  0.67842700  0.70098000  0.08441200  1
  H  1641  1  0.66589100  0.64466600  0.11506500  1
  H  1643  1  0.63285300  0.66525100  0.11435500  1
  H  1644  1  0.71186000  0.68085200  0.08374000  1
  H  1646  1  0.68606000  0.63261000  0.08713900  1
  H  1648  1  0.64478100  0.70693300  0.11508000  1
  H  1655  1  0.29997100  0.27737800  0.08456300  1
  H  1657  1  0.31267100  0.33390700  0.11474800  1
  H  1659  1  0.34569800  0.31332000  0.11401900  1
  H  1660  1  0.26653300  0.29751600  0.08392300  1
  H  1662  1  0.29237100  0.34577600  0.08686200  1
  H  1664  1  0.33369700  0.27155200  0.11508200  1
  H  1671  1  0.67858700  0.27746100  0.90747700  1
  H  1673  1  0.66589900  0.33383500  0.87699600  1
  H  1675  1  0.63288600  0.31321800  0.87776600  1
  H  1676  1  0.71200400  0.29761800  0.90809400  1
  H  1678  1  0.68614700  0.34586600  0.90483700  1
  H  1680  1  0.64503800  0.27136400  0.87693000  1
  H  1687  1  0.30007500  0.70105900  0.90731300  1
  H  1689  1  0.31270900  0.64453600  0.87709000  1
  H  1691  1  0.34574900  0.66510500  0.87778900  1
  H  1692  1  0.26663000  0.68094800  0.90798500  1
  H  1694  1  0.29243500  0.63265700  0.90498100  1
  H  1696  1  0.33388500  0.70676000  0.87674000  1
  H  1703  1  0.70077500  0.90043800  0.30731500  1
  H  1705  1  0.64417500  0.87013500  0.31938100  1
  H  1707  1  0.66445300  0.87064200  0.35256500  1
  H  1708  1  0.68094700  0.90129800  0.27375700  1
  H  1710  1  0.63241500  0.89810200  0.29916800  1
  H  1712  1  0.70580800  0.86965800  0.34148800  1
  H  1719  1  0.27747800  0.90057600  0.68504700  1
  H  1721  1  0.33402200  0.87036200  0.67249100  1
  H  1723  1  0.31350700  0.87104600  0.63942600  1
  H  1724  1  0.29756700  0.90124900  0.71852300  1
  H  1726  1  0.34583100  0.89833400  0.69278300  1
  H  1728  1  0.27186900  0.86999100  0.65117700  1
  H  1735  1  0.27739900  0.07744800  0.30652300  1
  H  1737  1  0.33360800  0.10828800  0.31906700  1
  H  1739  1  0.31299700  0.10753700  0.35209100  1
  H  1740  1  0.29749700  0.07678600  0.27311900  1
  H  1742  1  0.34585000  0.08055500  0.29893200  1
  H  1744  1  0.27101800  0.10807600  0.33981100  1
  H  1751  1  0.70086200  0.07779900  0.68486400  1
  H  1753  1  0.64439800  0.10827100  0.67256900  1
  H  1755  1  0.66483100  0.10766500  0.63945400  1
  H  1756  1  0.68087000  0.07704300  0.71837000  1
  H  1758  1  0.63252000  0.08027800  0.69276800  1
  H  1760  1  0.70632400  0.10854000  0.65093700  1
  H  1767  1  0.90073800  0.67850300  0.28409800  1
  H  1769  1  0.87034500  0.66584200  0.34052600  1
  H  1771  1  0.87108200  0.63281800  0.31992900  1
  H  1772  1  0.90137700  0.71193000  0.30423200  1
  H  1774  1  0.89821900  0.68609600  0.35249800  1
  H  1776  1  0.87017900  0.64485200  0.27815100  1
  H  1783  1  0.90069500  0.29997400  0.70780600  1
  H  1785  1  0.87034200  0.31261100  0.65135300  1
  H  1787  1  0.87102800  0.34563300  0.67195700  1
  H  1788  1  0.90139500  0.26655700  0.68768600  1
  H  1790  1  0.89816700  0.29239000  0.63936400  1
  H  1792  1  0.87008900  0.33363100  0.71368900  1
  H  1799  1  0.07747800  0.67845300  0.70767300  1
  H  1801  1  0.10848200  0.66616100  0.65149800  1
  H  1803  1  0.10783100  0.63308600  0.67203900  1
  H  1804  1  0.07672100  0.71189700  0.68764400  1
  H  1806  1  0.08066200  0.68621400  0.63925700  1
  H  1808  1  0.10828800  0.64503300  0.71379800  1
  H  1815  1  0.07785700  0.30031300  0.28426500  1
  H  1817  1  0.10821500  0.31265800  0.34077900  1
  H  1819  1  0.10758200  0.34577200  0.32034800  1
  H  1820  1  0.07713000  0.26679900  0.30426600  1
  H  1822  1  0.08022300  0.29241500  0.35260300  1
  H  1824  1  0.10853200  0.33420900  0.27876200  1
  H  1831  1  0.24187800  0.97143700  0.41957000  1
  H  1833  1  0.24575700  0.00468200  0.36357300  1
  H  1835  1  0.23708700  0.96945000  0.35326000  1
  H  1836  1  0.25115800  0.00883000  0.42849200  1
  H  1838  1  0.23274300  0.03138200  0.40116700  1
  H  1840  1  0.24814100  0.94402500  0.40388400  1
  H  1847  1  0.73617500  0.00702500  0.41954800  1
  H  1849  1  0.73293300  0.97390300  0.36344000  1
  H  1851  1  0.74175900  0.00917100  0.35332200  1
  H  1852  1  0.72674100  0.96966200  0.42829500  1
  H  1854  1  0.74532200  0.94713000  0.40134600  1
  H  1856  1  0.73028400  0.03449800  0.40386800  1
  H  1863  1  0.73677400  0.97143100  0.57228400  1
  H  1865  1  0.73263000  0.00454800  0.62833300  1
  H  1867  1  0.74133200  0.96928900  0.63858400  1
  H  1868  1  0.72746100  0.00880200  0.56339000  1
  H  1870  1  0.74561600  0.03134100  0.59067100  1
  H  1872  1  0.73065800  0.94395300  0.58787700  1
  H  1879  1  0.24169900  0.00704900  0.57235100  1
  H  1881  1  0.24576600  0.97388000  0.62837600  1
  H  1883  1  0.23706800  0.00912900  0.63865300  1
  H  1884  1  0.25101100  0.96968500  0.56343600  1
  H  1886  1  0.23280200  0.94712100  0.59069700  1
  H  1888  1  0.24785200  0.03450400  0.58797600  1
  H  1895  1  0.41284900  0.24182700  0.97815400  1
  H  1897  1  0.35683800  0.24569100  0.01137500  1
  H  1899  1  0.34655000  0.23699700  0.97613400  1
  H  1900  1  0.42176300  0.25113400  0.01552500  1
  H  1902  1  0.39452400  0.23279200  0.03809700  1
  H  1904  1  0.39717600  0.24802100  0.95072800  1
  H  1911  1  0.41287100  0.73622100  0.01379300  1
  H  1913  1  0.35683500  0.73297000  0.98055000  1
  H  1915  1  0.34662100  0.74177800  0.01577500  1
  H  1916  1  0.42169300  0.72680000  0.97642800  1
  H  1918  1  0.39467700  0.74545000  0.95384600  1
  H  1920  1  0.39711900  0.73017600  0.04121500  1
  H  1927  1  0.56571900  0.73681400  0.97809500  1
  H  1929  1  0.62167900  0.73258300  0.01136000  1
  H  1931  1  0.63207000  0.74119100  0.97615400  1
  H  1932  1  0.55671700  0.72756400  0.01546200  1
  H  1934  1  0.58405700  0.74572900  0.03805400  1
  H  1936  1  0.58138800  0.73036500  0.95069700  1
  H  1943  1  0.56565600  0.24170900  0.01374000  1
  H  1945  1  0.62165400  0.24584400  0.98053000  1
  H  1947  1  0.63198400  0.23719500  0.01575900  1
  H  1948  1  0.55671200  0.25098000  0.97635600  1
  H  1950  1  0.58407500  0.23273000  0.95380300  1
  H  1952  1  0.58130300  0.24802000  0.04116700  1
  H  1959  1  0.97143300  0.41276200  0.24772400  1
  H  1961  1  0.00458700  0.35681400  0.25286100  1
  H  1963  1  0.96933800  0.34637800  0.24438900  1
  H  1964  1  0.00879900  0.42184900  0.25684000  1
  H  1966  1  0.03135800  0.39424600  0.23917800  1
  H  1968  1  0.94398800  0.39726000  0.25428900  1
  H  1975  1  0.00703000  0.41286200  0.74288600  1
  H  1977  1  0.97376800  0.35683000  0.73973000  1
  H  1979  1  0.00899300  0.34661500  0.74853200  1
  H  1980  1  0.96965800  0.42167900  0.73347600  1
  H  1982  1  0.94707800  0.39466000  0.75219500  1
  H  1984  1  0.03444000  0.39708900  0.73682800  1
  H  1991  1  0.97147400  0.56564900  0.74340900  1
  H  1993  1  0.00473100  0.62162600  0.73934500  1
  H  1995  1  0.96950900  0.63197600  0.74799700  1
  H  1996  1  0.00885000  0.55668200  0.73413800  1
  H  1998  1  0.03143100  0.58402000  0.75241400  1
  H  2000  1  0.94406600  0.58132700  0.73708800  1
  H  2007  1  0.00708200  0.56564400  0.24839700  1
  H  2009  1  0.97386500  0.62164100  0.25249600  1
  H  2011  1  0.00910000  0.63196800  0.24385900  1
  H  2012  1  0.96970300  0.55669600  0.25765600  1
  H  2014  1  0.94714200  0.58402000  0.23941900  1
  H  2016  1  0.03450700  0.58129400  0.25469800  1
  H  2023  1  0.97147800  0.24191300  0.57234700  1
  H  2025  1  0.00476600  0.24570200  0.62832600  1
  H  2027  1  0.96954300  0.23704000  0.63865800  1
  H  2028  1  0.00887500  0.25118900  0.56341500  1
  H  2030  1  0.03143600  0.23270900  0.59071700  1
  H  2032  1  0.94408400  0.24820200  0.58806600  1
  H  2039  1  0.00704500  0.73617800  0.57233100  1
  H  2041  1  0.97374500  0.73304500  0.62834400  1
  H  2043  1  0.00896100  0.74179800  0.63859200  1
  H  2044  1  0.96965700  0.72680800  0.56349700  1
  H  2046  1  0.94708600  0.74558600  0.59055400  1
  H  2048  1  0.03443000  0.73001200  0.58812800  1
  H  2055  1  0.97142200  0.73676900  0.41953500  1
  H  2057  1  0.00461500  0.73264200  0.36352800  1
  H  2059  1  0.96937600  0.74133100  0.35322300  1
  H  2060  1  0.00877400  0.72745900  0.42847900  1
  H  2062  1  0.03136200  0.74561300  0.40122500  1
  H  2064  1  0.94397800  0.73057200  0.40389900  1
  H  2071  1  0.00704700  0.24173800  0.41949300  1
  H  2073  1  0.97388300  0.24573500  0.36346100  1
  H  2075  1  0.00913900  0.23703900  0.35319800  1
  H  2076  1  0.96969100  0.25105400  0.42839800  1
  H  2078  1  0.94712600  0.23284400  0.40120500  1
  H  2080  1  0.03450400  0.24786500  0.40386800  1
  H  2087  1  0.24184700  0.41285200  0.01376500  1
  H  2089  1  0.24568600  0.35683800  0.98054600  1
  H  2091  1  0.23697400  0.34655800  0.01578700  1
  H  2092  1  0.25116900  0.42176000  0.97639700  1
  H  2094  1  0.23281800  0.39453800  0.95382200  1
  H  2096  1  0.24800800  0.39717700  0.04119500  1
  H  2103  1  0.73622100  0.41291900  0.97811500  1
  H  2105  1  0.73288500  0.35684300  0.01128100  1
  H  2107  1  0.74167800  0.34667000  0.97603500  1
  H  2108  1  0.72681900  0.42170600  0.01549300  1
  H  2110  1  0.74541000  0.39465700  0.03803200  1
  H  2112  1  0.73020800  0.39721600  0.95066500  1
  H  2119  1  0.73670000  0.56566400  0.01374500  1
  H  2121  1  0.73264000  0.62174700  0.98067200  1
  H  2123  1  0.74135500  0.63195000  0.01595000  1
  H  2124  1  0.72736700  0.55681300  0.97638000  1
  H  2126  1  0.74552800  0.58401200  0.95386200  1
  H  2128  1  0.73065900  0.58123600  0.04124100  1
  H  2135  1  0.24173400  0.56564300  0.97814900  1
  H  2137  1  0.24583800  0.62164100  0.01136400  1
  H  2139  1  0.23718600  0.63196500  0.97612800  1
  H  2140  1  0.25100000  0.55669800  0.01553100  1
  H  2142  1  0.23273900  0.58404900  0.03808700  1
  H  2144  1  0.24801300  0.58129100  0.95072100  1
  H  2151  1  0.41284300  0.97138000  0.74339700  1
  H  2153  1  0.35681900  0.00456500  0.73943800  1
  H  2155  1  0.34654300  0.96932200  0.74814100  1
  H  2156  1  0.42175100  0.00874500  0.73407900  1
  H  2158  1  0.39451100  0.03131200  0.75235000  1
  H  2160  1  0.39719700  0.94393600  0.73722800  1
  H  2167  1  0.41287800  0.00701000  0.24894900  1
  H  2169  1  0.35686600  0.97371300  0.25209600  1
  H  2171  1  0.34662700  0.00893400  0.24330800  1
  H  2172  1  0.42171400  0.96963400  0.25834500  1
  H  2174  1  0.39467200  0.94704600  0.23959100  1
  H  2176  1  0.39708800  0.03440500  0.25503500  1
  H  2183  1  0.56574500  0.97141200  0.24839400  1
  H  2185  1  0.62168800  0.00470000  0.25266300  1
  H  2187  1  0.63210000  0.96950100  0.24405300  1
  H  2188  1  0.55672500  0.00878100  0.25764400  1
  H  2190  1  0.58409000  0.03138000  0.23947500  1
  H  2192  1  0.58142300  0.94402100  0.25485500  1
  H  2199  1  0.56564500  0.00706600  0.74349500  1
  H  2201  1  0.62164900  0.97386000  0.73940000  1
  H  2203  1  0.63196900  0.00909400  0.74804600  1
  H  2204  1  0.55670700  0.96968400  0.73422800  1
  H  2206  1  0.58404500  0.94713100  0.75248000  1
  H  2208  1  0.58129100  0.03449400  0.73719700  1
  H  2215  1  0.76164800  0.47300100  0.91434000  1
  H  2217  1  0.73892200  0.50514500  0.86217600  1
  H  2219  1  0.73908500  0.46915900  0.85173700  1
  H  2220  1  0.78255600  0.50482500  0.91194800  1
  H  2222  1  0.77065900  0.52962900  0.88564600  1
  H  2224  1  0.74045700  0.44677300  0.90332000  1
  H  2231  1  0.21666800  0.50552100  0.91436300  1
  H  2233  1  0.23956300  0.47342200  0.86224700  1
  H  2235  1  0.23942400  0.50942000  0.85183600  1
  H  2236  1  0.19577200  0.47371000  0.91189400  1
  H  2238  1  0.20778800  0.44887800  0.88563300  1
  H  2240  1  0.23787300  0.53175700  0.90344900  1
  H  2247  1  0.21674700  0.47299100  0.07749200  1
  H  2249  1  0.23948800  0.50504900  0.12970000  1
  H  2251  1  0.23924900  0.46905500  0.14011100  1
  H  2252  1  0.19589300  0.50483400  0.07988100  1
  H  2254  1  0.20785000  0.52964800  0.10619900  1
  H  2256  1  0.23791500  0.44673400  0.08849700  1
  H  2263  1  0.76178100  0.50554300  0.07761300  1
  H  2265  1  0.73894300  0.47334500  0.12969300  1
  H  2267  1  0.73908800  0.50931700  0.14017400  1
  H  2268  1  0.78268100  0.47372800  0.08000100  1
  H  2270  1  0.77070000  0.44885500  0.10623600  1
  H  2272  1  0.74057400  0.53175200  0.08859700  1
  H  2279  1  0.90764400  0.76188100  0.47961500  1
  H  2281  1  0.85553500  0.73902500  0.51175300  1
  H  2283  1  0.84509800  0.73915800  0.47576900  1
  H  2284  1  0.90521100  0.78278700  0.51141500  1
  H  2286  1  0.87894000  0.77078600  0.53627900  1
  H  2288  1  0.89669800  0.74065900  0.45339100  1
  H  2295  1  0.90783200  0.21684200  0.51222800  1
  H  2297  1  0.85558500  0.23949000  0.48016800  1
  H  2299  1  0.84520100  0.23930600  0.51616700  1
  H  2300  1  0.90541200  0.19592600  0.48040900  1
  H  2302  1  0.87902400  0.20779100  0.45564500  1
  H  2304  1  0.89681200  0.23804800  0.53846900  1
  H  2311  1  0.07088800  0.21656800  0.47961300  1
  H  2313  1  0.12294300  0.23953600  0.51175500  1
  H  2315  1  0.13338900  0.23940800  0.47577000  1
  H  2316  1  0.07334200  0.19568300  0.51141900  1
  H  2318  1  0.09956600  0.20774700  0.53629800  1
  H  2320  1  0.08179500  0.23777900  0.45338800  1
  H  2327  1  0.07078800  0.76169800  0.51219600  1
  H  2329  1  0.12297600  0.73889100  0.48014900  1
  H  2331  1  0.13334900  0.73904400  0.51615600  1
  H  2332  1  0.07327000  0.78260400  0.48038300  1
  H  2334  1  0.09958400  0.77064400  0.45560000  1
  H  2336  1  0.08172500  0.74048300  0.53845100  1
  H  2343  1  0.47297600  0.90766000  0.76844700  1
  H  2345  1  0.50508200  0.85547600  0.74572100  1
  H  2347  1  0.46909700  0.84503200  0.74595900  1
  H  2348  1  0.50482100  0.90530700  0.78930200  1
  H  2350  1  0.52965500  0.87900600  0.77735800  1
  H  2352  1  0.44673200  0.89662800  0.74728500  1
  H  2359  1  0.50558200  0.90773800  0.22331700  1
  H  2361  1  0.47350200  0.85559600  0.24617700  1
  H  2363  1  0.50950000  0.84520100  0.24604800  1
  H  2364  1  0.47378700  0.90526500  0.20240900  1
  H  2366  1  0.44895500  0.87896800  0.21440500  1
  H  2368  1  0.53182700  0.89680200  0.24455200  1
  H  2375  1  0.47299000  0.07080800  0.22340600  1
  H  2377  1  0.50502600  0.12297400  0.24627700  1
  H  2379  1  0.46901700  0.13334600  0.24612000  1
  H  2380  1  0.50480400  0.07330300  0.20251500  1
  H  2382  1  0.52960500  0.09960800  0.21452400  1
  H  2384  1  0.44672800  0.08171600  0.24462100  1
  H  2391  1  0.50552000  0.07083900  0.76849100  1
  H  2393  1  0.47340100  0.12294600  0.74560200  1
  H  2395  1  0.50939400  0.13337600  0.74575800  1
  H  2396  1  0.47369700  0.07328600  0.78937400  1
  H  2398  1  0.44886600  0.09954100  0.77736500  1
  H  2400  1  0.53175500  0.08177700  0.74729600  1
  H  2407  1  0.47295900  0.76182000  0.07758300  1
  H  2409  1  0.50506100  0.73896800  0.12971600  1
  H  2411  1  0.46906600  0.73913800  0.14013700  1
  H  2412  1  0.50478300  0.78270100  0.08002000  1
  H  2414  1  0.52960900  0.77070600  0.10630500  1
  H  2416  1  0.44671300  0.74062400  0.08853300  1
  H  2423  1  0.50551000  0.21666000  0.07753600  1
  H  2425  1  0.47342300  0.23955100  0.12966100  1
  H  2427  1  0.50942200  0.23941000  0.14006500  1
  H  2428  1  0.47369900  0.19576700  0.08000800  1
  H  2430  1  0.44887000  0.20778400  0.10627000  1
  H  2432  1  0.53175100  0.23786400  0.08845000  1
  H  2439  1  0.47301100  0.21678000  0.91442700  1
  H  2441  1  0.50506100  0.23952000  0.86221300  1
  H  2443  1  0.46906300  0.23929400  0.85181400  1
  H  2444  1  0.50484800  0.19591600  0.91202600  1
  H  2446  1  0.52966000  0.20787200  0.88571200  1
  H  2448  1  0.44675200  0.23795700  0.90343000  1
  H  2455  1  0.50557000  0.76182800  0.91442700  1
  H  2457  1  0.47345600  0.73897000  0.86230400  1
  H  2459  1  0.50944700  0.73911900  0.85188000  1
  H  2460  1  0.47375900  0.78272300  0.91198300  1
  H  2462  1  0.44892600  0.77073200  0.88570300  1
  H  2464  1  0.53181000  0.74060500  0.90346400  1
  H  2471  1  0.76175000  0.90761800  0.51226000  1
  H  2473  1  0.73896700  0.85551900  0.48005300  1
  H  2475  1  0.73910800  0.84503600  0.51602400  1
  H  2476  1  0.78266100  0.90524000  0.48043700  1
  H  2478  1  0.77073700  0.87896400  0.45560200  1
  H  2480  1  0.74055400  0.89660200  0.53846700  1
  H  2487  1  0.21679300  0.90775300  0.47971200  1
  H  2489  1  0.23949000  0.85552700  0.51177100  1
  H  2491  1  0.23929100  0.84513400  0.47577300  1
  H  2492  1  0.19590100  0.90534100  0.51154000  1
  H  2494  1  0.20781800  0.87900300  0.53633400  1
  H  2496  1  0.23799500  0.89675000  0.45346700  1
  H  2503  1  0.21659500  0.07089900  0.51224500  1
  H  2505  1  0.23956600  0.12296600  0.48012300  1
  H  2507  1  0.23939100  0.13341400  0.51611200  1
  H  2508  1  0.19574300  0.07333700  0.48041600  1
  H  2510  1  0.20781500  0.09956200  0.45555100  1
  H  2512  1  0.23777300  0.08181500  0.53848800  1
  H  2519  1  0.76170000  0.07090400  0.47970800  1
  H  2521  1  0.73889700  0.12304600  0.51183100  1
  H  2523  1  0.73905000  0.13347400  0.47584000  1
  H  2524  1  0.78260400  0.07333200  0.51152200  1
  H  2526  1  0.77063900  0.09959700  0.53635300  1
  H  2528  1  0.74049200  0.08186700  0.45347900  1
  H  2535  1  0.90768300  0.47292700  0.22346800  1
  H  2537  1  0.85551300  0.50506700  0.24618000  1
  H  2539  1  0.84504900  0.46909100  0.24595300  1
  H  2540  1  0.90535100  0.50476300  0.20260300  1
  H  2542  1  0.87906100  0.52961700  0.21453600  1
  H  2544  1  0.89663500  0.44669900  0.24463400  1
  H  2551  1  0.90774000  0.50552200  0.76850700  1
  H  2553  1  0.85557500  0.47346000  0.74567100  1
  H  2555  1  0.84519700  0.50946000  0.74578900  1
  H  2556  1  0.90524400  0.47372900  0.78943200  1
  H  2558  1  0.87893500  0.44891400  0.77744400  1
  H  2560  1  0.89682300  0.53176400  0.74726800  1
  H  2567  1  0.07083000  0.47299800  0.76849100  1
  H  2569  1  0.12299300  0.50503400  0.74561600  1
  H  2571  1  0.13336800  0.46902700  0.74577500  1
  H  2572  1  0.07331800  0.50481200  0.78937600  1
  H  2574  1  0.09960100  0.52962500  0.77735500  1
  H  2576  1  0.08173700  0.44673400  0.74728200  1
  H  2583  1  0.07085100  0.50554500  0.22342200  1
  H  2585  1  0.12296800  0.47342500  0.24628600  1
  H  2587  1  0.13339700  0.50941600  0.24613800  1
  H  2588  1  0.07329700  0.47372400  0.20252900  1
  H  2590  1  0.09955800  0.44890100  0.21452100  1
  H  2592  1  0.08179700  0.53177700  0.24461500  1
  C  1  1  0.24456700  0.08529800  0.38664400  1
  C  2  1  0.24269000  0.06661800  0.38994900  1
  C  3  1  0.25068800  0.05362100  0.37859000  1
  C  4  1  0.26082100  0.05960400  0.36371800  1
  C  5  1  0.26273800  0.07808500  0.35981800  1
  C  6  1  0.25448800  0.09084700  0.37133100  1
  C  10  1  0.23675200  0.09797100  0.39880600  1
  C  11  1  0.23948400  0.09618400  0.41761800  1
  C  12  1  0.23035100  0.10725800  0.43002600  1
  C  13  1  0.21876800  0.12081500  0.42348700  1
  C  14  1  0.21622000  0.12324800  0.40484000  1
  C  15  1  0.22507600  0.11171700  0.39258800  1
  C  23  1  0.73435900  0.89319200  0.38651000  1
  C  24  1  0.73623700  0.91189300  0.38968300  1
  C  25  1  0.72822400  0.92481300  0.37824100  1
  C  26  1  0.71810500  0.91871000  0.36340200  1
  C  27  1  0.71610300  0.90019300  0.35969200  1
  C  28  1  0.72437300  0.88752600  0.37128900  1
  C  32  1  0.74214300  0.88058400  0.39874700  1
  C  33  1  0.73933000  0.88242100  0.41753800  1
  C  34  1  0.74831800  0.87129000  0.43000000  1
  C  35  1  0.75986900  0.85766900  0.42353800  1
  C  36  1  0.76250800  0.85521300  0.40490800  1
  C  37  1  0.75377400  0.86677200  0.39260000  1
  C  45  1  0.73421600  0.08524500  0.60535000  1
  C  46  1  0.73608300  0.06655700  0.60210500  1
  C  47  1  0.72809000  0.05360000  0.61351600  1
  C  48  1  0.71798500  0.05964800  0.62838700  1
  C  49  1  0.71601300  0.07815000  0.63218200  1
  C  50  1  0.72426500  0.09085800  0.62061500  1
  C  54  1  0.74200500  0.09789200  0.59315500  1
  C  55  1  0.73918600  0.09612100  0.57435700  1
  C  56  1  0.74819000  0.10727900  0.56192700  1
  C  57  1  0.75974800  0.12087300  0.56843300  1
  C  58  1  0.76241200  0.12324500  0.58707300  1
  C  59  1  0.75367700  0.11165000  0.59934200  1
  C  67  1  0.24426100  0.89320200  0.60534000  1
  C  68  1  0.24238100  0.91189100  0.60209900  1
  C  69  1  0.25035700  0.92485100  0.61351800  1
  C  70  1  0.26046400  0.91880900  0.62838800  1
  C  71  1  0.26242700  0.90030800  0.63219400  1
  C  72  1  0.25419500  0.88759500  0.62061800  1
  C  76  1  0.23649200  0.88055400  0.59312800  1
  C  77  1  0.23930300  0.88235700  0.57433100  1
  C  78  1  0.23027400  0.87124000  0.56188400  1
  C  79  1  0.21871200  0.85763900  0.56836900  1
  C  80  1  0.21608400  0.85520500  0.58700600  1
  C  81  1  0.22483100  0.86677400  0.59929400  1
  C  89  1  0.37989200  0.24434700  0.09201800  1
  C  90  1  0.38315800  0.24247100  0.07333300  1
  C  91  1  0.37176200  0.25045500  0.06035900  1
  C  92  1  0.35688800  0.26056800  0.06637800  1
  C  93  1  0.35305000  0.26251900  0.08487100  1
  C  94  1  0.36459900  0.25427600  0.09760300  1
  C  98  1  0.39208300  0.23656100  0.10467500  1
  C  99  1  0.41088700  0.23934100  0.10287900  1
  C  100  1  0.42331800  0.23027100  0.11397800  1
  C  101  1  0.41681300  0.21869800  0.12755900  1
  C  102  1  0.39817200  0.21609500  0.12998900  1
  C  103  1  0.38589800  0.22489100  0.11843800  1
  C  111  1  0.37992000  0.73414200  0.89990900  1
  C  112  1  0.38316800  0.73600700  0.91859900  1
  C  113  1  0.37176200  0.72801400  0.93155900  1
  C  114  1  0.35688500  0.71791600  0.92551900  1
  C  115  1  0.35306600  0.71597400  0.90702100  1
  C  116  1  0.36463600  0.72421200  0.89430400  1
  C  120  1  0.39212300  0.74194200  0.88726900  1
  C  121  1  0.41092600  0.73918000  0.88909300  1
  C  122  1  0.42336500  0.74825200  0.87800600  1
  C  123  1  0.41687100  0.75983300  0.86442700  1
  C  124  1  0.39823400  0.76241200  0.86196300  1
  C  125  1  0.38594700  0.75359600  0.87348800  1
  C  133  1  0.59857600  0.73408300  0.09198300  1
  C  134  1  0.59530900  0.73594100  0.07329600  1
  C  135  1  0.60670600  0.72794500  0.06033000  1
  C  136  1  0.62158200  0.71784100  0.06635700  1
  C  137  1  0.62542200  0.71590900  0.08485200  1
  C  138  1  0.61386700  0.72415600  0.09757600  1
  C  142  1  0.58639700  0.74189800  0.10463400  1
  C  143  1  0.56759100  0.73913400  0.10284800  1
  C  144  1  0.55517200  0.74821000  0.11395800  1
  C  145  1  0.56169400  0.75979000  0.12752500  1
  C  146  1  0.58033900  0.76239000  0.12992900  1
  C  147  1  0.59260000  0.75357700  0.11838100  1
  C  155  1  0.59858800  0.24448300  0.89988800  1
  C  156  1  0.59530900  0.24260500  0.91857200  1
  C  157  1  0.60669500  0.25058800  0.93155400  1
  C  158  1  0.62156700  0.26071200  0.92554900  1
  C  159  1  0.62543300  0.26264000  0.90705800  1
  C  160  1  0.61388900  0.25440600  0.89431600  1
  C  164  1  0.58640800  0.23668900  0.88722500  1
  C  165  1  0.56760300  0.23945900  0.88901400  1
  C  166  1  0.55518000  0.23036700  0.87792400  1
  C  167  1  0.56169400  0.21878400  0.86435700  1
  C  168  1  0.58033800  0.21620000  0.86192500  1
  C  169  1  0.59260500  0.22501000  0.87347200  1
  C  177  1  0.08527400  0.37989400  0.25098600  1
  C  178  1  0.06658500  0.38312400  0.24909400  1
  C  179  1  0.05362700  0.37169700  0.25706400  1
  C  180  1  0.05967300  0.35684100  0.26718700  1
  C  181  1  0.07817500  0.35305600  0.26917800  1
  C  182  1  0.09088500  0.36462600  0.26093300  1
  C  186  1  0.09792200  0.39210000  0.24321400  1
  C  187  1  0.09612400  0.41089900  0.24601700  1
  C  188  1  0.10724900  0.42333600  0.23698800  1
  C  189  1  0.12084700  0.41684500  0.22542600  1
  C  190  1  0.12327000  0.39820800  0.22279900  1
  C  191  1  0.11170200  0.38592700  0.23155700  1
  C  199  1  0.89314400  0.37991300  0.74080000  1
  C  200  1  0.91183200  0.38317800  0.74267000  1
  C  201  1  0.92480400  0.37178500  0.73467900  1
  C  202  1  0.91878100  0.35690600  0.72457600  1
  C  203  1  0.90028800  0.35306200  0.72264100  1
  C  204  1  0.88755700  0.36461900  0.73087500  1
  C  208  1  0.88049600  0.39210800  0.74860300  1
  C  209  1  0.88232300  0.41091400  0.74585300  1
  C  210  1  0.87125100  0.42335100  0.75494600  1
  C  211  1  0.85767900  0.41685200  0.76653400  1
  C  212  1  0.85520800  0.39821200  0.76909800  1
  C  213  1  0.86672100  0.38592800  0.76026100  1
  C  221  1  0.08534400  0.59855500  0.74066600  1
  C  222  1  0.06666200  0.59526200  0.74253200  1
  C  223  1  0.05367700  0.60663600  0.73453800  1
  C  224  1  0.05967600  0.62151700  0.72442500  1
  C  225  1  0.07816300  0.62539400  0.72250100  1
  C  226  1  0.09091000  0.61385800  0.73074300  1
  C  230  1  0.09800700  0.58638800  0.74848500  1
  C  231  1  0.09622300  0.56757900  0.74573600  1
  C  232  1  0.10730900  0.55516400  0.75484400  1
  C  233  1  0.12085800  0.56169400  0.76644200  1
  C  234  1  0.12326900  0.58034100  0.76902200  1
  C  235  1  0.11174000  0.59259800  0.76017800  1
  C  243  1  0.89321800  0.59857400  0.25107600  1
  C  244  1  0.91190500  0.59530800  0.24919800  1
  C  245  1  0.92487900  0.60671000  0.25717000  1
  C  246  1  0.91886200  0.62158800  0.26727700  1
  C  247  1  0.90037000  0.62543600  0.26921500  1
  C  248  1  0.88763500  0.61387500  0.26099300  1
  C  252  1  0.88055800  0.58638000  0.24329900  1
  C  253  1  0.88236400  0.56757700  0.24607700  1
  C  254  1  0.87126400  0.55514400  0.23701200  1
  C  255  1  0.85767700  0.56164200  0.22544300  1
  C  256  1  0.85522900  0.58028000  0.22285500  1
  C  257  1  0.86677800  0.59256000  0.23164300  1
  C  265  1  0.08536500  0.24456000  0.60523100  1
  C  266  1  0.06668500  0.24267700  0.60192400  1
  C  267  1  0.05368400  0.25069600  0.61326300  1
  C  268  1  0.05966100  0.26085200  0.62812000  1
  C  269  1  0.07814000  0.26275800  0.63203400  1
  C  270  1  0.09090900  0.25449500  0.62053700  1
  C  274  1  0.09803600  0.23673600  0.59306900  1
  C  275  1  0.09622800  0.23944700  0.57425600  1
  C  276  1  0.10726300  0.23027700  0.56184100  1
  C  277  1  0.12080100  0.21867000  0.56837300  1
  C  278  1  0.12327000  0.21615100  0.58701900  1
  C  279  1  0.11178200  0.22505500  0.59928000  1
  C  287  1  0.89314500  0.73405200  0.60524900  1
  C  288  1  0.91182900  0.73592200  0.60196200  1
  C  289  1  0.92481500  0.72791300  0.61332700  1
  C  290  1  0.91881500  0.71779100  0.62819800  1
  C  291  1  0.90032900  0.71587900  0.63208200  1
  C  292  1  0.88758000  0.72412400  0.62055200  1
  C  296  1  0.88048700  0.74187100  0.59307200  1
  C  297  1  0.88231100  0.73914700  0.57426100  1
  C  298  1  0.87125200  0.74827500  0.56183600  1
  C  299  1  0.85769600  0.75986900  0.56835300  1
  C  300  1  0.85521900  0.76240200  0.58699500  1
  C  301  1  0.86671800  0.75353000  0.59926700  1
  C  309  1  0.08527700  0.73418800  0.38658200  1
  C  310  1  0.06658700  0.73606000  0.38981900  1
  C  311  1  0.05363400  0.72807300  0.37839900  1
  C  312  1  0.05968500  0.71797000  0.36352800  1
  C  313  1  0.07818800  0.71599500  0.35974200  1
  C  314  1  0.09089300  0.72423900  0.37131800  1
  C  318  1  0.09791700  0.74197400  0.39878600  1
  C  319  1  0.09612600  0.73916700  0.41758500  1
  C  320  1  0.10726000  0.74818600  0.43002300  1
  C  321  1  0.12085200  0.75975200  0.42352800  1
  C  322  1  0.12325100  0.76240200  0.40488900  1
  C  323  1  0.11168000  0.75364700  0.39260900  1
  C  331  1  0.89319000  0.24415400  0.38655100  1
  C  332  1  0.91188600  0.24225900  0.38974500  1
  C  333  1  0.92482400  0.25023400  0.37829900  1
  C  334  1  0.91875000  0.26034800  0.36344500  1
  C  335  1  0.90024000  0.26234200  0.35969900  1
  C  336  1  0.88755000  0.25410900  0.37130000  1
  C  340  1  0.88056200  0.23640300  0.39879400  1
  C  341  1  0.88240800  0.23922400  0.41758500  1
  C  342  1  0.87130000  0.23022200  0.43005900  1
  C  343  1  0.85767500  0.21866800  0.42361100  1
  C  344  1  0.85519700  0.21603700  0.40498200  1
  C  345  1  0.86674800  0.22476700  0.39266300  1
  C  353  1  0.24434200  0.37989000  0.89990200  1
  C  354  1  0.24246500  0.38315300  0.91858700  1
  C  355  1  0.25045000  0.37175500  0.93155900  1
  C  356  1  0.26056000  0.35688000  0.92553600  1
  C  357  1  0.26251200  0.35304700  0.90704200  1
  C  358  1  0.25426900  0.36459900  0.89431400  1
  C  362  1  0.23655700  0.39208400  0.88724600  1
  C  363  1  0.23933800  0.41088700  0.88904200  1
  C  364  1  0.23027400  0.42332000  0.87794000  1
  C  365  1  0.21870300  0.41681500  0.86435500  1
  C  366  1  0.21609900  0.39817600  0.86192700  1
  C  367  1  0.22488800  0.38590100  0.87348100  1
  C  375  1  0.73418100  0.37985000  0.09195300  1
  C  376  1  0.73603800  0.38309800  0.07326400  1
  C  377  1  0.72804100  0.37169100  0.06030700  1
  C  378  1  0.71794700  0.35681200  0.06635300  1
  C  379  1  0.71599900  0.35300200  0.08485400  1
  C  380  1  0.72424700  0.36457200  0.09756400  1
  C  384  1  0.74198000  0.39204800  0.10459500  1
  C  385  1  0.73919600  0.41084900  0.10279500  1
  C  386  1  0.74823800  0.42328100  0.11391700  1
  C  387  1  0.75980700  0.41677800  0.12750300  1
  C  388  1  0.76241600  0.39813900  0.12992900  1
  C  389  1  0.75363600  0.38586300  0.11836900  1
  C  397  1  0.73436600  0.59870000  0.89994000  1
  C  398  1  0.73624900  0.59552700  0.91863700  1
  C  399  1  0.72822800  0.60696300  0.93155800  1
  C  400  1  0.71809000  0.62179000  0.92545400  1
  C  401  1  0.71607100  0.62549100  0.90693700  1
  C  402  1  0.72435500  0.61390300  0.89427200  1
  C  406  1  0.74214700  0.58647300  0.88732600  1
  C  407  1  0.73930300  0.56768200  0.88912700  1
  C  408  1  0.74825400  0.55523000  0.87795500  1
  C  409  1  0.75979400  0.56170100  0.86432800  1
  C  410  1  0.76248600  0.58033200  0.86193500  1
  C  411  1  0.75379700  0.59262900  0.87353500  1
  C  419  1  0.24447400  0.59857600  0.09200400  1
  C  420  1  0.24260000  0.59529400  0.07332100  1
  C  421  1  0.25057800  0.60668400  0.06033900  1
  C  422  1  0.26069200  0.62156100  0.06634500  1
  C  423  1  0.26261800  0.62543000  0.08483400  1
  C  424  1  0.25439000  0.61388100  0.09757700  1
  C  428  1  0.23667800  0.58639600  0.10466900  1
  C  429  1  0.23944500  0.56758900  0.10287900  1
  C  430  1  0.23035200  0.55516600  0.11397000  1
  C  431  1  0.21877200  0.56168300  0.12753900  1
  C  432  1  0.21619300  0.58032700  0.12997100  1
  C  433  1  0.22500400  0.59259200  0.11842400  1
  C  441  1  0.37987100  0.08523000  0.74087800  1
  C  442  1  0.38311800  0.06654200  0.74275400  1
  C  443  1  0.37170400  0.05358100  0.73477200  1
  C  444  1  0.35683100  0.05962000  0.72466600  1
  C  445  1  0.35302500  0.07811900  0.72269900  1
  C  446  1  0.36459100  0.09083500  0.73094500  1
  C  450  1  0.39207200  0.09787900  0.74865800  1
  C  451  1  0.41087200  0.09609100  0.74585800  1
  C  452  1  0.42330400  0.10722000  0.75489000  1
  C  453  1  0.41680300  0.12081800  0.76644400  1
  C  454  1  0.39816400  0.12322700  0.76907600  1
  C  455  1  0.38589000  0.11164800  0.76032200  1
  C  463  1  0.37996700  0.89310500  0.25111500  1
  C  464  1  0.38324100  0.91179000  0.24922700  1
  C  465  1  0.37187800  0.92477600  0.25723700  1
  C  466  1  0.35701600  0.91877400  0.26737400  1
  C  467  1  0.35314400  0.90028800  0.26930300  1
  C  468  1  0.36467500  0.88753800  0.26105900  1
  C  472  1  0.39215400  0.88045100  0.24330800  1
  C  473  1  0.41096200  0.88229100  0.24603300  1
  C  474  1  0.42340000  0.87124700  0.23690600  1
  C  475  1  0.41689900  0.85768900  0.22530400  1
  C  476  1  0.39825900  0.85519000  0.22277200  1
  C  477  1  0.38597200  0.86667200  0.23165000  1
  C  485  1  0.59856100  0.08531100  0.25120400  1
  C  486  1  0.59528500  0.06662400  0.24934900  1
  C  487  1  0.60667400  0.05365400  0.25734600  1
  C  488  1  0.62154900  0.05967500  0.26745500  1
  C  489  1  0.62540500  0.07816700  0.26937500  1
  C  490  1  0.61385700  0.09089700  0.26112700  1
  C  494  1  0.58638600  0.09796300  0.24337900  1
  C  495  1  0.56757900  0.09617400  0.24613200  1
  C  496  1  0.55516000  0.10726500  0.23703500  1
  C  497  1  0.56168600  0.12082200  0.22544400  1
  C  498  1  0.58033100  0.12323500  0.22285700  1
  C  499  1  0.59259200  0.11170300  0.23169200  1
  C  507  1  0.59859400  0.89321500  0.74078800  1
  C  508  1  0.59532100  0.91189900  0.74266800  1
  C  509  1  0.60671400  0.92487800  0.73468900  1
  C  510  1  0.62158800  0.91886700  0.72457200  1
  C  511  1  0.62544400  0.90037600  0.72263500  1
  C  512  1  0.61389200  0.88763800  0.73086400  1
  C  516  1  0.58641100  0.88055300  0.74857600  1
  C  517  1  0.56760500  0.88233900  0.74579800  1
  C  518  1  0.55518100  0.87123400  0.75487200  1
  C  519  1  0.56169600  0.85765800  0.76644600  1
  C  520  1  0.58033800  0.85523300  0.76903700  1
  C  521  1  0.59260500  0.86679300  0.76024500  1
  C  529  1  0.73756400  0.89083400  0.60604800  1
  C  530  1  0.73915300  0.90969300  0.60355900  1
  C  531  1  0.73132800  0.92204400  0.61572400  1
  C  532  1  0.72207200  0.91538900  0.63084900  1
  C  533  1  0.71997200  0.89670700  0.63357500  1
  C  534  1  0.72796800  0.88456200  0.62132900  1
  C  538  1  0.74528200  0.87864500  0.59325500  1
  C  539  1  0.74326800  0.88166300  0.57450100  1
  C  540  1  0.75125600  0.87014000  0.56163500  1
  C  541  1  0.76126300  0.85525000  0.56774800  1
  C  542  1  0.76362700  0.85183800  0.58625600  1
  C  543  1  0.75553100  0.86356100  0.59889500  1
  C  551  1  0.24085400  0.08760800  0.60610600  1
  C  552  1  0.23925700  0.06874800  0.60363500  1
  C  553  1  0.24708800  0.05640500  0.61580600  1
  C  554  1  0.25637400  0.06307100  0.63090900  1
  C  555  1  0.25847700  0.08175400  0.63362100  1
  C  556  1  0.25047700  0.09389000  0.62136600  1
  C  560  1  0.23312400  0.09978600  0.59331100  1
  C  561  1  0.23513500  0.09676700  0.57455500  1
  C  562  1  0.22714700  0.10829100  0.56168900  1
  C  563  1  0.21714100  0.12318100  0.56780600  1
  C  564  1  0.21478300  0.12659600  0.58631400  1
  C  565  1  0.22287900  0.11487400  0.59895200  1
  C  573  1  0.24095000  0.89095600  0.38579600  1
  C  574  1  0.23935300  0.90981700  0.38825700  1
  C  575  1  0.24715600  0.92215200  0.37606200  1
  C  576  1  0.25641200  0.91548200  0.36094200  1
  C  577  1  0.25851900  0.89679800  0.35824300  1
  C  578  1  0.25054700  0.88466800  0.37052200  1
  C  582  1  0.23322400  0.87879300  0.39860700  1
  C  583  1  0.23521500  0.88184300  0.41736200  1
  C  584  1  0.22721700  0.87033400  0.43023400  1
  C  585  1  0.21722000  0.85543500  0.42413100  1
  C  586  1  0.21488700  0.85199400  0.40562700  1
  C  587  1  0.22298700  0.86369600  0.39297700  1
  C  595  1  0.73756400  0.08761700  0.38582700  1
  C  596  1  0.73914100  0.06875300  0.38829900  1
  C  597  1  0.73137300  0.05641900  0.37607600  1
  C  598  1  0.72217700  0.06309300  0.36092200  1
  C  599  1  0.72008000  0.08177500  0.35822300  1
  C  600  1  0.72801400  0.09390600  0.37052300  1
  C  604  1  0.74526200  0.09979700  0.39864200  1
  C  605  1  0.74324600  0.09676700  0.41739700  1
  C  606  1  0.75120100  0.10830700  0.43026900  1
  C  607  1  0.76118300  0.12321700  0.42416600  1
  C  608  1  0.76354900  0.12663800  0.40566200  1
  C  609  1  0.75548800  0.11490300  0.39301600  1
  C  617  1  0.59943500  0.73764900  0.89763400  1
  C  618  1  0.59701100  0.73927800  0.91649700  1
  C  619  1  0.60919100  0.73143300  0.92881800  1
  C  620  1  0.62426900  0.72211900  0.92213500  1
  C  621  1  0.62692200  0.71998000  0.90344900  1
  C  622  1  0.61466200  0.72799100  0.89132800  1
  C  626  1  0.58662500  0.74537200  0.88547600  1
  C  627  1  0.56787300  0.74336900  0.88852900  1
  C  628  1  0.55499600  0.75134100  0.87701100  1
  C  629  1  0.56109000  0.76133100  0.86210300  1
  C  630  1  0.57959300  0.76368700  0.85866600  1
  C  631  1  0.59224800  0.75560200  0.87037300  1
  C  639  1  0.59939700  0.24087400  0.09425000  1
  C  640  1  0.59693900  0.23927500  0.07538900  1
  C  641  1  0.60912400  0.24709900  0.06305500  1
  C  642  1  0.62422800  0.25637600  0.06972900  1
  C  643  1  0.62692900  0.25847600  0.08841300  1
  C  644  1  0.61465900  0.25048900  0.10054200  1
  C  648  1  0.58659200  0.23314800  0.10641700  1
  C  649  1  0.56783800  0.23516400  0.10338400  1
  C  650  1  0.55496500  0.22718100  0.11490300  1
  C  651  1  0.56107000  0.21717600  0.12979700  1
  C  652  1  0.57957500  0.21481800  0.13322300  1
  C  653  1  0.59222400  0.22290800  0.12151100  1
  C  661  1  0.37908800  0.24089400  0.89764800  1
  C  662  1  0.38154600  0.23929100  0.91650900  1
  C  663  1  0.36935200  0.24709400  0.92884500  1
  C  664  1  0.35423800  0.25635700  0.92217600  1
  C  665  1  0.35154200  0.25847200  0.90349200  1
  C  666  1  0.36381900  0.25050000  0.89136200  1
  C  670  1  0.39189700  0.23317700  0.88548000  1
  C  671  1  0.41065200  0.23517600  0.88852400  1
  C  672  1  0.42352600  0.22719000  0.87700800  1
  C  673  1  0.41742300  0.21719800  0.86210400  1
  C  674  1  0.39891900  0.21485600  0.85866900  1
  C  675  1  0.38626900  0.22294500  0.87037800  1
  C  683  1  0.37906500  0.73765700  0.09428900  1
  C  684  1  0.38153700  0.73924600  0.07542700  1
  C  685  1  0.36932300  0.73147300  0.06309000  1
  C  686  1  0.35417800  0.72225800  0.06975500  1
  C  687  1  0.35148000  0.72014100  0.08843600  1
  C  688  1  0.36376900  0.72808800  0.10057200  1
  C  692  1  0.39187600  0.74535900  0.10647100  1
  C  693  1  0.41063200  0.74335000  0.10344300  1
  C  694  1  0.42350200  0.75131200  0.11498100  1
  C  695  1  0.41739300  0.76129600  0.12988800  1
  C  696  1  0.39888800  0.76365900  0.13330800  1
  C  697  1  0.38624600  0.75558800  0.12157400  1
  C  705  1  0.89100300  0.59943400  0.74425200  1
  C  706  1  0.90986200  0.59696800  0.74585100  1
  C  707  1  0.92220200  0.60916400  0.73805800  1
  C  708  1  0.91553800  0.62430500  0.72883300  1
  C  709  1  0.89685500  0.62701400  0.72673300  1
  C  710  1  0.88471900  0.61472800  0.73468600  1
  C  714  1  0.87883500  0.58661800  0.75195900  1
  C  715  1  0.88188600  0.56786300  0.74996100  1
  C  716  1  0.87037000  0.55498700  0.75794600  1
  C  717  1  0.85546400  0.56108600  0.76793200  1
  C  718  1  0.85202700  0.57958800  0.77027600  1
  C  719  1  0.86373300  0.59224200  0.76219000  1
  C  727  1  0.08759000  0.59940000  0.24758200  1
  C  728  1  0.06873000  0.59694200  0.24597200  1
  C  729  1  0.05639200  0.60911800  0.25380000  1
  C  730  1  0.06306100  0.62421600  0.26309200  1
  C  731  1  0.08174400  0.62691400  0.26520400  1
  C  732  1  0.09387800  0.61465300  0.25721200  1
  C  736  1  0.09976100  0.58659800  0.23986000  1
  C  737  1  0.09673200  0.56784500  0.24188500  1
  C  738  1  0.10825200  0.55497000  0.23390500  1
  C  739  1  0.12314400  0.56107400  0.22389600  1
  C  740  1  0.12656800  0.57957700  0.22153300  1
  C  741  1  0.11485300  0.59222800  0.22961900  1
  C  749  1  0.89085900  0.37909700  0.24764000  1
  C  750  1  0.90971700  0.38156400  0.24602200  1
  C  751  1  0.92206700  0.36941000  0.25387000  1
  C  752  1  0.91540500  0.35433300  0.26320100  1
  C  753  1  0.89672200  0.35162800  0.26532400  1
  C  754  1  0.88458200  0.36386200  0.25730100  1
  C  758  1  0.87868200  0.39188400  0.23990200  1
  C  759  1  0.88171300  0.41064000  0.24189200  1
  C  760  1  0.87019600  0.42350200  0.23388700  1
  C  761  1  0.85530300  0.41738400  0.22389000  1
  C  762  1  0.85187700  0.39887500  0.22156100  1
  C  763  1  0.86358800  0.38623800  0.22967000  1
  C  771  1  0.08750500  0.37904900  0.74433400  1
  C  772  1  0.06864300  0.38151900  0.74592400  1
  C  773  1  0.05630600  0.36929400  0.73817100  1
  C  774  1  0.06297000  0.35413500  0.72897900  1
  C  775  1  0.08165000  0.35143300  0.72686700  1
  C  776  1  0.09378700  0.36373800  0.73479000  1
  C  780  1  0.09968200  0.39187000  0.75202600  1
  C  781  1  0.09664400  0.41062600  0.75001400  1
  C  782  1  0.10817900  0.42350200  0.75796900  1
  C  783  1  0.12309200  0.41740200  0.76794800  1
  C  784  1  0.12651900  0.39890000  0.77031200  1
  C  785  1  0.11479100  0.38624800  0.76225200  1
  C  793  1  0.89089000  0.73758200  0.38576400  1
  C  794  1  0.90974900  0.73918200  0.38823500  1
  C  795  1  0.92209400  0.73137000  0.37605500  1
  C  796  1  0.91543300  0.72211900  0.36092900  1
  C  797  1  0.89675000  0.72001200  0.35821800  1
  C  798  1  0.88461200  0.72799100  0.37048300  1
  C  802  1  0.87871300  0.74529700  0.39856600  1
  C  803  1  0.88174800  0.74330600  0.41732300  1
  C  804  1  0.87022600  0.75129500  0.43018900  1
  C  805  1  0.85532400  0.76128300  0.42407600  1
  C  806  1  0.85189900  0.76362300  0.40556900  1
  C  807  1  0.86361600  0.75552800  0.39292800  1
  C  815  1  0.08761200  0.24085800  0.38576200  1
  C  816  1  0.06875100  0.23925500  0.38822200  1
  C  817  1  0.05641200  0.24708700  0.37604700  1
  C  818  1  0.06308500  0.25638200  0.36095200  1
  C  819  1  0.08176800  0.25849100  0.35825300  1
  C  820  1  0.09390000  0.25048900  0.37051100  1
  C  824  1  0.09978700  0.23313100  0.39856200  1
  C  825  1  0.09675600  0.23514100  0.41731800  1
  C  826  1  0.10828100  0.22716200  0.43018900  1
  C  827  1  0.12318200  0.21716900  0.42408000  1
  C  828  1  0.12660800  0.21481700  0.40557500  1
  C  829  1  0.11488800  0.22290200  0.39293000  1
  C  837  1  0.89103300  0.24090200  0.60613900  1
  C  838  1  0.90989300  0.23930500  0.60368400  1
  C  839  1  0.92222500  0.24710400  0.61588400  1
  C  840  1  0.91555200  0.25635600  0.63100500  1
  C  841  1  0.89686800  0.25846000  0.63369900  1
  C  842  1  0.88474000  0.25049700  0.62141200  1
  C  846  1  0.87886900  0.23318900  0.59332300  1
  C  847  1  0.88192100  0.23519500  0.57457100  1
  C  848  1  0.87040800  0.22721400  0.56169200  1
  C  849  1  0.85550300  0.21722100  0.56778600  1
  C  850  1  0.85205900  0.21487600  0.58628700  1
  C  851  1  0.86376400  0.22295900  0.59894500  1
  C  859  1  0.08748100  0.73763400  0.60613500  1
  C  860  1  0.06862000  0.73923600  0.60367700  1
  C  861  1  0.05628800  0.73148600  0.61591000  1
  C  862  1  0.06295600  0.72229000  0.63106600  1
  C  863  1  0.08163700  0.72017000  0.63375100  1
  C  864  1  0.09377000  0.72808300  0.62143900  1
  C  868  1  0.09965500  0.74531800  0.59330900  1
  C  869  1  0.09661300  0.74329400  0.57455700  1
  C  870  1  0.10814900  0.75123800  0.56167400  1
  C  871  1  0.12306300  0.76122100  0.56776600  1
  C  872  1  0.12649300  0.76359400  0.58626500  1
  C  873  1  0.11476600  0.75554300  0.59892400  1
  C  881  1  0.73754900  0.59935700  0.09438600  1
  C  882  1  0.73913000  0.59688000  0.07552400  1
  C  883  1  0.73131500  0.60906200  0.06318000  1
  C  884  1  0.72207300  0.62419100  0.06985000  1
  C  885  1  0.71998100  0.62690500  0.08853200  1
  C  886  1  0.72796700  0.61464300  0.10066800  1
  C  890  1  0.74526700  0.58655700  0.10656800  1
  C  891  1  0.74325700  0.56780200  0.10354200  1
  C  892  1  0.75123600  0.55493200  0.11506900  1
  C  893  1  0.76123200  0.56104300  0.12996800  1
  C  894  1  0.76359300  0.57954800  0.13338500  1
  C  895  1  0.75550600  0.59219100  0.12166200  1
  C  903  1  0.24091600  0.59940000  0.89763900  1
  C  904  1  0.23931900  0.59693900  0.91649900  1
  C  905  1  0.24714300  0.60911800  0.92883600  1
  C  906  1  0.25642200  0.62422400  0.92216400  1
  C  907  1  0.25851900  0.62693000  0.90348000  1
  C  908  1  0.25052800  0.61466500  0.89134900  1
  C  912  1  0.23318600  0.58659600  0.88547100  1
  C  913  1  0.23519700  0.56784200  0.88850400  1
  C  914  1  0.22720700  0.55497000  0.87698800  1
  C  915  1  0.21720100  0.56107600  0.86209600  1
  C  916  1  0.21484800  0.57958100  0.85866900  1
  C  917  1  0.22294300  0.59222900  0.87038000  1
  C  925  1  0.24087700  0.37907900  0.09427300  1
  C  926  1  0.23927800  0.38154100  0.07541300  1
  C  927  1  0.24708600  0.36935100  0.06307500  1
  C  928  1  0.25635200  0.35423700  0.06974500  1
  C  929  1  0.25846400  0.35153800  0.08842800  1
  C  930  1  0.25048500  0.36381000  0.10056000  1
  C  934  1  0.23315200  0.39188400  0.10644300  1
  C  935  1  0.23514700  0.41063900  0.10340300  1
  C  936  1  0.22715500  0.42350900  0.11492000  1
  C  937  1  0.21716200  0.41740000  0.12981900  1
  C  938  1  0.21482200  0.39889500  0.13325100  1
  C  939  1  0.22292000  0.38625000  0.12154000  1
  C  947  1  0.73759500  0.37914900  0.89757200  1
  C  948  1  0.73917300  0.38162400  0.91643300  1
  C  949  1  0.73138600  0.36941800  0.92876900  1
  C  950  1  0.72216600  0.35427700  0.92209800  1
  C  951  1  0.72005900  0.35157800  0.90341600  1
  C  952  1  0.72802500  0.36385800  0.89128300  1
  C  956  1  0.74530300  0.39195800  0.88539700  1
  C  957  1  0.74327100  0.41071200  0.88841900  1
  C  958  1  0.75124700  0.42358700  0.87689700  1
  C  959  1  0.76126800  0.41748400  0.86201200  1
  C  960  1  0.76364600  0.39898100  0.85859500  1
  C  961  1  0.75556300  0.38633200  0.87031400  1
  C  969  1  0.59947400  0.89096800  0.24754700  1
  C  970  1  0.59704700  0.90983000  0.24592900  1
  C  971  1  0.60923000  0.92215100  0.25377500  1
  C  972  1  0.62431300  0.91546300  0.26307900  1
  C  973  1  0.62697000  0.89677600  0.26520600  1
  C  974  1  0.61470800  0.88465900  0.25719200  1
  C  978  1  0.58666200  0.87881200  0.23981900  1
  C  979  1  0.56791000  0.88186900  0.24181400  1
  C  980  1  0.55503200  0.87035100  0.23383600  1
  C  981  1  0.56113000  0.85544200  0.22385000  1
  C  982  1  0.57963200  0.85200300  0.22150200  1
  C  983  1  0.59228700  0.86370900  0.22959000  1
  C  991  1  0.59938500  0.08757900  0.74431700  1
  C  992  1  0.59693000  0.06871900  0.74592700  1
  C  993  1  0.60911200  0.05638300  0.73810300  1
  C  994  1  0.62420900  0.06305400  0.72881200  1
  C  995  1  0.62690300  0.08173800  0.72670000  1
  C  996  1  0.61463800  0.09386900  0.73469000  1
  C  1000  1  0.58657900  0.09974700  0.75203900  1
  C  1001  1  0.56782600  0.09671500  0.75001700  1
  C  1002  1  0.55495100  0.10823400  0.75799700  1
  C  1003  1  0.56105300  0.12312700  0.76800600  1
  C  1004  1  0.57955700  0.12655200  0.77036800  1
  C  1005  1  0.59220900  0.11484000  0.76228000  1
  C  1013  1  0.37909900  0.89084300  0.74430600  1
  C  1014  1  0.38155800  0.90970400  0.74590800  1
  C  1015  1  0.36937500  0.92204200  0.73808900  1
  C  1016  1  0.35427300  0.91537000  0.72880600  1
  C  1017  1  0.35157800  0.89668600  0.72668800  1
  C  1018  1  0.36384300  0.88455500  0.73468200  1
  C  1022  1  0.39190000  0.87867200  0.75203600  1
  C  1023  1  0.41065500  0.88170900  0.75004200  1
  C  1024  1  0.42352400  0.87019500  0.75804000  1
  C  1025  1  0.41741200  0.85529800  0.76803800  1
  C  1026  1  0.39890500  0.85186900  0.77037800  1
  C  1027  1  0.38626300  0.86358000  0.76227400  1
  C  1035  1  0.37904200  0.08746200  0.24752700  1
  C  1036  1  0.38151400  0.06860200  0.24592900  1
  C  1037  1  0.36928900  0.05626000  0.25367700  1
  C  1038  1  0.35412800  0.06291900  0.26287100  1
  C  1039  1  0.35142600  0.08159900  0.26498900  1
  C  1040  1  0.36373200  0.09373900  0.25707600  1
  C  1044  1  0.39186300  0.09964500  0.23984400  1
  C  1045  1  0.41061700  0.09660800  0.24186200  1
  C  1046  1  0.42349500  0.10815100  0.23391800  1
  C  1047  1  0.41739600  0.12306700  0.22394300  1
  C  1048  1  0.39889300  0.12649200  0.22157500  1
  C  1049  1  0.38624200  0.11475700  0.22962500  1
  C  1057  1  0.16360600  0.17105400  0.37890500  1
  C  1058  1  0.17813400  0.15894900  0.38081500  1
  C  1059  1  0.19291000  0.16337700  0.39205900  1
  C  1060  1  0.19267700  0.18007000  0.40119700  1
  C  1061  1  0.17793600  0.19192900  0.39970200  1
  C  1062  1  0.16312300  0.18749300  0.38849400  1
  C  1069  1  0.14808700  0.19850500  0.38714200  1
  C  1071  1  0.20721600  0.15173900  0.39501000  1
  C  1073  1  0.81493200  0.80732600  0.37882700  1
  C  1074  1  0.80042700  0.81945700  0.38072400  1
  C  1075  1  0.78565700  0.81507100  0.39198900  1
  C  1076  1  0.78586200  0.79840300  0.40116800  1
  C  1077  1  0.80058400  0.78651900  0.39968800  1
  C  1078  1  0.81539200  0.79090900  0.38845200  1
  C  1085  1  0.83040900  0.77987800  0.38711500  1
  C  1087  1  0.77138800  0.82674900  0.39489900  1
  C  1089  1  0.81485800  0.17124800  0.61289500  1
  C  1090  1  0.80034300  0.15914600  0.61088300  1
  C  1091  1  0.78568000  0.16353900  0.59947200  1
  C  1092  1  0.78601100  0.18021000  0.59029800  1
  C  1093  1  0.80073600  0.19207000  0.59190400  1
  C  1094  1  0.81544400  0.18765300  0.60326000  1
  C  1101  1  0.83048500  0.19864500  0.60468300  1
  C  1103  1  0.77139700  0.15190100  0.59638100  1
  C  1105  1  0.16352400  0.80733800  0.61287600  1
  C  1106  1  0.17804300  0.81944700  0.61092900  1
  C  1107  1  0.19279700  0.81501800  0.59965500  1
  C  1108  1  0.19255500  0.79831800  0.59053100  1
  C  1109  1  0.17782300  0.78645300  0.59206600  1
  C  1110  1  0.16303000  0.79089400  0.60329900  1
  C  1117  1  0.14800100  0.77987900  0.60467900  1
  C  1119  1  0.20709200  0.82665900  0.59666600  1
  C  1121  1  0.37227500  0.16350500  0.17781900  1
  C  1122  1  0.37421100  0.17802800  0.16571100  1
  C  1123  1  0.38546200  0.19279700  0.17015000  1
  C  1124  1  0.39457600  0.19256300  0.18685600  1
  C  1125  1  0.39305400  0.17782700  0.19871800  1
  C  1126  1  0.38184200  0.16302000  0.19426800  1
  C  1133  1  0.38047200  0.14798900  0.20528200  1
  C  1135  1  0.38844100  0.20709800  0.15851200  1
  C  1137  1  0.37219100  0.81497800  0.81417100  1
  C  1138  1  0.37406000  0.80046400  0.82629700  1
  C  1139  1  0.38525400  0.78564900  0.82188200  1
  C  1140  1  0.39440100  0.78582700  0.80519600  1
  C  1141  1  0.39295100  0.80055700  0.79331900  1
  C  1142  1  0.38178000  0.81540600  0.79773200  1
  C  1149  1  0.38045300  0.83042000  0.78669100  1
  C  1151  1  0.38812600  0.77135700  0.83354700  1
  C  1153  1  0.60627800  0.81490100  0.17781900  1
  C  1154  1  0.60431900  0.80037800  0.16571500  1
  C  1155  1  0.59299500  0.78565700  0.17012700  1
  C  1156  1  0.58383700  0.78593600  0.18680900  1
  C  1157  1  0.58538600  0.80067000  0.19866800  1
  C  1158  1  0.59666500  0.81543300  0.19424000  1
  C  1165  1  0.59804700  0.83047300  0.20524000  1
  C  1167  1  0.58997800  0.77136500  0.15848800  1
  C  1169  1  0.60621700  0.16356800  0.81412200  1
  C  1170  1  0.60429800  0.17810100  0.82622000  1
  C  1171  1  0.59303900  0.19286400  0.82178700  1
  C  1172  1  0.58389900  0.19261700  0.80509500  1
  C  1173  1  0.58540400  0.17787200  0.79324300  1
  C  1174  1  0.59662400  0.16306900  0.79768600  1
  C  1181  1  0.59798300  0.14803000  0.78668200  1
  C  1183  1  0.59007900  0.20717600  0.83341500  1
  C  1185  1  0.17111100  0.37221300  0.17027500  1
  C  1186  1  0.15900100  0.37413400  0.18479700  1
  C  1187  1  0.16341300  0.38541200  0.19955100  1
  C  1188  1  0.18009300  0.39457200  0.19930700  1
  C  1189  1  0.19195600  0.39306300  0.18457300  1
  C  1190  1  0.18753600  0.38182100  0.16978000  1
  C  1197  1  0.19855100  0.38045800  0.15475100  1
  C  1199  1  0.15176500  0.38836100  0.21384400  1
  C  1201  1  0.80743900  0.37221800  0.82171000  1
  C  1202  1  0.81955500  0.37405400  0.80718300  1
  C  1203  1  0.81514500  0.38523900  0.79236100  1
  C  1204  1  0.79847300  0.39441500  0.79254300  1
  C  1205  1  0.78660500  0.39299800  0.80728700  1
  C  1206  1  0.79101400  0.38183300  0.82214200  1
  C  1213  1  0.77998600  0.38053200  0.83716700  1
  C  1215  1  0.82680300  0.38808300  0.77805800  1
  C  1217  1  0.17112000  0.60623800  0.82160600  1
  C  1218  1  0.15902100  0.60429500  0.80707700  1
  C  1219  1  0.16344200  0.59299600  0.79234000  1
  C  1220  1  0.18012500  0.58384100  0.79261300  1
  C  1221  1  0.19197900  0.58537000  0.80735400  1
  C  1222  1  0.18754600  0.59662800  0.82213200  1
  C  1229  1  0.19854700  0.59800300  0.83717100  1
  C  1231  1  0.15181200  0.59000100  0.77803400  1
  C  1233  1  0.80740100  0.60624300  0.17028400  1
  C  1234  1  0.81952700  0.60436100  0.18479800  1
  C  1235  1  0.81511000  0.59315800  0.19960600  1
  C  1236  1  0.79841700  0.58402200  0.19942300  1
  C  1237  1  0.78653800  0.58548600  0.18469400  1
  C  1238  1  0.79095700  0.59666200  0.16985000  1
  C  1245  1  0.77992300  0.59799200  0.15483100  1
  C  1247  1  0.82677100  0.59025100  0.21389800  1
  C  1249  1  0.17095200  0.16344800  0.61305100  1
  C  1250  1  0.15884000  0.17798100  0.61122000  1
  C  1251  1  0.16327600  0.19282900  0.60008100  1
  C  1252  1  0.17996900  0.19266200  0.59094100  1
  C  1253  1  0.19183200  0.17791300  0.59235000  1
  C  1254  1  0.18740000  0.16303400  0.60347400  1
  C  1261  1  0.19843200  0.14801000  0.60477300  1
  C  1263  1  0.15163000  0.20714600  0.59725300  1
  C  1265  1  0.80747000  0.81503300  0.61302200  1
  C  1266  1  0.81959900  0.80051500  0.61120500  1
  C  1267  1  0.81518600  0.78565900  0.60006700  1
  C  1268  1  0.79850200  0.78580100  0.59091200  1
  C  1269  1  0.78662100  0.80053800  0.59230800  1
  C  1270  1  0.79102900  0.81542500  0.60343200  1
  C  1277  1  0.77997800  0.83043600  0.60472300  1
  C  1279  1  0.82685300  0.77135900  0.59725200  1
  C  1281  1  0.17121700  0.81485700  0.37900300  1
  C  1282  1  0.15910800  0.80034400  0.38099400  1
  C  1283  1  0.16350500  0.78565600  0.39237000  1
  C  1284  1  0.18018200  0.78595800  0.40153600  1
  C  1285  1  0.19204600  0.80068200  0.39995300  1
  C  1286  1  0.18763000  0.81541400  0.38862900  1
  C  1293  1  0.19863300  0.83044800  0.38721800  1
  C  1295  1  0.15186300  0.77137300  0.39542300  1
  C  1297  1  0.80734200  0.16352500  0.37898800  1
  C  1298  1  0.81947800  0.17802800  0.38087800  1
  C  1299  1  0.81506400  0.19284200  0.39207500  1
  C  1300  1  0.79836200  0.19267900  0.40119400  1
  C  1301  1  0.78647200  0.17796100  0.39972300  1
  C  1302  1  0.79089000  0.16311100  0.38855400  1
  C  1309  1  0.77984300  0.14810300  0.38721600  1
  C  1311  1  0.82673700  0.20711700  0.39497700  1
  C  1313  1  0.16352900  0.37228000  0.81407300  1
  C  1314  1  0.17804800  0.37422000  0.82618400  1
  C  1315  1  0.19281200  0.38548100  0.82175300  1
  C  1316  1  0.19257800  0.39460000  0.80504900  1
  C  1317  1  0.17784600  0.39307200  0.79318400  1
  C  1318  1  0.16304300  0.38185300  0.79762500  1
  C  1325  1  0.14801400  0.38047900  0.78660900  1
  C  1327  1  0.20710900  0.38846400  0.83339500  1
  C  1329  1  0.81489800  0.37215800  0.17782700  1
  C  1330  1  0.80039000  0.37406700  0.16570200  1
  C  1331  1  0.78563000  0.38534500  0.17009100  1
  C  1332  1  0.78585700  0.39452000  0.18676200  1
  C  1333  1  0.80057900  0.39302400  0.19864200  1
  C  1334  1  0.81537800  0.38177900  0.19424600  1
  C  1341  1  0.83039600  0.38042600  0.20527800  1
  C  1343  1  0.77134700  0.38828400  0.15842600  1
  C  1345  1  0.81482700  0.60623100  0.81387400  1
  C  1346  1  0.80032300  0.60421600  0.82599000  1
  C  1347  1  0.78567200  0.59278100  0.82162000  1
  C  1348  1  0.78599500  0.58358500  0.80496100  1
  C  1349  1  0.80071200  0.58519500  0.79308800  1
  C  1350  1  0.81540900  0.59657300  0.79748100  1
  C  1357  1  0.83044400  0.59799300  0.78648400  1
  C  1359  1  0.77140800  0.58969500  0.83327700  1
  C  1361  1  0.16357400  0.60623500  0.17777500  1
  C  1362  1  0.17810300  0.60431700  0.16567200  1
  C  1363  1  0.19287100  0.59306200  0.17010500  1
  C  1364  1  0.19262900  0.58392300  0.18679700  1
  C  1365  1  0.17788600  0.58542800  0.19865200  1
  C  1366  1  0.16308100  0.59664600  0.19421200  1
  C  1373  1  0.14804500  0.59800300  0.20521900  1
  C  1375  1  0.20717900  0.59010600  0.15847300  1
  C  1377  1  0.37229000  0.17116200  0.82157100  1
  C  1378  1  0.37426300  0.15905200  0.80705700  1
  C  1379  1  0.38560100  0.16345900  0.79234400  1
  C  1380  1  0.39475400  0.18014300  0.79262400  1
  C  1381  1  0.39318900  0.19200800  0.80735100  1
  C  1382  1  0.38190000  0.18758500  0.82210600  1
  C  1389  1  0.38050400  0.19859000  0.83714000  1
  C  1391  1  0.38863400  0.15181600  0.77805500  1
  C  1393  1  0.37217500  0.80753700  0.17007300  1
  C  1394  1  0.37398600  0.81966400  0.18459500  1
  C  1395  1  0.38506000  0.81521600  0.19948800  1
  C  1396  1  0.39416300  0.79850400  0.19937700  1
  C  1397  1  0.39277800  0.78662700  0.18463800  1
  C  1398  1  0.38171300  0.79106500  0.16971600  1
  C  1405  1  0.38042300  0.78001000  0.15470900  1
  C  1407  1  0.38784800  0.82687800  0.21379400  1
  C  1409  1  0.60623100  0.17109900  0.17028800  1
  C  1410  1  0.60428800  0.15899800  0.18481700  1
  C  1411  1  0.59298500  0.16341500  0.19955200  1
  C  1412  1  0.58383000  0.18010000  0.19928200  1
  C  1413  1  0.58536200  0.19195400  0.18454200  1
  C  1414  1  0.59662200  0.18752300  0.16976600  1
  C  1421  1  0.59799500  0.19852400  0.15472500  1
  C  1423  1  0.58998900  0.15178200  0.21385400  1
  C  1425  1  0.60624800  0.80740500  0.82162100  1
  C  1426  1  0.60431900  0.81950600  0.80709300  1
  C  1427  1  0.59304500  0.81508000  0.79234000  1
  C  1428  1  0.58389900  0.79839100  0.79259300  1
  C  1429  1  0.58541400  0.78653600  0.80733300  1
  C  1430  1  0.59665100  0.79097400  0.82212500  1
  C  1437  1  0.59801500  0.77997000  0.83716300  1
  C  1439  1  0.59007100  0.82671400  0.77803800  1
  C  1441  1  0.65615800  0.66882900  0.88270800  1
  C  1442  1  0.67081100  0.65705800  0.88006600  1
  C  1443  1  0.68733400  0.66016800  0.88906100  1
  C  1444  1  0.68895400  0.67548400  0.90025500  1
  C  1445  1  0.67434100  0.68735500  0.90277900  1
  C  1446  1  0.65762600  0.68388500  0.89424400  1
  C  1453  1  0.64219600  0.69309600  0.89909000  1
  C  1455  1  0.70097400  0.64751400  0.88826400  1
  C  1457  1  0.32185700  0.30948500  0.88301500  1
  C  1458  1  0.30710500  0.32114200  0.88042400  1
  C  1459  1  0.29059000  0.31780200  0.88934200  1
  C  1460  1  0.28907800  0.30241100  0.90044000  1
  C  1461  1  0.30379300  0.29065000  0.90290900  1
  C  1462  1  0.32049600  0.29432800  0.89443100  1
  C  1469  1  0.33600700  0.28523700  0.89925600  1
  C  1471  1  0.27687200  0.33035500  0.88861900  1
  C  1473  1  0.32174100  0.66917900  0.10901600  1
  C  1474  1  0.30697800  0.65752300  0.11155500  1
  C  1475  1  0.29052400  0.66081800  0.10251000  1
  C  1476  1  0.28907900  0.67615800  0.09133500  1
  C  1477  1  0.30380400  0.68791700  0.08891800  1
  C  1478  1  0.32045000  0.68428900  0.09752900  1
  C  1485  1  0.33598800  0.69337500  0.09277800  1
  C  1487  1  0.27680400  0.64826500  0.10319900  1
  C  1489  1  0.65653900  0.30948900  0.10898800  1
  C  1490  1  0.67127100  0.32117000  0.11158700  1
  C  1491  1  0.68777600  0.31789700  0.10261900  1
  C  1492  1  0.68929600  0.30253700  0.09147700  1
  C  1493  1  0.67460100  0.29075500  0.08900000  1
  C  1494  1  0.65790800  0.29437200  0.09752100  1
  C  1501  1  0.64240600  0.28526300  0.09270000  1
  C  1503  1  0.70147900  0.33047200  0.10335700  1
  C  1505  1  0.87627600  0.65685900  0.67580300  1
  C  1506  1  0.87372800  0.67166200  0.66420000  1
  C  1507  1  0.88270800  0.68813000  0.66759400  1
  C  1508  1  0.89384000  0.68954400  0.68296700  1
  C  1509  1  0.89626800  0.67477700  0.69467300  1
  C  1510  1  0.88771500  0.65812000  0.69095200  1
  C  1517  1  0.89246900  0.64255600  0.69999600  1
  C  1519  1  0.88203100  0.70189000  0.65508700  1
  C  1521  1  0.87623200  0.32213100  0.31641100  1
  C  1522  1  0.87357800  0.30742000  0.32810700  1
  C  1523  1  0.88245200  0.29086400  0.32482900  1
  C  1524  1  0.89354800  0.28927400  0.30944100  1
  C  1525  1  0.89607700  0.30394800  0.29764200  1
  C  1526  1  0.88765900  0.32068900  0.30127000  1
  C  1533  1  0.89254100  0.33615500  0.29213500  1
  C  1535  1  0.88167000  0.27717300  0.33741700  1
  C  1537  1  0.10224000  0.32155200  0.67594600  1
  C  1538  1  0.10474400  0.30674500  0.66433900  1
  C  1539  1  0.09570500  0.29030800  0.66772300  1
  C  1540  1  0.08454900  0.28892800  0.68308200  1
  C  1541  1  0.08216500  0.30370200  0.69479000  1
  C  1542  1  0.09078500  0.32032700  0.69108600  1
  C  1549  1  0.08607700  0.33590600  0.70013300  1
  C  1551  1  0.09634700  0.27655400  0.65521700  1
  C  1553  1  0.10232700  0.65644800  0.31624600  1
  C  1554  1  0.10493600  0.67116400  0.32794700  1
  C  1555  1  0.09596100  0.68767200  0.32471200  1
  C  1556  1  0.08480200  0.68921200  0.30936500  1
  C  1557  1  0.08231400  0.67453600  0.29756300  1
  C  1558  1  0.09084200  0.65783900  0.30114500  1
  C  1565  1  0.08601600  0.64235500  0.29201300  1
  C  1567  1  0.09671700  0.70136200  0.33730400  1
  C  1569  1  0.66897900  0.87630800  0.66335600  1
  C  1570  1  0.65735000  0.87374600  0.67813600  1
  C  1571  1  0.66073700  0.88268100  0.69463100  1
  C  1572  1  0.67613800  0.89377000  0.69609700  1
  C  1573  1  0.68787000  0.89620900  0.68135300  1
  C  1574  1  0.68414900  0.88770900  0.66467100  1
  C  1581  1  0.69321700  0.89249900  0.64913600  1
  C  1583  1  0.64821500  0.88198800  0.70837600  1
  C  1585  1  0.30952800  0.87642700  0.32842500  1
  C  1586  1  0.32113400  0.87384900  0.31363000  1
  C  1587  1  0.31766100  0.88268300  0.29710000  1
  C  1588  1  0.30221100  0.89370100  0.29561900  1
  C  1589  1  0.29050500  0.89615800  0.31038200  1
  C  1590  1  0.29430000  0.88775200  0.32709600  1
  C  1597  1  0.28524900  0.89257200  0.34263400  1
  C  1599  1  0.33016100  0.88199300  0.28333900  1
  C  1601  1  0.66919400  0.10250100  0.32843600  1
  C  1602  1  0.65754400  0.10502100  0.31366500  1
  C  1603  1  0.66079400  0.09588500  0.29725100  1
  C  1604  1  0.67608800  0.08464000  0.29585500  1
  C  1605  1  0.68784200  0.08224000  0.31058600  1
  C  1606  1  0.68425300  0.09094300  0.32719300  1
  C  1613  1  0.69332400  0.08622400  0.34275100  1
  C  1615  1  0.64823800  0.09656000  0.28353000  1
  C  1617  1  0.30952700  0.10220000  0.66323900  1
  C  1618  1  0.32121000  0.10479600  0.67796900  1
  C  1619  1  0.31790300  0.09587700  0.69449200  1
  C  1620  1  0.30251200  0.08478300  0.69603200  1
  C  1621  1  0.29072600  0.08230900  0.68133800  1
  C  1622  1  0.29437500  0.09078200  0.66462800  1
  C  1629  1  0.28526100  0.08594700  0.64913400  1
  C  1631  1  0.33047800  0.09660800  0.70819300  1
  C  1633  1  0.66904400  0.65668400  0.10908500  1
  C  1634  1  0.65739900  0.67145500  0.11163000  1
  C  1635  1  0.66070500  0.68791200  0.10259200  1
  C  1636  1  0.67605200  0.68935000  0.09142300  1
  C  1637  1  0.68779900  0.67461700  0.08899800  1
  C  1638  1  0.68415300  0.65797000  0.09759900  1
  C  1645  1  0.69322300  0.64242800  0.09283600  1
  C  1647  1  0.64816000  0.70164200  0.10328100  1
  C  1649  1  0.30948600  0.32184700  0.10887100  1
  C  1650  1  0.32114200  0.30709300  0.11146300  1
  C  1651  1  0.31778400  0.29057200  0.10256100  1
  C  1652  1  0.30238400  0.28905800  0.09147900  1
  C  1653  1  0.29062600  0.30377600  0.08901000  1
  C  1654  1  0.29431700  0.32048200  0.09747200  1
  C  1661  1  0.28522800  0.33599300  0.09264500  1
  C  1663  1  0.33033400  0.27685000  0.10328300  1
  C  1665  1  0.66908300  0.32180700  0.88293600  1
  C  1666  1  0.65744500  0.30703100  0.88039300  1
  C  1667  1  0.66080200  0.29055500  0.88937700  1
  C  1668  1  0.67618100  0.28910500  0.90049800  1
  C  1669  1  0.68792100  0.30384400  0.90292000  1
  C  1670  1  0.68423300  0.32050800  0.89436800  1
  C  1677  1  0.69330500  0.33604700  0.89913700  1
  C  1679  1  0.64827000  0.27681900  0.88869500  1
  C  1681  1  0.30953700  0.65659500  0.88297700  1
  C  1682  1  0.32119800  0.67134300  0.88037800  1
  C  1683  1  0.31786500  0.68786200  0.88929200  1
  C  1684  1  0.30247400  0.68938100  0.90038900  1
  C  1685  1  0.29071100  0.67466800  0.90286600  1
  C  1686  1  0.29438300  0.65796200  0.89439600  1
  C  1693  1  0.28529000  0.64245500  0.89922600  1
  C  1695  1  0.33042100  0.70158300  0.88856300  1
  C  1697  1  0.65625300  0.87604800  0.31633600  1
  C  1698  1  0.67091700  0.87339100  0.32809100  1
  C  1699  1  0.68745700  0.88234100  0.32493900  1
  C  1700  1  0.68908000  0.89350700  0.30960600  1
  C  1701  1  0.67445500  0.89604600  0.29775100  1
  C  1702  1  0.65772600  0.88755600  0.30126000  1
  C  1709  1  0.64229000  0.89242500  0.29206800  1
  C  1711  1  0.70110500  0.88154200  0.33758200  1
  C  1713  1  0.32195800  0.87624600  0.67564500  1
  C  1714  1  0.30722500  0.87364400  0.66396400  1
  C  1715  1  0.29070000  0.88256000  0.66727200  1
  C  1716  1  0.28916000  0.89365700  0.68266200  1
  C  1717  1  0.30385500  0.89613800  0.69444400  1
  C  1718  1  0.32056700  0.88766800  0.69079400  1
  C  1725  1  0.33605900  0.89250900  0.69990500  1
  C  1727  1  0.27699400  0.88181800  0.65470200  1
  C  1729  1  0.32161300  0.10226600  0.31591000  1
  C  1730  1  0.30682600  0.10477700  0.32754300  1
  C  1731  1  0.29039800  0.09569600  0.32422300  1
  C  1732  1  0.28900600  0.08450000  0.30889400  1
  C  1733  1  0.30375700  0.08210900  0.29716000  1
  C  1734  1  0.32037600  0.09076500  0.30080600  1
  C  1741  1  0.33594300  0.08605900  0.29174100  1
  C  1743  1  0.27666600  0.09635400  0.33675600  1
  C  1745  1  0.65644800  0.10232500  0.67566700  1
  C  1746  1  0.67116400  0.10492700  0.66396400  1
  C  1747  1  0.68766400  0.09593400  0.66719000  1
  C  1748  1  0.68919800  0.08476700  0.68253100  1
  C  1749  1  0.67452100  0.08228600  0.69433500  1
  C  1750  1  0.65783200  0.09083100  0.69076100  1
  C  1757  1  0.64234400  0.08601100  0.69989200  1
  C  1759  1  0.70135400  0.09668600  0.65459600  1
  C  1761  1  0.87626800  0.66901900  0.32848700  1
  C  1762  1  0.87370300  0.65737300  0.31372000  1
  C  1763  1  0.88266400  0.66072000  0.29723000  1
  C  1764  1  0.89377900  0.67610200  0.29575500  1
  C  1765  1  0.89622100  0.68785000  0.31048400  1
  C  1766  1  0.88769900  0.68416800  0.32716300  1
  C  1773  1  0.89248700  0.69324800  0.34269200  1
  C  1775  1  0.88196500  0.64817700  0.28350300  1
  C  1777  1  0.87625800  0.30943800  0.66339600  1
  C  1778  1  0.87366700  0.32108000  0.67816100  1
  C  1779  1  0.88261400  0.31774100  0.69466200  1
  C  1780  1  0.89374400  0.30237000  0.69614300  1
  C  1781  1  0.89621500  0.29062700  0.68141400  1
  C  1782  1  0.88770500  0.29430100  0.66472600  1
  C  1789  1  0.89250900  0.28522100  0.64920000  1
  C  1791  1  0.88189400  0.33028300  0.70839000  1
  C  1793  1  0.10242100  0.66926400  0.66348800  1
  C  1794  1  0.10495100  0.65761000  0.67825400  1
  C  1795  1  0.09581700  0.66084600  0.69467100  1
  C  1796  1  0.08455900  0.67613100  0.69607400  1
  C  1797  1  0.08214900  0.68788900  0.68134600  1
  C  1798  1  0.09085300  0.68431600  0.66473600  1
  C  1805  1  0.08614100  0.69340000  0.64918300  1
  C  1807  1  0.09650800  0.64829000  0.70838800  1
  C  1809  1  0.10229600  0.30955000  0.32872000  1
  C  1810  1  0.10490200  0.32125600  0.31401000  1
  C  1811  1  0.09594200  0.31801300  0.29749400  1
  C  1812  1  0.08480300  0.30265600  0.29594100  1
  C  1813  1  0.08232000  0.29084500  0.31061300  1
  C  1814  1  0.09083200  0.29443400  0.32731700  1
  C  1821  1  0.08599800  0.28529900  0.34279700  1
  C  1823  1  0.09669300  0.33061100  0.28381300  1
  C  1825  1  0.24503300  0.99779300  0.37549200  1
  C  1826  1  0.24621700  0.97884900  0.37507800  1
  C  1827  1  0.24517300  0.96868800  0.39127100  1
  C  1828  1  0.24276000  0.97824200  0.40760300  1
  C  1829  1  0.24156200  0.99716400  0.40801700  1
  C  1830  1  0.24259100  0.00723000  0.39184700  1
  C  1837  1  0.24085800  0.02584000  0.39210400  1
  C  1839  1  0.24649500  0.94994300  0.39196200  1
  C  1841  1  0.73351700  0.98076200  0.37538200  1
  C  1842  1  0.73235400  0.99971100  0.37499500  1
  C  1843  1  0.73323200  0.00984400  0.39122000  1
  C  1844  1  0.73542800  0.00024800  0.40755500  1
  C  1845  1  0.73659900  0.98132300  0.40794000  1
  C  1846  1  0.73577200  0.97128200  0.39174000  1
  C  1853  1  0.73753900  0.95266400  0.39199500  1
  C  1855  1  0.73195300  0.02859600  0.39194200  1
  C  1857  1  0.73340400  0.99769000  0.61640000  1
  C  1858  1  0.73225200  0.97874100  0.61676900  1
  C  1859  1  0.73338400  0.96861100  0.60056100  1
  C  1860  1  0.73583300  0.97820700  0.58426100  1
  C  1861  1  0.73699700  0.99713300  0.58389300  1
  C  1862  1  0.73590400  0.00717200  0.60007900  1
  C  1869  1  0.73765000  0.02578900  0.59985800  1
  C  1871  1  0.73212900  0.94985800  0.59982400  1
  C  1873  1  0.24500700  0.98075000  0.61645000  1
  C  1874  1  0.24616600  0.99969800  0.61683600  1
  C  1875  1  0.24505700  0.00984200  0.60063600  1
  C  1876  1  0.24262300  0.00026200  0.58432400  1
  C  1877  1  0.24145300  0.98133700  0.58393800  1
  C  1878  1  0.24252600  0.97128300  0.60011600  1
  C  1885  1  0.24078000  0.95266700  0.59987800  1
  C  1887  1  0.24632900  0.02859400  0.59991600  1
  C  1889  1  0.36876100  0.24497200  0.00449300  1
  C  1890  1  0.36835300  0.24614700  0.98554800  1
  C  1891  1  0.38455100  0.24510300  0.97539200  1
  C  1892  1  0.40087800  0.24270600  0.98495400  1
  C  1893  1  0.40128400  0.24151900  0.00387700  1
  C  1894  1  0.38511100  0.24253800  0.01394100  1
  C  1901  1  0.38536700  0.24079900  0.03255500  1
  C  1903  1  0.38525000  0.24640700  0.95664300  1
  C  1905  1  0.36876100  0.73356000  0.98743800  1
  C  1906  1  0.36833400  0.73239500  0.00638400  1
  C  1907  1  0.38453900  0.73326700  0.01654700  1
  C  1908  1  0.40089500  0.73547500  0.00699000  1
  C  1909  1  0.40132200  0.73665000  0.98806600  1
  C  1910  1  0.38514200  0.73581000  0.97799500  1
  C  1917  1  0.38542700  0.73754500  0.95938000  1
  C  1919  1  0.38521700  0.73195600  0.03529600  1
  C  1921  1  0.60976600  0.73338300  0.00447000  1
  C  1922  1  0.61018100  0.73220500  0.98552500  1
  C  1923  1  0.59399800  0.73335700  0.97535800  1
  C  1924  1  0.57767800  0.73585800  0.98490500  1
  C  1925  1  0.57726400  0.73704700  0.00382900  1
  C  1926  1  0.59342400  0.73592300  0.01390500  1
  C  1933  1  0.59316500  0.73766200  0.03251900  1
  C  1935  1  0.59330600  0.73204200  0.95661200  1
  C  1937  1  0.60973400  0.24506800  0.98740900  1
  C  1938  1  0.61013300  0.24623900  0.00635500  1
  C  1939  1  0.59393900  0.24511500  0.01650700  1
  C  1940  1  0.57762400  0.24264600  0.00694200  1
  C  1941  1  0.57722500  0.24146100  0.98801800  1
  C  1942  1  0.59339600  0.24256100  0.97795900  1
  C  1949  1  0.59315400  0.24082400  0.95934600  1
  C  1951  1  0.59323200  0.24641500  0.03525500  1
  C  1953  1  0.99772100  0.36872800  0.25187300  1
  C  1954  1  0.97877500  0.36836900  0.25304900  1
  C  1955  1  0.96863500  0.38454800  0.25163400  1
  C  1956  1  0.97821900  0.40080600  0.24887700  1
  C  1957  1  0.99714400  0.40116400  0.24768700  1
  C  1958  1  0.00719300  0.38500600  0.24907000  1
  C  1965  1  0.02581100  0.38520600  0.24731600  1
  C  1967  1  0.94988700  0.38529700  0.25291300  1
  C  1969  1  0.98066000  0.36875400  0.74030200  1
  C  1970  1  0.99960500  0.36832000  0.73912600  1
  C  1971  1  0.00977200  0.38452300  0.73996700  1
  C  1972  1  0.00022100  0.40088600  0.74216100  1
  C  1973  1  0.98129900  0.40131900  0.74334700  1
  C  1974  1  0.97122500  0.38514200  0.74253200  1
  C  1981  1  0.95261300  0.38543300  0.74426400  1
  C  1983  1  0.02851900  0.38519300  0.73863800  1
  C  1985  1  0.99784000  0.60971100  0.74010800  1
  C  1986  1  0.97889600  0.61012500  0.73893200  1
  C  1987  1  0.96873200  0.59393700  0.74003200  1
  C  1988  1  0.97828200  0.57761200  0.74248900  1
  C  1989  1  0.99720400  0.57719700  0.74367700  1
  C  1990  1  0.00727600  0.59336100  0.74259600  1
  C  1997  1  0.02588900  0.59310400  0.74432300  1
  C  1999  1  0.94998600  0.59324900  0.73871800  1
  C  2001  1  0.98074600  0.60972000  0.25172600  1
  C  2002  1  0.99969100  0.61012100  0.25290700  1
  C  2003  1  0.00984600  0.59392800  0.25179300  1
  C  2004  1  0.00028200  0.57761000  0.24932600  1
  C  2005  1  0.98136000  0.57721200  0.24813300  1
  C  2006  1  0.97129700  0.59338100  0.24922100  1
  C  2013  1  0.95268300  0.59313500  0.24747500  1
  C  2015  1  0.02859400  0.59322200  0.25309900  1
  C  2017  1  0.99786700  0.24499500  0.61641100  1
  C  2018  1  0.97892400  0.24618800  0.61684000  1
  C  2019  1  0.96875200  0.24516900  0.60065200  1
  C  2020  1  0.97829300  0.24277400  0.58431100  1
  C  2021  1  0.99721400  0.24156900  0.58388200  1
  C  2022  1  0.00729200  0.24257200  0.60004500  1
  C  2029  1  0.02590000  0.24083800  0.59977300  1
  C  2031  1  0.95000800  0.24650300  0.59997800  1
  C  2033  1  0.98064600  0.73361600  0.61642300  1
  C  2034  1  0.99958900  0.73241900  0.61686900  1
  C  2035  1  0.00976400  0.73325100  0.60067100  1
  C  2036  1  0.00022800  0.73545900  0.58430200  1
  C  2037  1  0.98130700  0.73666600  0.58385700  1
  C  2038  1  0.97122500  0.73585600  0.60003000  1
  C  2045  1  0.95261500  0.73759200  0.59973100  1
  C  2047  1  0.02850800  0.73189300  0.60001400  1
  C  2049  1  0.99774000  0.73341500  0.37545000  1
  C  2050  1  0.97879400  0.73225700  0.37505600  1
  C  2051  1  0.96864300  0.73338300  0.39125200  1
  C  2052  1  0.97821500  0.73583300  0.40756600  1
  C  2053  1  0.99714000  0.73700100  0.40795900  1
  C  2054  1  0.00720000  0.73591100  0.39178700  1
  C  2061  1  0.02581700  0.73764900  0.39203200  1
  C  2063  1  0.94989300  0.73210800  0.39196300  1
  C  2065  1  0.98075100  0.24499100  0.37539000  1
  C  2066  1  0.99969900  0.24615500  0.37500400  1
  C  2067  1  0.00984300  0.24506400  0.39120500  1
  C  2068  1  0.00026000  0.24264700  0.40751800  1
  C  2069  1  0.98133700  0.24147300  0.40790400  1
  C  2070  1  0.97128200  0.24251900  0.39172300  1
  C  2077  1  0.95266400  0.24076000  0.39196600  1
  C  2079  1  0.02859500  0.24633600  0.39192700  1
  C  2081  1  0.24497200  0.36876100  0.98742700  1
  C  2082  1  0.24614200  0.36835300  0.00637400  1
  C  2083  1  0.24510400  0.38455200  0.01653000  1
  C  2084  1  0.24272100  0.40088000  0.00696600  1
  C  2085  1  0.24153900  0.40128700  0.98804200  1
  C  2086  1  0.24255000  0.38511400  0.97797900  1
  C  2093  1  0.24081200  0.38537100  0.95936400  1
  C  2095  1  0.24640000  0.38525000  0.03527800  1
  C  2097  1  0.73349200  0.36877900  0.00441200  1
  C  2098  1  0.73232500  0.36838000  0.98546400  1
  C  2099  1  0.73322300  0.38459500  0.97532300  1
  C  2100  1  0.73545500  0.40093600  0.98490300  1
  C  2101  1  0.73663300  0.40133400  0.00382700  1
  C  2102  1  0.73577100  0.38514200  0.01387600  1
  C  2109  1  0.73751800  0.38539900  0.03249100  1
  C  2111  1  0.73192500  0.38530100  0.95657300  1
  C  2113  1  0.73339500  0.60980800  0.98752000  1
  C  2114  1  0.73224100  0.61016200  0.00647100  1
  C  2115  1  0.73335600  0.59394500  0.01659100  1
  C  2116  1  0.73577500  0.57764900  0.00697900  1
  C  2117  1  0.73693800  0.57729700  0.98805300  1
  C  2118  1  0.73587700  0.59349200  0.97802400  1
  C  2125  1  0.73764600  0.59327500  0.95940400  1
  C  2127  1  0.73211500  0.59319000  0.03534500  1
  C  2129  1  0.24506800  0.60972000  0.00448300  1
  C  2130  1  0.24624300  0.61012100  0.98553700  1
  C  2131  1  0.24513000  0.59392600  0.97538200  1
  C  2132  1  0.24266500  0.57761000  0.98494700  1
  C  2133  1  0.24147600  0.57721100  0.00387100  1
  C  2134  1  0.24256600  0.59338000  0.01393100  1
  C  2141  1  0.24082700  0.59313600  0.03254400  1
  C  2143  1  0.24643100  0.59322200  0.95663500  1
  C  2145  1  0.36874500  0.99769200  0.74017600  1
  C  2146  1  0.36835100  0.97874500  0.73901100  1
  C  2147  1  0.38455100  0.96859800  0.74008800  1
  C  2148  1  0.40087000  0.97817200  0.74249700  1
  C  2149  1  0.40126300  0.99709500  0.74367200  1
  C  2150  1  0.38508500  0.00715200  0.74262900  1
  C  2157  1  0.38533000  0.02576800  0.74437100  1
  C  2159  1  0.38526300  0.94984800  0.73880400  1
  C  2161  1  0.36878700  0.98061200  0.25152400  1
  C  2162  1  0.36834000  0.99955600  0.25270700  1
  C  2163  1  0.38453600  0.00973400  0.25187100  1
  C  2164  1  0.40090600  0.00019400  0.24967200  1
  C  2165  1  0.40135200  0.98127200  0.24847800  1
  C  2166  1  0.38518000  0.97119000  0.24929300  1
  C  2173  1  0.38548000  0.95257800  0.24756600  1
  C  2175  1  0.38519600  0.02848000  0.25321100  1
  C  2177  1  0.60977800  0.99780300  0.25185400  1
  C  2178  1  0.61020100  0.97886000  0.25302900  1
  C  2179  1  0.59402200  0.96868600  0.25186700  1
  C  2180  1  0.57770100  0.97822800  0.24935800  1
  C  2181  1  0.57727900  0.99715100  0.24817200  1
  C  2182  1  0.59343400  0.00723300  0.24931000  1
  C  2189  1  0.59317000  0.02584600  0.24757600  1
  C  2191  1  0.59333800  0.94994000  0.25317900  1
  C  2193  1  0.60972700  0.98073900  0.74016900  1
  C  2194  1  0.61012500  0.99968400  0.73899100  1
  C  2195  1  0.59392900  0.00983500  0.74010400  1
  C  2196  1  0.57761300  0.00026800  0.74256700  1
  C  2197  1  0.57721700  0.98134600  0.74375700  1
  C  2198  1  0.59338900  0.97128700  0.74267000  1
  C  2205  1  0.59314700  0.95267300  0.74441100  1
  C  2207  1  0.59322100  0.02858200  0.73880000  1
  C  2209  1  0.74361800  0.49851800  0.87331700  1
  C  2210  1  0.74051000  0.47983900  0.87481300  1
  C  2211  1  0.74701300  0.47021400  0.88995700  1
  C  2212  1  0.75667200  0.47967700  0.90334400  1
  C  2213  1  0.76028300  0.49823000  0.90155400  1
  C  2214  1  0.75361000  0.50789800  0.88652600  1
  C  2221  1  0.75787000  0.52588400  0.88416300  1
  C  2223  1  0.74475700  0.45179100  0.89169100  1
  C  2225  1  0.23482700  0.48003900  0.87337800  1
  C  2226  1  0.23792700  0.49871700  0.87489700  1
  C  2227  1  0.23137800  0.50833100  0.89003000  1
  C  2228  1  0.22167600  0.49885500  0.90337600  1
  C  2229  1  0.21807500  0.48030300  0.90156000  1
  C  2230  1  0.22479900  0.47064400  0.88654900  1
  C  2237  1  0.22057200  0.45264900  0.88416600  1
  C  2239  1  0.23364100  0.52675300  0.89178800  1
  C  2241  1  0.23478500  0.49844100  0.11855200  1
  C  2242  1  0.23786000  0.47975700  0.11704300  1
  C  2243  1  0.23135600  0.47015600  0.10188300  1
  C  2244  1  0.22172300  0.47965000  0.08849900  1
  C  2245  1  0.21814500  0.49820700  0.09030200  1
  C  2246  1  0.22482600  0.50785400  0.10534100  1
  C  2253  1  0.22062200  0.52585600  0.10770800  1
  C  2255  1  0.23359500  0.45173100  0.10012900  1
  C  2257  1  0.74366600  0.47998300  0.11857000  1
  C  2258  1  0.74056300  0.49866500  0.11709000  1
  C  2259  1  0.74709700  0.50830500  0.10196800  1
  C  2260  1  0.75678500  0.49885500  0.08859300  1
  C  2261  1  0.76038900  0.48030000  0.09036900  1
  C  2262  1  0.75368000  0.47061400  0.10537000  1
  C  2269  1  0.75791500  0.45261800  0.10771600  1
  C  2271  1  0.74483100  0.52672800  0.10024000  1
  C  2273  1  0.86666300  0.74375400  0.50512800  1
  C  2274  1  0.86816900  0.74064700  0.48644900  1
  C  2275  1  0.88330000  0.74718300  0.47682500  1
  C  2276  1  0.89665900  0.75688100  0.48629000  1
  C  2277  1  0.89485600  0.76048900  0.50484300  1
  C  2278  1  0.87984700  0.75377500  0.51451200  1
  C  2285  1  0.87747800  0.75800100  0.53250800  1
  C  2287  1  0.88504900  0.74491400  0.45840400  1
  C  2289  1  0.86674300  0.23481200  0.48677600  1
  C  2290  1  0.86826500  0.23792300  0.50545200  1
  C  2291  1  0.88343600  0.23144500  0.51505200  1
  C  2292  1  0.89682000  0.22180200  0.50556800  1
  C  2293  1  0.89500400  0.21818800  0.48701900  1
  C  2294  1  0.87995200  0.22484100  0.47737500  1
  C  2301  1  0.87756300  0.22058300  0.45939200  1
  C  2303  1  0.88519100  0.23369800  0.53347500  1
  C  2305  1  0.11182700  0.23478300  0.50512900  1
  C  2306  1  0.11032000  0.23787900  0.48644900  1
  C  2307  1  0.09520600  0.23130800  0.47682300  1
  C  2308  1  0.08186300  0.22159100  0.48628900  1
  C  2309  1  0.08366600  0.21799500  0.50484500  1
  C  2310  1  0.09865900  0.22474100  0.51451800  1
  C  2317  1  0.10103100  0.22052600  0.53251700  1
  C  2319  1  0.09346000  0.23356800  0.45839800  1
  C  2321  1  0.11183100  0.74360700  0.48675500  1
  C  2322  1  0.11029500  0.74050000  0.50543100  1
  C  2323  1  0.09514000  0.74702300  0.51502900  1
  C  2324  1  0.08178900  0.75670600  0.50554000  1
  C  2325  1  0.08362100  0.76031400  0.48699100  1
  C  2326  1  0.09865400  0.75361600  0.47734800  1
  C  2333  1  0.10105000  0.75785700  0.45936000  1
  C  2335  1  0.09336800  0.74476600  0.53344900  1
  C  2337  1  0.49846400  0.86662000  0.75042000  1
  C  2338  1  0.47977900  0.86811000  0.74734300  1
  C  2339  1  0.47016400  0.88326100  0.75384500  1
  C  2340  1  0.47964400  0.89665800  0.76347500  1
  C  2341  1  0.49820400  0.89487200  0.76705300  1
  C  2342  1  0.50786500  0.87984100  0.76037600  1
  C  2349  1  0.52586600  0.87749000  0.76458500  1
  C  2351  1  0.45173700  0.88499900  0.75160500  1
  C  2353  1  0.48011400  0.86673100  0.24144900  1
  C  2354  1  0.49879000  0.86825900  0.24455700  1
  C  2355  1  0.50839800  0.88340000  0.23801900  1
  C  2356  1  0.49891800  0.89674600  0.22831900  1
  C  2357  1  0.48036900  0.89492200  0.22471000  1
  C  2358  1  0.47071500  0.87990100  0.23142200  1
  C  2365  1  0.45272400  0.87750800  0.22719000  1
  C  2367  1  0.52681800  0.88516000  0.24027500  1
  C  2369  1  0.49842200  0.11183400  0.24154500  1
  C  2370  1  0.47974400  0.11029500  0.24464200  1
  C  2371  1  0.47014900  0.09514600  0.23810200  1
  C  2372  1  0.47964300  0.08180500  0.22841000  1
  C  2373  1  0.49819500  0.08364100  0.22481100  1
  C  2374  1  0.50783500  0.09866700  0.23152700  1
  C  2381  1  0.52583000  0.10106400  0.22730700  1
  C  2383  1  0.45172800  0.09336700  0.24035700  1
  C  2385  1  0.48002300  0.11181800  0.75033600  1
  C  2386  1  0.49870300  0.11031000  0.74724200  1
  C  2387  1  0.50832100  0.09518000  0.75379000  1
  C  2388  1  0.49884800  0.08182400  0.76348300  1
  C  2389  1  0.48029400  0.08362900  0.76707700  1
  C  2390  1  0.47063000  0.09863800  0.76035500  1
  C  2397  1  0.45263500  0.10101100  0.76458100  1
  C  2399  1  0.52674400  0.09343300  0.75153500  1
  C  2401  1  0.49844300  0.74369500  0.11858300  1
  C  2402  1  0.47976100  0.74060400  0.11707300  1
  C  2403  1  0.47014700  0.74714100  0.10193500  1
  C  2404  1  0.47962700  0.75682000  0.08857400  1
  C  2405  1  0.49818200  0.76041300  0.09038100  1
  C  2406  1  0.50784100  0.75370100  0.10539700  1
  C  2413  1  0.52583700  0.75792300  0.10777000  1
  C  2415  1  0.45172400  0.74488600  0.10018000  1
  C  2417  1  0.48003700  0.23481600  0.11852900  1
  C  2418  1  0.49871600  0.23791700  0.11700600  1
  C  2419  1  0.50832700  0.23136900  0.10187000  1
  C  2420  1  0.49884700  0.22166800  0.08852400  1
  C  2421  1  0.48029400  0.21806800  0.09034400  1
  C  2422  1  0.47063800  0.22479100  0.10535800  1
  C  2429  1  0.45264500  0.22056500  0.10774300  1
  C  2431  1  0.52674800  0.23362900  0.10011000  1
  C  2433  1  0.49845300  0.23481800  0.87336400  1
  C  2434  1  0.47977200  0.23789800  0.87487900  1
  C  2435  1  0.47017400  0.23139600  0.89004100  1
  C  2436  1  0.47966800  0.22175500  0.90342000  1
  C  2437  1  0.49822500  0.21817200  0.90161000  1
  C  2438  1  0.50786900  0.22485300  0.88657000  1
  C  2445  1  0.52586900  0.22064300  0.88419700  1
  C  2447  1  0.45174800  0.23363600  0.89179900  1
  C  2449  1  0.48007500  0.74369600  0.87343500  1
  C  2450  1  0.49875400  0.74059600  0.87494700  1
  C  2451  1  0.50837000  0.74713600  0.89008100  1
  C  2452  1  0.49889900  0.75682600  0.90344000  1
  C  2453  1  0.48034600  0.76042700  0.90163300  1
  C  2454  1  0.47068500  0.75371500  0.88661800  1
  C  2461  1  0.45269300  0.75794700  0.88424000  1
  C  2463  1  0.52679200  0.74488500  0.89182600  1
  C  2465  1  0.74367600  0.86664700  0.48669300  1
  C  2466  1  0.74056500  0.86812300  0.50537300  1
  C  2467  1  0.74708700  0.88324900  0.51501600  1
  C  2468  1  0.75676400  0.89663600  0.50557000  1
  C  2469  1  0.76037400  0.89486300  0.48701600  1
  C  2470  1  0.75368400  0.87985600  0.47732900  1
  C  2477  1  0.75794400  0.87750200  0.45934300  1
  C  2479  1  0.74482600  0.88496700  0.53343900  1
  C  2481  1  0.23479900  0.86667900  0.50516300  1
  C  2482  1  0.23789600  0.86819700  0.48648300  1
  C  2483  1  0.23140600  0.88336400  0.47688200  1
  C  2484  1  0.22176100  0.89674400  0.48637000  1
  C  2485  1  0.21816100  0.89493000  0.50492300  1
  C  2486  1  0.22482900  0.87988600  0.51457000  1
  C  2493  1  0.22059900  0.87751400  0.53256400  1
  C  2495  1  0.23366000  0.88512200  0.45845900  1
  C  2497  1  0.23481100  0.11184700  0.48674500  1
  C  2498  1  0.23788700  0.11034500  0.50543000  1
  C  2499  1  0.23131500  0.09522700  0.51505100  1
  C  2500  1  0.22161700  0.08187700  0.50557500  1
  C  2501  1  0.21804100  0.08367500  0.48701500  1
  C  2502  1  0.22478800  0.09867200  0.47734900  1
  C  2509  1  0.22059100  0.10103800  0.45934300  1
  C  2511  1  0.23356200  0.09348000  0.53347600  1
  C  2513  1  0.74361300  0.11191200  0.50520900  1
  C  2514  1  0.74050800  0.11040500  0.48652900  1
  C  2515  1  0.74702900  0.09526300  0.47691000  1
  C  2516  1  0.75671100  0.08189700  0.48637900  1
  C  2517  1  0.76031800  0.08370000  0.50493100  1
  C  2518  1  0.75361900  0.09871900  0.51459700  1
  C  2525  1  0.75785500  0.10108500  0.53258900  1
  C  2527  1  0.74476500  0.09351100  0.45848900  1
  C  2529  1  0.86665300  0.49844100  0.24148300  1
  C  2530  1  0.86813400  0.47975700  0.24456500  1
  C  2531  1  0.88328200  0.47013300  0.23806900  1
  C  2532  1  0.89668400  0.47960300  0.22843700  1
  C  2533  1  0.89491000  0.49816100  0.22485200  1
  C  2534  1  0.87988200  0.50783100  0.23152500  1
  C  2541  1  0.87754000  0.52583100  0.22731000  1
  C  2543  1  0.88500900  0.45170800  0.24031300  1
  C  2545  1  0.86671400  0.48006800  0.75039500  1
  C  2546  1  0.86825300  0.49874300  0.74727700  1
  C  2547  1  0.88340100  0.50834400  0.75380600  1
  C  2548  1  0.89674200  0.49886300  0.76351000  1
  C  2549  1  0.89490900  0.48031600  0.76713000  1
  C  2550  1  0.87988200  0.47066800  0.76042100  1
  C  2557  1  0.87748600  0.45267800  0.76465700  1
  C  2559  1  0.88517400  0.52676300  0.75153500  1
  C  2561  1  0.11185400  0.49842900  0.75034800  1
  C  2562  1  0.11031700  0.47975100  0.74725400  1
  C  2563  1  0.09516900  0.47015500  0.75379500  1
  C  2564  1  0.08182700  0.47965100  0.76348700  1
  C  2565  1  0.08366100  0.49820300  0.76708200  1
  C  2566  1  0.09868700  0.50784500  0.76036300  1
  C  2573  1  0.10108100  0.52584100  0.76457700  1
  C  2575  1  0.09339000  0.45173300  0.75154000  1
  C  2577  1  0.11183800  0.48004700  0.24155800  1
  C  2578  1  0.11032900  0.49872500  0.24465800  1
  C  2579  1  0.09519600  0.50834400  0.23811600  1
  C  2580  1  0.08183700  0.49887300  0.22842400  1
  C  2581  1  0.08364200  0.48032100  0.22482500  1
  C  2582  1  0.09865500  0.47065700  0.23153800  1
  C  2589  1  0.10102800  0.45266600  0.22730600  1
  C  2591  1  0.09345100  0.52676700  0.24037200  1
  N  19  1  0.20423200  0.13528400  0.39943500  1
  N  20  1  0.23276900  0.10462800  0.44756000  1
  N  21  1  0.27335800  0.08213400  0.34600600  1
  N  22  1  0.24967800  0.03591100  0.38112700  1
  N  41  1  0.77445600  0.84312000  0.39956200  1
  N  42  1  0.74580700  0.87392000  0.44751700  1
  N  43  1  0.70535600  0.89602900  0.34600600  1
  N  44  1  0.72911500  0.94254700  0.38074500  1
  N  63  1  0.77436500  0.13530700  0.59249500  1
  N  64  1  0.74570500  0.10467200  0.54440100  1
  N  65  1  0.70531400  0.08226900  0.64591700  1
  N  66  1  0.72902600  0.03587700  0.61098200  1
  N  85  1  0.20410400  0.84314800  0.59237400  1
  N  86  1  0.23275000  0.87388100  0.54436200  1
  N  87  1  0.27313900  0.89620300  0.64592200  1
  N  88  1  0.24941600  0.94257400  0.61098700  1
  N  107  1  0.39278600  0.20411200  0.14203600  1
  N  108  1  0.44084500  0.23272600  0.11134000  1
  N  109  1  0.33928500  0.27319000  0.08895600  1
  N  110  1  0.37429400  0.24948600  0.04264100  1
  N  129  1  0.39287600  0.77439000  0.84990000  1
  N  130  1  0.44089000  0.74579100  0.88065000  1
  N  131  1  0.33929700  0.70531600  0.90291700  1
  N  132  1  0.37427900  0.72896700  0.94928200  1
  N  151  1  0.58575200  0.77435600  0.14198200  1
  N  152  1  0.53764000  0.74575800  0.11133800  1
  N  153  1  0.63920200  0.70526300  0.08894900  1
  N  154  1  0.60418600  0.72891700  0.04261100  1
  N  173  1  0.58572300  0.20420300  0.84989000  1
  N  174  1  0.53765000  0.23280800  0.88055800  1
  N  175  1  0.63920500  0.27330400  0.90298600  1
  N  176  1  0.60416000  0.24960400  0.94926900  1
  N  195  1  0.13532900  0.39282900  0.21082700  1
  N  196  1  0.10461800  0.44086100  0.23946200  1
  N  197  1  0.08228900  0.33932900  0.27988700  1
  N  198  1  0.03590400  0.37422100  0.25610800  1
  N  217  1  0.84315100  0.39285700  0.78108300  1
  N  218  1  0.87390500  0.44087600  0.75249600  1
  N  219  1  0.89620700  0.33927400  0.71200100  1
  N  220  1  0.94252100  0.37430900  0.73564800  1
  N  239  1  0.13530700  0.58575200  0.78100600  1
  N  240  1  0.10467700  0.53763200  0.75241000  1
  N  241  1  0.08222700  0.63920300  0.71188400  1
  N  242  1  0.03596400  0.60410500  0.73553700  1
  N  261  1  0.84316600  0.58564100  0.21087500  1
  N  262  1  0.87389300  0.53761700  0.23946700  1
  N  263  1  0.89628600  0.63919800  0.27988700  1
  N  264  1  0.94259700  0.60417500  0.25620200  1
  N  283  1  0.13530300  0.20414600  0.59239000  1
  N  284  1  0.10461900  0.23269600  0.54430900  1
  N  285  1  0.08217600  0.27337700  0.64584700  1
  N  286  1  0.03597500  0.24967600  0.61073100  1
  N  305  1  0.84316200  0.77438800  0.59235300  1
  N  306  1  0.87389500  0.74583800  0.54430700  1
  N  307  1  0.89627000  0.70526100  0.64589000  1
  N  308  1  0.94252800  0.72890400  0.61079800  1
  N  327  1  0.13531500  0.77436000  0.39948600  1
  N  328  1  0.10463000  0.74570600  0.44754800  1
  N  329  1  0.08230600  0.70530400  0.34600100  1
  N  330  1  0.03591100  0.72902000  0.38092000  1
  N  349  1  0.84310700  0.20407000  0.39966200  1
  N  350  1  0.87396000  0.23272200  0.44757500  1
  N  351  1  0.89610600  0.27309400  0.34601000  1
  N  352  1  0.94255400  0.24931800  0.38081200  1
  N  371  1  0.20411900  0.39278700  0.84987700  1
  N  372  1  0.23273100  0.44084700  0.88057700  1
  N  373  1  0.27318600  0.33928500  0.90295400  1
  N  374  1  0.24948300  0.37428600  0.94927800  1
  N  393  1  0.77438000  0.39275500  0.14199400  1
  N  394  1  0.74576400  0.44080800  0.11130200  1
  N  395  1  0.70532500  0.33924700  0.08896800  1
  N  396  1  0.72897100  0.37422300  0.04258400  1
  N  415  1  0.77441800  0.58572900  0.84984500  1
  N  416  1  0.74573600  0.53771000  0.88057000  1
  N  417  1  0.70530000  0.63915600  0.90276800  1
  N  418  1  0.72912600  0.60445800  0.94929300  1
  N  437  1  0.20419900  0.58571300  0.14200900  1
  N  438  1  0.23279000  0.53763600  0.11133800  1
  N  439  1  0.27327300  0.63921000  0.08890600  1
  N  440  1  0.24959800  0.60414800  0.04262400  1
  N  459  1  0.39276300  0.13528400  0.78104300  1
  N  460  1  0.44083200  0.10459400  0.75242200  1
  N  461  1  0.33928200  0.08222900  0.71200900  1
  N  462  1  0.37422900  0.03585900  0.73572400  1
  N  481  1  0.39292300  0.84313500  0.21077400  1
  N  482  1  0.44092500  0.87390800  0.23934800  1
  N  483  1  0.33935600  0.89622900  0.27994900  1
  N  484  1  0.37440000  0.94249200  0.25624100  1
  N  503  1  0.58574000  0.13527900  0.21087700  1
  N  504  1  0.53762900  0.10463200  0.23947500  1
  N  505  1  0.63920200  0.08225400  0.28000000  1
  N  506  1  0.60415800  0.03593700  0.25636100  1
  N  525  1  0.58572700  0.84319000  0.78102400  1
  N  526  1  0.53765200  0.87385700  0.75242400  1
  N  527  1  0.63920300  0.89629700  0.71195700  1
  N  528  1  0.60417700  0.94259400  0.73566300  1
  N  547  1  0.77368600  0.83764300  0.59032900  1
  N  548  1  0.75033000  0.87234100  0.54389500  1
  N  549  1  0.71039500  0.89089000  0.64753200  1
  N  550  1  0.73243400  0.93979800  0.61390400  1
  N  569  1  0.20473500  0.14080000  0.59038600  1
  N  570  1  0.22808800  0.10610800  0.54394600  1
  N  571  1  0.26808400  0.08758600  0.64755400  1
  N  572  1  0.24597500  0.03865000  0.61399700  1
  N  591  1  0.20487900  0.83776600  0.40157400  1
  N  592  1  0.22813800  0.87252900  0.44797500  1
  N  593  1  0.26807400  0.89096400  0.34427400  1
  N  594  1  0.24602500  0.93990300  0.37787200  1
  N  613  1  0.77357100  0.14085800  0.40160100  1
  N  614  1  0.75026700  0.10611800  0.44801100  1
  N  615  1  0.71053200  0.08758000  0.34424300  1
  N  616  1  0.73247400  0.03866300  0.37787500  1
  N  635  1  0.58364500  0.77370700  0.84444400  1
  N  636  1  0.53725700  0.75040200  0.87921500  1
  N  637  1  0.64079700  0.71030100  0.89760800  1
  N  638  1  0.60739400  0.73255900  0.94657200  1
  N  657  1  0.58363100  0.20479400  0.14744200  1
  N  658  1  0.53722400  0.22812800  0.11272000  1
  N  659  1  0.64086600  0.26807400  0.09424600  1
  N  660  1  0.60731700  0.24597800  0.04530200  1
  N  679  1  0.39486400  0.20484700  0.84444100  1
  N  680  1  0.44126700  0.22811800  0.87920100  1
  N  681  1  0.33759400  0.26805700  0.89766000  1
  N  682  1  0.37116100  0.24596800  0.94659800  1
  N  701  1  0.39482000  0.77369800  0.14752000  1
  N  702  1  0.44124500  0.75037900  0.11279200  1
  N  703  1  0.33751400  0.71057300  0.09424400  1
  N  704  1  0.37113500  0.73258700  0.04533800  1
  N  723  1  0.83779900  0.58363900  0.78027900  1
  N  724  1  0.87256700  0.53724800  0.75702100  1
  N  725  1  0.89104100  0.64099700  0.71719300  1
  N  726  1  0.93995300  0.60734300  0.73918000  1
  N  745  1  0.14078200  0.58363500  0.21150100  1
  N  746  1  0.10606400  0.53723100  0.23485900  1
  N  747  1  0.08757500  0.64083600  0.27482400  1
  N  748  1  0.03864000  0.60730900  0.25267400  1
  N  767  1  0.83766300  0.39480400  0.21153600  1
  N  768  1  0.87239600  0.44124200  0.23480100  1
  N  769  1  0.89088400  0.33771800  0.27495900  1
  N  770  1  0.93982200  0.37121700  0.25273400  1
  N  789  1  0.14074900  0.39484500  0.78032400  1
  N  790  1  0.10599300  0.44124400  0.75702900  1
  N  791  1  0.08744700  0.33743600  0.71733900  1
  N  792  1  0.03855500  0.37110900  0.73929400  1
  N  811  1  0.83768700  0.77364900  0.40150100  1
  N  812  1  0.87242400  0.75038300  0.44792900  1
  N  813  1  0.89093100  0.71043400  0.34426300  1
  N  814  1  0.93984700  0.73248100  0.37787500  1
  N  833  1  0.14082500  0.20478800  0.40151300  1
  N  834  1  0.10609000  0.22809900  0.44793000  1
  N  835  1  0.08760300  0.26811500  0.34433400  1
  N  836  1  0.03865600  0.24597400  0.37784800  1
  N  855  1  0.83782300  0.20487900  0.59033300  1
  N  856  1  0.87260600  0.22814800  0.54395300  1
  N  857  1  0.89103700  0.26802600  0.64765800  1
  N  858  1  0.93997600  0.24597500  0.61407100  1
  N  877  1  0.14072400  0.77360300  0.59031500  1
  N  878  1  0.10596100  0.75028700  0.54393400  1
  N  879  1  0.08743500  0.71061700  0.64773000  1
  N  880  1  0.03853900  0.73261800  0.61409800  1
  N  899  1  0.77363700  0.58361300  0.14759100  1
  N  900  1  0.75031500  0.53719200  0.11286900  1
  N  901  1  0.71041200  0.64086700  0.09435100  1
  N  902  1  0.73241100  0.60725800  0.04542300  1
  N  921  1  0.20482100  0.58363900  0.84445300  1
  N  922  1  0.22815000  0.53723000  0.87917400  1
  N  923  1  0.26810700  0.64087500  0.89764600  1
  N  924  1  0.24602100  0.60730900  0.94658800  1
  N  943  1  0.20480800  0.39483200  0.14747400  1
  N  944  1  0.22808000  0.44125000  0.11272800  1
  N  945  1  0.26805000  0.33759100  0.09426000  1
  N  946  1  0.24596400  0.37116100  0.04532300  1
  N  965  1  0.77371500  0.39491900  0.84440500  1
  N  966  1  0.75029900  0.44132600  0.87909000  1
  N  967  1  0.71049200  0.33761500  0.89759900  1
  N  968  1  0.73249400  0.37122500  0.94652100  1
  N  987  1  0.58368500  0.83777600  0.21148800  1
  N  988  1  0.53729400  0.87255100  0.23477000  1
  N  989  1  0.64085500  0.89092700  0.27486600  1
  N  990  1  0.60743000  0.93990400  0.25265800  1
  N  1009  1  0.58361500  0.14076800  0.78039800  1
  N  1010  1  0.53721100  0.10604600  0.75704400  1
  N  1011  1  0.64082700  0.08756900  0.71708200  1
  N  1012  1  0.60730600  0.03863000  0.73922900  1
  N  1031  1  0.39483700  0.83765700  0.78041300  1
  N  1032  1  0.44126500  0.87239200  0.75711900  1
  N  1033  1  0.33764900  0.89084900  0.71707900  1
  N  1034  1  0.37118000  0.93979500  0.73920800  1
  N  1053  1  0.39483900  0.14072300  0.21156600  1
  N  1054  1  0.44123700  0.10596700  0.23486100  1
  N  1055  1  0.33743500  0.08739000  0.27452900  1
  N  1056  1  0.37110800  0.03851000  0.25254800  1
  O  1064  1  0.17792600  0.14335400  0.37117000  1
  O  1066  1  0.17863600  0.20788000  0.40874400  1
  O  1080  1  0.80065000  0.83503600  0.37105100  1
  O  1082  1  0.79987300  0.77059200  0.40877000  1
  O  1096  1  0.80045500  0.14358800  0.62059200  1
  O  1098  1  0.80012500  0.20799800  0.58281500  1
  O  1112  1  0.17784600  0.83504600  0.62057100  1
  O  1114  1  0.17851400  0.77049400  0.58303800  1
  O  1128  1  0.36458100  0.17782100  0.15010600  1
  O  1130  1  0.40207200  0.17852600  0.21468200  1
  O  1144  1  0.36442200  0.80072000  0.84189700  1
  O  1146  1  0.40199400  0.79981300  0.77737000  1
  O  1160  1  0.61399300  0.80054000  0.15013700  1
  O  1162  1  0.57631800  0.80001600  0.21460700  1
  O  1176  1  0.61394900  0.17790700  0.84181200  1
  O  1178  1  0.57636000  0.17855700  0.77729300  1
  O  1192  1  0.14341700  0.36446800  0.18460400  1
  O  1194  1  0.20789600  0.40212600  0.18526000  1
  O  1208  1  0.83514300  0.36439700  0.80743800  1
  O  1210  1  0.77067100  0.40206600  0.80654900  1
  O  1224  1  0.14344100  0.61396600  0.80724600  1
  O  1226  1  0.20792000  0.57630900  0.80668900  1
  O  1240  1  0.83513000  0.61399300  0.18454500  1
  O  1242  1  0.77058500  0.57645100  0.18543500  1
  O  1256  1  0.14323200  0.17770900  0.62084300  1
  O  1258  1  0.20778600  0.17867300  0.58332000  1
  O  1272  1  0.83520200  0.80080800  0.62083600  1
  O  1274  1  0.77067500  0.79976000  0.58326500  1
  O  1288  1  0.14354200  0.80048200  0.37130100  1
  O  1290  1  0.20797800  0.80004700  0.40903200  1
  O  1304  1  0.83509100  0.17776000  0.37126100  1
  O  1306  1  0.77051100  0.17871600  0.40874200  1
  O  1320  1  0.17784300  0.36458500  0.84178600  1
  O  1322  1  0.17854500  0.40209600  0.77722200  1
  O  1336  1  0.80059900  0.36439000  0.15012500  1
  O  1338  1  0.79987600  0.40210100  0.21457300  1
  O  1352  1  0.80043500  0.61393900  0.84153800  1
  O  1354  1  0.80010200  0.57608100  0.77717400  1
  O  1368  1  0.17790500  0.61396300  0.15007800  1
  O  1370  1  0.17857700  0.57638500  0.21460300  1
  O  1384  1  0.36458700  0.14347500  0.80721600  1
  O  1386  1  0.40225300  0.20794900  0.80669600  1
  O  1400  1  0.36440800  0.83529700  0.18426900  1
  O  1402  1  0.40176600  0.77065100  0.18544500  1
  O  1416  1  0.61395800  0.14341700  0.18464600  1
  O  1418  1  0.57630100  0.20789600  0.18520700  1
  O  1432  1  0.61397600  0.83509500  0.80728000  1
  O  1434  1  0.57636400  0.77058900  0.80665400  1
  O  1448  1  0.66836000  0.64239700  0.86932000  1
  O  1450  1  0.67622400  0.70097700  0.91490300  1
  O  1464  1  0.30943500  0.33591600  0.86980600  1
  O  1466  1  0.30201400  0.27692700  0.91493400  1
  O  1480  1  0.30924100  0.64279400  0.12224900  1
  O  1482  1  0.30210100  0.70158700  0.07682000  1
  O  1496  1  0.66892800  0.33590300  0.12225800  1
  O  1498  1  0.67638600  0.27707100  0.07693100  1
  O  1512  1  0.86308900  0.66943100  0.64942700  1
  O  1514  1  0.90832400  0.67645700  0.70838200  1
  O  1528  1  0.86295000  0.30983500  0.34285900  1
  O  1530  1  0.90810000  0.30208500  0.28392900  1
  O  1544  1  0.11540200  0.30893800  0.64957300  1
  O  1546  1  0.07008400  0.30206100  0.70848300  1
  O  1560  1  0.11562700  0.66879600  0.34266100  1
  O  1562  1  0.07023000  0.67634100  0.28389500  1
  O  1576  1  0.64256000  0.86314200  0.67585300  1
  O  1578  1  0.70160700  0.90822600  0.68308600  1
  O  1592  1  0.33598200  0.86332800  0.31592100  1
  O  1594  1  0.27671300  0.90810800  0.30862700  1
  O  1608  1  0.64286200  0.11578700  0.31588500  1
  O  1610  1  0.70145700  0.07007500  0.30893400  1
  O  1624  1  0.33597700  0.11541600  0.67560800  1
  O  1626  1  0.27700400  0.07028600  0.68314500  1
  O  1640  1  0.64266700  0.66919400  0.12232200  1
  O  1642  1  0.70147200  0.67631600  0.07690500  1
  O  1656  1  0.33592700  0.30942600  0.12206200  1
  O  1658  1  0.27688900  0.30199200  0.07700000  1
  O  1672  1  0.64267500  0.30929800  0.86975800  1
  O  1674  1  0.70163200  0.30213200  0.91496900  1
  O  1688  1  0.33597000  0.66900300  0.86975900  1
  O  1690  1  0.27698900  0.67645600  0.91489300  1
  O  1704  1  0.66846500  0.86267900  0.34277700  1
  O  1706  1  0.67634400  0.90814500  0.28410600  1
  O  1720  1  0.30958700  0.86302000  0.64920000  1
  O  1722  1  0.30204700  0.90816400  0.70816300  1
  O  1736  1  0.30903500  0.11548500  0.34226900  1
  O  1738  1  0.30210500  0.06999200  0.28350200  1
  O  1752  1  0.66880300  0.11563000  0.64925700  1
  O  1754  1  0.67632000  0.07019500  0.70799700  1
  O  1768  1  0.86307000  0.64260500  0.31601400  1
  O  1770  1  0.90826300  0.70156400  0.30874500  1
  O  1784  1  0.86302100  0.33583700  0.67585900  1
  O  1786  1  0.90827000  0.27692600  0.68316500  1
  O  1800  1  0.11572900  0.64293700  0.67602800  1
  O  1802  1  0.06997500  0.70149700  0.68300600  1
  O  1816  1  0.11557200  0.33598500  0.31638700  1
  O  1818  1  0.07025500  0.27716300  0.30879600  1
  O  1832  1  0.24903900  0.97100900  0.35874500  1
  O  1834  1  0.23912000  0.00525000  0.42430000  1
  O  1848  1  0.72974000  0.00759200  0.35864800  1
  O  1850  1  0.73883400  0.97321500  0.42424400  1
  O  1864  1  0.72939300  0.97086200  0.63307700  1
  O  1866  1  0.73948900  0.00524600  0.56763000  1
  O  1880  1  0.24901100  0.00756400  0.63315200  1
  O  1882  1  0.23897900  0.97323700  0.56766500  1
  O  1896  1  0.35202200  0.24895400  0.97769800  1
  O  1898  1  0.41756900  0.23909000  0.01196500  1
  O  1912  1  0.35197300  0.72976400  0.01422900  1
  O  1914  1  0.41763700  0.73889100  0.97998500  1
  O  1928  1  0.62649400  0.72927800  0.97768400  1
  O  1930  1  0.56098900  0.73958100  0.01190400  1
  O  1944  1  0.62644800  0.24912400  0.01420900  1
  O  1946  1  0.56095500  0.23895700  0.97992500  1
  O  1960  1  0.97090400  0.35211500  0.25622000  1
  O  1962  1  0.00524600  0.41738400  0.24489300  1
  O  1976  1  0.00744300  0.35195100  0.73651300  1
  O  1978  1  0.97322200  0.41763900  0.74557000  1
  O  1992  1  0.97105700  0.62645100  0.73606300  1
  O  1994  1  0.00528600  0.56091700  0.74616500  1
  O  2008  1  0.00754200  0.62643700  0.25578900  1
  O  2010  1  0.97327000  0.56093800  0.24563200  1
  O  2024  1  0.97109600  0.24899600  0.63318200  1
  O  2026  1  0.00528900  0.23914700  0.56758900  1
  O  2040  1  0.00741500  0.72978600  0.63324000  1
  O  2042  1  0.97323700  0.73889800  0.56753500  1
  O  2056  1  0.97093600  0.72939400  0.35874000  1
  O  2058  1  0.00523200  0.73948900  0.42423400  1
  O  2072  1  0.00756700  0.24898600  0.35868600  1
  O  2074  1  0.97323900  0.23901500  0.42418100  1
  O  2088  1  0.24893500  0.35202100  0.01422400  1
  O  2090  1  0.23912100  0.41757500  0.97995400  1
  O  2104  1  0.72967100  0.35203100  0.97759800  1
  O  2106  1  0.73890200  0.41763500  0.01192800  1
  O  2120  1  0.72940700  0.62646600  0.01436700  1
  O  2122  1  0.73940300  0.56103200  0.97993300  1
  O  2136  1  0.24911800  0.62643900  0.97768600  1
  O  2138  1  0.23897600  0.56093800  0.01196200  1
  O  2152  1  0.35202800  0.97088500  0.73619000  1
  O  2154  1  0.41754200  0.00519200  0.74611800  1
  O  2168  1  0.35196700  0.00738400  0.25532600  1
  O  2170  1  0.41767400  0.97320300  0.24625200  1
  O  2184  1  0.62651500  0.97102500  0.25596200  1
  O  2186  1  0.56100200  0.00522200  0.24563000  1
  O  2200  1  0.62644100  0.00753800  0.73611400  1
  O  2202  1  0.56094400  0.97325300  0.74625400  1
  O  2216  1  0.73072900  0.47148400  0.86174100  1
  O  2218  1  0.76976000  0.50661600  0.91483000  1
  O  2232  1  0.24774900  0.50708300  0.86186300  1
  O  2234  1  0.20856000  0.47190400  0.91480200  1
  O  2248  1  0.24761700  0.47137600  0.13011500  1
  O  2250  1  0.20869600  0.50662200  0.07702400  1
  O  2264  1  0.73075400  0.50700500  0.13014900  1
  O  2266  1  0.76988900  0.47192600  0.07710100  1
  O  2280  1  0.85512400  0.73082900  0.47809600  1
  O  2282  1  0.90810800  0.76999800  0.51323100  1
  O  2296  1  0.85518900  0.24767900  0.51383000  1
  O  2298  1  0.90827700  0.20872500  0.47861200  1
  O  2312  1  0.12334800  0.24772000  0.47809600  1
  O  2314  1  0.07042700  0.20846800  0.51323300  1
  O  2328  1  0.12333800  0.73070100  0.51381100  1
  O  2330  1  0.07037500  0.76981300  0.47858100  1
  O  2344  1  0.47140900  0.85502700  0.73758800  1
  O  2346  1  0.50660700  0.90816100  0.77649800  1
  O  2360  1  0.50715900  0.85522400  0.25437700  1
  O  2362  1  0.47196500  0.90816200  0.21519800  1
  O  2376  1  0.47136200  0.12332600  0.25445300  1
  O  2378  1  0.50661000  0.07040300  0.21530600  1
  O  2392  1  0.50706500  0.12335200  0.73742800  1
  O  2394  1  0.47190000  0.07037900  0.77658500  1
  O  2408  1  0.47139500  0.73079900  0.13011900  1
  O  2410  1  0.50658200  0.76990800  0.07712500  1
  O  2424  1  0.50708400  0.24773600  0.13003900  1
  O  2426  1  0.47189100  0.20855600  0.07710200  1
  O  2440  1  0.47138900  0.24765900  0.86181100  1
  O  2442  1  0.50664100  0.20871900  0.91488400  1
  O  2456  1  0.50711800  0.73078600  0.86190300  1
  O  2458  1  0.47195100  0.76993200  0.91488300  1
  O  2472  1  0.73076600  0.85505600  0.51371100  1
  O  2474  1  0.76986800  0.90813800  0.47864500  1
  O  2488  1  0.24765800  0.85512600  0.47810600  1
  O  2490  1  0.20870100  0.90820500  0.51333300  1
  O  2504  1  0.24771000  0.12337800  0.51379200  1
  O  2506  1  0.20853300  0.07042900  0.47861700  1
  O  2520  1  0.73070800  0.12345900  0.47816900  1
  O  2522  1  0.76981300  0.07043900  0.51332200  1
  O  2536  1  0.85504800  0.47139700  0.25432300  1
  O  2538  1  0.90820400  0.50655400  0.21540500  1
  O  2552  1  0.85521900  0.50711400  0.73745900  1
  O  2554  1  0.90814600  0.47191200  0.77664500  1
  O  2568  1  0.12334800  0.47136900  0.73744300  1
  O  2570  1  0.07042200  0.50661800  0.77658500  1
  O  2584  1  0.12337300  0.50708700  0.25447000  1
  O  2586  1  0.07039000  0.47192800  0.21531900  1
