# generated using pymatgen
data_H22C37(N5O2)2
_symmetry_space_group_name_H-M   'P 1'
_cell_length_a   56.07330000
_cell_length_b   64.30785000
_cell_length_c   64.30780000
_cell_angle_alpha   119.99992284
_cell_angle_beta   90.00000000
_cell_angle_gamma   90.00000000
_symmetry_Int_Tables_number   1
_chemical_formula_structural   H22C37(N5O2)2
_chemical_formula_sum   'H528 C888 N240 O96'
_cell_volume   200823.59055172
_cell_formula_units_Z   24
loop_
 _symmetry_equiv_pos_site_id
 _symmetry_equiv_pos_as_xyz
  1  'x, y, z'
loop_
 _atom_site_type_symbol
 _atom_site_label
 _atom_site_symmetry_multiplicity
 _atom_site_fract_x
 _atom_site_fract_y
 _atom_site_fract_z
 _atom_site_occupancy
  H  26  1  0.81813600  0.56537400  0.43032100  1
  H  27  1  0.85729900  0.57035000  0.41941700  1
  H  28  1  0.82490100  0.62952800  0.49657800  1
  H  29  1  0.86437200  0.63461300  0.48595800  1
  H  30  1  0.90893700  0.62294900  0.48949900  1
  H  31  1  0.93022100  0.60222300  0.50504200  1
  H  32  1  0.92358700  0.53771600  0.43872400  1
  H  33  1  0.90206500  0.55866600  0.42301000  1
  H  34  1  0.93076300  0.58872700  0.41641000  1
  H  35  1  0.93694400  0.57352200  0.37487700  1
  H  36  1  0.86612100  0.59114600  0.36769600  1
  H  37  1  0.85967600  0.60679100  0.40974700  1
  H  38  1  0.86346300  0.64629500  0.45133800  1
  H  39  1  0.93491700  0.62822600  0.45728800  1
  H  40  1  0.94634800  0.66913300  0.47229400  1
  H  45  1  0.87508500  0.68686800  0.46615100  1
  H  71  1  0.81804400  0.91657100  0.48549600  1
  H  72  1  0.85719900  0.90071200  0.48052600  1
  H  73  1  0.82478900  0.91866800  0.42135100  1
  H  74  1  0.86426200  0.90298500  0.41626200  1
  H  75  1  0.90884000  0.91819500  0.42793400  1
  H  76  1  0.93012500  0.95445900  0.44866100  1
  H  77  1  0.92348400  0.95264600  0.51316600  1
  H  78  1  0.90196000  0.91598500  0.49221500  1
  H  79  1  0.93066600  0.87932200  0.46214300  1
  H  80  1  0.93683900  0.85298900  0.47734800  1
  H  81  1  0.86600400  0.82820700  0.45973200  1
  H  82  1  0.85956900  0.85461400  0.44409200  1
  H  83  1  0.86337400  0.85669000  0.40460000  1
  H  84  1  0.93483400  0.88069900  0.42264600  1
  H  85  1  0.94625000  0.85479100  0.38171600  1
  H  90  1  0.87497000  0.83093900  0.36403900  1
  H  116  1  0.81824100  0.62053000  0.13425000  1
  H  117  1  0.85740200  0.63143300  0.15011600  1
  H  118  1  0.82500700  0.55428400  0.13214800  1
  H  119  1  0.86447100  0.56489600  0.14784300  1
  H  120  1  0.90903900  0.56135200  0.13263300  1
  H  121  1  0.93032200  0.54581200  0.09636700  1
  H  122  1  0.92368600  0.61212900  0.09817700  1
  H  123  1  0.90216400  0.62783900  0.13483800  1
  H  124  1  0.93086300  0.63441200  0.17148700  1
  H  125  1  0.93707400  0.67592100  0.19780700  1
  H  126  1  0.86624600  0.68314800  0.22264200  1
  H  127  1  0.85977600  0.64110200  0.19623500  1
  H  128  1  0.86356300  0.59951800  0.19415100  1
  H  129  1  0.93501500  0.59356000  0.17012900  1
  H  130  1  0.94643200  0.57855900  0.19601700  1
  H  135  1  0.87519400  0.58469100  0.21992900  1
  H  161  1  0.31814200  0.50310800  0.60322300  1
  H  162  1  0.35730200  0.49814500  0.61412700  1
  H  163  1  0.32490700  0.43896500  0.53697400  1
  H  164  1  0.36437300  0.43388000  0.54758500  1
  H  165  1  0.40893800  0.44554600  0.54404300  1
  H  166  1  0.43022300  0.46627100  0.52850300  1
  H  167  1  0.42359200  0.53077900  0.59482200  1
  H  168  1  0.40206800  0.50983000  0.61053700  1
  H  169  1  0.43076300  0.47976700  0.61713300  1
  H  170  1  0.43694800  0.49496300  0.65866800  1
  H  171  1  0.36612100  0.47734800  0.66584800  1
  H  172  1  0.35967600  0.46170600  0.62379600  1
  H  173  1  0.36347600  0.42222200  0.58222100  1
  H  174  1  0.43493600  0.44027200  0.57625700  1
  H  175  1  0.44635300  0.39934000  0.56122700  1
  H  180  1  0.37507300  0.38166000  0.56740600  1
  H  206  1  0.31805500  0.15191800  0.54804700  1
  H  207  1  0.35720600  0.16778400  0.55301700  1
  H  208  1  0.32479300  0.14982400  0.61218500  1
  H  209  1  0.36425700  0.16551600  0.61728500  1
  H  210  1  0.40884200  0.15030400  0.60561400  1
  H  211  1  0.43012600  0.11403600  0.58488300  1
  H  212  1  0.42348500  0.11584900  0.52037800  1
  H  213  1  0.40196000  0.15251000  0.54133100  1
  H  214  1  0.43066700  0.18917400  0.57140500  1
  H  215  1  0.43684400  0.21550300  0.55619500  1
  H  216  1  0.36601200  0.24028600  0.57380100  1
  H  217  1  0.35957000  0.21388600  0.58945200  1
  H  218  1  0.36336200  0.21181800  0.62897200  1
  H  219  1  0.43481300  0.18779700  0.61090100  1
  H  220  1  0.44624400  0.21370300  0.65180900  1
  H  225  1  0.37498400  0.23757900  0.66954400  1
  H  251  1  0.31824400  0.44794600  0.89929300  1
  H  252  1  0.35740700  0.43706600  0.88343200  1
  H  253  1  0.32497600  0.51420500  0.90139400  1
  H  254  1  0.36446000  0.50360600  0.88571000  1
  H  255  1  0.40904000  0.50714200  0.90091200  1
  H  256  1  0.43032200  0.52268300  0.93717900  1
  H  257  1  0.42368600  0.45636400  0.93536600  1
  H  258  1  0.40216300  0.44065500  0.89870500  1
  H  259  1  0.43086100  0.43408200  0.86205800  1
  H  260  1  0.43707100  0.39257100  0.83573500  1
  H  261  1  0.36624000  0.38534900  0.81090200  1
  H  262  1  0.35977400  0.42739600  0.83731300  1
  H  263  1  0.36356300  0.46897900  0.83939400  1
  H  264  1  0.43501400  0.47493200  0.86341400  1
  H  265  1  0.44644800  0.48992600  0.83750400  1
  H  270  1  0.37518600  0.48378100  0.81362400  1
  H  296  1  0.13982900  0.15086800  0.60262400  1
  H  297  1  0.10114600  0.16798600  0.61422100  1
  H  298  1  0.13273700  0.14878200  0.53630300  1
  H  299  1  0.09392900  0.16573600  0.54759600  1
  H  300  1  0.04993800  0.15092900  0.54400900  1
  H  301  1  0.02852700  0.11435400  0.52830400  1
  H  302  1  0.03512700  0.11614100  0.59486500  1
  H  303  1  0.05680400  0.15307400  0.61088900  1
  H  304  1  0.02774600  0.18916200  0.61710700  1
  H  305  1  0.02158400  0.21545400  0.65864700  1
  H  306  1  0.09243200  0.24024300  0.66582000  1
  H  307  1  0.09886000  0.21390600  0.62378600  1
  H  308  1  0.09505400  0.21182800  0.58219200  1
  H  309  1  0.02357100  0.18778200  0.57624000  1
  H  310  1  0.01216100  0.21361900  0.56114700  1
  H  315  1  0.08345300  0.23749100  0.56731600  1
  H  341  1  0.13994000  0.44837800  0.54751800  1
  H  342  1  0.10125000  0.43676900  0.55303800  1
  H  343  1  0.13282200  0.51469800  0.61174500  1
  H  344  1  0.09402700  0.50339600  0.61741100  1
  H  345  1  0.05006500  0.50698500  0.60619000  1
  H  346  1  0.02850400  0.52272300  0.58515700  1
  H  347  1  0.03531400  0.45614600  0.52062400  1
  H  348  1  0.05693400  0.44011100  0.54144500  1
  H  349  1  0.02784400  0.43389600  0.57133300  1
  H  350  1  0.02167900  0.39235700  0.55607500  1
  H  351  1  0.09251600  0.38517400  0.57369800  1
  H  352  1  0.09895800  0.42720500  0.58939200  1
  H  353  1  0.09516600  0.46882000  0.62893900  1
  H  354  1  0.02369200  0.47476400  0.61082700  1
  H  355  1  0.01228000  0.48984000  0.65172200  1
  H  360  1  0.08353500  0.48371600  0.66951800  1
  H  386  1  0.13977900  0.50349300  0.90016100  1
  H  387  1  0.10106900  0.49798800  0.88307200  1
  H  388  1  0.13265700  0.43928100  0.90227200  1
  H  389  1  0.09384800  0.43362800  0.88533000  1
  H  390  1  0.04989000  0.44478800  0.90006700  1
  H  391  1  0.02838600  0.46568700  0.93679100  1
  H  392  1  0.03510700  0.53034000  0.93490500  1
  H  393  1  0.05673600  0.50957000  0.89797100  1
  H  394  1  0.02764900  0.47966700  0.86190400  1
  H  395  1  0.02143800  0.49491200  0.83564000  1
  H  396  1  0.09228100  0.47731700  0.81078600  1
  H  397  1  0.09876000  0.46162400  0.83712000  1
  H  398  1  0.09495800  0.42210600  0.83921500  1
  H  399  1  0.02347300  0.44019900  0.86325300  1
  H  400  1  0.01206100  0.39927400  0.83741100  1
  H  405  1  0.08335300  0.38156800  0.81354200  1
  H  431  1  0.63983000  0.91763000  0.43092800  1
  H  432  1  0.60114300  0.90051000  0.41932400  1
  H  433  1  0.63273100  0.91971500  0.49724700  1
  H  434  1  0.59392300  0.90276000  0.48594900  1
  H  435  1  0.54998400  0.91752000  0.48951000  1
  H  436  1  0.52845600  0.95427700  0.50542400  1
  H  437  1  0.53518000  0.95239900  0.43891600  1
  H  438  1  0.55679100  0.91548100  0.42267400  1
  H  439  1  0.52774300  0.87932800  0.41644300  1
  H  440  1  0.52158200  0.85304700  0.37490300  1
  H  441  1  0.59243000  0.82825200  0.36772300  1
  H  442  1  0.59886300  0.85459000  0.40975400  1
  H  443  1  0.59505300  0.85666700  0.45135200  1
  H  444  1  0.52357000  0.88071200  0.45730600  1
  H  445  1  0.51216300  0.85487400  0.47240000  1
  H  450  1  0.58345600  0.83100600  0.46623100  1
  H  476  1  0.63993400  0.62011000  0.48603400  1
  H  477  1  0.60124700  0.63172100  0.48050800  1
  H  478  1  0.63282500  0.55379800  0.42179600  1
  H  479  1  0.59403000  0.56509900  0.41612800  1
  H  480  1  0.55009600  0.56153700  0.42733100  1
  H  481  1  0.52856700  0.54560900  0.44817200  1
  H  482  1  0.53527300  0.61213500  0.51278700  1
  H  483  1  0.55690500  0.62837300  0.49213100  1
  H  484  1  0.52784700  0.63459900  0.46221200  1
  H  485  1  0.52168500  0.67613700  0.47747400  1
  H  486  1  0.59252300  0.68331500  0.45984000  1
  H  487  1  0.59895700  0.64128200  0.44414100  1
  H  488  1  0.59516400  0.59967600  0.40460700  1
  H  489  1  0.52368900  0.59373100  0.42271600  1
  H  490  1  0.51227800  0.57865400  0.38181900  1
  H  495  1  0.58353600  0.58478200  0.36403300  1
  H  521  1  0.63977100  0.56499600  0.13337700  1
  H  522  1  0.60106700  0.57050700  0.15047000  1
  H  523  1  0.63265800  0.62921200  0.13127000  1
  H  524  1  0.59385100  0.63486800  0.14821600  1
  H  525  1  0.54987500  0.62371100  0.13347400  1
  H  526  1  0.52833000  0.60268300  0.09667300  1
  H  527  1  0.53516200  0.53814000  0.09871400  1
  H  528  1  0.55672700  0.55894100  0.13558700  1
  H  529  1  0.52765000  0.58882800  0.17164000  1
  H  530  1  0.52143700  0.57358700  0.19791000  1
  H  531  1  0.59228000  0.59117600  0.22276000  1
  H  532  1  0.59876100  0.60686800  0.19642300  1
  H  533  1  0.59496900  0.64641300  0.19434400  1
  H  534  1  0.52349300  0.62829800  0.17029000  1
  H  535  1  0.51206700  0.66920500  0.19612100  1
  H  540  1  0.58334200  0.68696300  0.22002100  1
  H  547  1  0.94124600  0.54414900  0.25943000  1
  H  552  1  0.90394200  0.59561900  0.34233800  1
  H  554  1  0.93290400  0.55265800  0.23096100  1
  H  561  1  0.94114900  0.76693800  0.50672200  1
  H  566  1  0.90381700  0.79837400  0.45527400  1
  H  568  1  0.93285100  0.72991000  0.49830700  1
  H  575  1  0.94105800  0.79144100  0.28392600  1
  H  580  1  0.90335600  0.70859100  0.25240700  1
  H  582  1  0.93273500  0.81993500  0.32101800  1
  H  589  1  0.44125500  0.52434600  0.77410800  1
  H  594  1  0.40394600  0.47287100  0.69121400  1
  H  596  1  0.43294800  0.51593800  0.80273000  1
  H  603  1  0.44115800  0.30155200  0.52680400  1
  H  608  1  0.40384100  0.27012200  0.57828200  1
  H  610  1  0.43283200  0.33864200  0.53541800  1
  H  617  1  0.44104400  0.27707300  0.74961700  1
  H  622  1  0.40335400  0.35989100  0.78113800  1
  H  624  1  0.43275300  0.24846600  0.71258800  1
  H  631  1  0.01726700  0.30151600  0.77407200  1
  H  636  1  0.05459400  0.27007000  0.69115100  1
  H  638  1  0.02560400  0.33859500  0.80255400  1
  H  645  1  0.01736500  0.27695800  0.52672200  1
  H  650  1  0.05466800  0.35988200  0.57822700  1
  H  652  1  0.02568400  0.24843800  0.53529500  1
  H  659  1  0.01748800  0.52426700  0.74951800  1
  H  664  1  0.05516700  0.47297000  0.78104400  1
  H  666  1  0.02581300  0.51574600  0.71252600  1
  H  673  1  0.51728000  0.76698200  0.25949400  1
  H  678  1  0.55461100  0.79843200  0.34238100  1
  H  680  1  0.52557800  0.72995900  0.23088600  1
  H  687  1  0.51736600  0.79154500  0.50682300  1
  H  692  1  0.55469000  0.70861700  0.45532800  1
  H  694  1  0.52571200  0.81998700  0.49818400  1
  H  701  1  0.51748500  0.54422600  0.28402600  1
  H  706  1  0.55516300  0.59552800  0.25250500  1
  H  708  1  0.52581300  0.55274200  0.32102600  1
  H  715  1  0.74466500  0.56572600  0.48545800  1
  H  720  1  0.67675500  0.60355100  0.46031900  1
  H  722  1  0.78527200  0.57128800  0.47438400  1
  H  729  1  0.74456600  0.97137000  0.48514900  1
  H  734  1  0.67663400  0.90844500  0.44732500  1
  H  736  1  0.78518700  0.95478400  0.47955600  1
  H  743  1  0.74474800  0.56539300  0.07945800  1
  H  748  1  0.67676800  0.59050900  0.14238900  1
  H  750  1  0.78534900  0.57649700  0.09610500  1
  H  757  1  0.24466400  0.50276700  0.54808000  1
  H  762  1  0.17675800  0.46494100  0.57322300  1
  H  764  1  0.28526400  0.49722300  0.55918500  1
  H  771  1  0.24456200  0.09712400  0.54839000  1
  H  776  1  0.17662800  0.16005500  0.58621900  1
  H  778  1  0.28518000  0.11373800  0.55396300  1
  H  785  1  0.24474600  0.50310200  0.95408300  1
  H  790  1  0.17676900  0.47798100  0.89115400  1
  H  792  1  0.28536700  0.49206100  0.93748400  1
  H  799  1  0.97082600  0.57489300  0.54418100  1
  H  804  1  0.00709400  0.49527200  0.51959000  1
  H  806  1  0.94962300  0.57792200  0.51418400  1
  H  813  1  0.97064000  0.02087000  0.47596800  1
  H  818  1  0.00899900  0.07581300  0.55757500  1
  H  820  1  0.94952200  0.98790400  0.47297000  1
  H  827  1  0.97080100  0.50670100  0.02997200  1
  H  832  1  0.00749400  0.53270800  0.97475600  1
  H  834  1  0.94971200  0.53667400  0.06292900  1
  H  841  1  0.47071400  0.49356900  0.48938000  1
  H  846  1  0.50711300  0.57407300  0.51474000  1
  H  848  1  0.44961900  0.49057100  0.51936100  1
  H  855  1  0.47061800  0.04761100  0.55757300  1
  H  860  1  0.50739800  0.99258600  0.47695500  1
  H  862  1  0.44952000  0.08058900  0.56057400  1
  H  869  1  0.47088200  0.56181900  0.00364700  1
  H  874  1  0.50691000  0.53672200  0.05878100  1
  H  876  1  0.44971300  0.53182800  0.97062000  1
  H  902  1  0.81813600  0.42542200  0.80352600  1
  H  903  1  0.85729900  0.43039800  0.79262200  1
  H  904  1  0.82490100  0.48957600  0.86978300  1
  H  905  1  0.86437200  0.49466100  0.85916300  1
  H  906  1  0.90893700  0.48299700  0.86270400  1
  H  907  1  0.93022100  0.46227100  0.87824700  1
  H  908  1  0.92358700  0.39776400  0.81192900  1
  H  909  1  0.90206500  0.41871400  0.79621500  1
  H  910  1  0.93076300  0.44877500  0.78961500  1
  H  911  1  0.93694400  0.43357000  0.74808200  1
  H  912  1  0.86612100  0.45119400  0.74090100  1
  H  913  1  0.85967600  0.46683900  0.78295200  1
  H  914  1  0.86346300  0.50634300  0.82454300  1
  H  915  1  0.93491700  0.48827400  0.83049300  1
  H  916  1  0.94634800  0.52918100  0.84549900  1
  H  921  1  0.87508500  0.54691600  0.83935600  1
  H  947  1  0.81804400  0.77661900  0.85870100  1
  H  948  1  0.85719900  0.76076000  0.85373100  1
  H  949  1  0.82478900  0.77871600  0.79455600  1
  H  950  1  0.86426200  0.76303300  0.78946700  1
  H  951  1  0.90884000  0.77824300  0.80113900  1
  H  952  1  0.93012500  0.81450700  0.82186604  1
  H  953  1  0.92348400  0.81269400  0.88637100  1
  H  954  1  0.90196000  0.77603300  0.86542000  1
  H  955  1  0.93066600  0.73937000  0.83534800  1
  H  956  1  0.93683900  0.71303700  0.85055300  1
  H  957  1  0.86600400  0.68825500  0.83293700  1
  H  958  1  0.85956900  0.71466200  0.81729700  1
  H  959  1  0.86337400  0.71673800  0.77780500  1
  H  960  1  0.93483400  0.74074700  0.79585100  1
  H  961  1  0.94625000  0.71483900  0.75492100  1
  H  966  1  0.87497000  0.69098700  0.73724400  1
  H  992  1  0.81824100  0.48057800  0.50745500  1
  H  993  1  0.85740200  0.49148100  0.52332100  1
  H  994  1  0.82500700  0.41433200  0.50535300  1
  H  995  1  0.86447100  0.42494400  0.52104800  1
  H  996  1  0.90903900  0.42140000  0.50583800  1
  H  997  1  0.93032200  0.40586000  0.46957200  1
  H  998  1  0.92368600  0.47217700  0.47138200  1
  H  999  1  0.90216400  0.48788700  0.50804300  1
  H  1000  1  0.93086300  0.49446000  0.54469200  1
  H  1001  1  0.93707400  0.53596900  0.57101200  1
  H  1002  1  0.86624600  0.54319600  0.59584700  1
  H  1003  1  0.85977600  0.50115000  0.56944000  1
  H  1004  1  0.86356300  0.45956600  0.56735600  1
  H  1005  1  0.93501500  0.45360800  0.54333400  1
  H  1006  1  0.94643200  0.43860700  0.56922200  1
  H  1011  1  0.87519400  0.44473900  0.59313400  1
  H  1037  1  0.31814200  0.36315600  0.97642800  1
  H  1038  1  0.35730200  0.35819300  0.98733200  1
  H  1039  1  0.32490700  0.29901300  0.91017900  1
  H  1040  1  0.36437300  0.29392800  0.92079000  1
  H  1041  1  0.40893800  0.30559400  0.91724800  1
  H  1042  1  0.43022300  0.32631900  0.90170800  1
  H  1043  1  0.42359200  0.39082700  0.96802700  1
  H  1044  1  0.40206800  0.36987800  0.98374200  1
  H  1045  1  0.43076300  0.33981500  0.99033800  1
  H  1046  1  0.43694800  0.35501100  0.03187300  1
  H  1047  1  0.36612100  0.33739600  0.03905300  1
  H  1048  1  0.35967600  0.32175400  0.99700100  1
  H  1049  1  0.36347600  0.28227000  0.95542600  1
  H  1050  1  0.43493600  0.30032000  0.94946200  1
  H  1051  1  0.44635300  0.25938800  0.93443200  1
  H  1056  1  0.37507300  0.24170800  0.94061100  1
  H  1082  1  0.31805500  0.01196600  0.92125200  1
  H  1083  1  0.35720600  0.02783200  0.92622200  1
  H  1084  1  0.32479300  0.00987200  0.98539000  1
  H  1085  1  0.36425700  0.02556400  0.99049000  1
  H  1086  1  0.40884200  0.01035200  0.97881900  1
  H  1087  1  0.43012600  0.97408430  0.95808830  1
  H  1088  1  0.42348500  0.97589730  0.89358330  1
  H  1089  1  0.40196000  0.01255800  0.91453600  1
  H  1090  1  0.43066700  0.04922200  0.94461000  1
  H  1091  1  0.43684400  0.07555100  0.92940000  1
  H  1092  1  0.36601200  0.10033400  0.94700600  1
  H  1093  1  0.35957000  0.07393400  0.96265700  1
  H  1094  1  0.36336200  0.07186600  0.00217700  1
  H  1095  1  0.43481300  0.04784500  0.98410600  1
  H  1096  1  0.44624400  0.07375100  0.02501400  1
  H  1101  1  0.37498400  0.09762700  0.04274900  1
  H  1127  1  0.31824400  0.30799400  0.27249800  1
  H  1128  1  0.35740700  0.29711400  0.25663700  1
  H  1129  1  0.32497600  0.37425300  0.27459900  1
  H  1130  1  0.36446000  0.36365400  0.25891500  1
  H  1131  1  0.40904000  0.36719000  0.27411700  1
  H  1132  1  0.43032200  0.38273100  0.31038400  1
  H  1133  1  0.42368600  0.31641200  0.30857100  1
  H  1134  1  0.40216300  0.30070300  0.27191000  1
  H  1135  1  0.43086100  0.29413000  0.23526300  1
  H  1136  1  0.43707100  0.25261900  0.20894000  1
  H  1137  1  0.36624000  0.24539700  0.18410700  1
  H  1138  1  0.35977400  0.28744400  0.21051800  1
  H  1139  1  0.36356300  0.32902700  0.21259900  1
  H  1140  1  0.43501400  0.33498000  0.23661900  1
  H  1141  1  0.44644800  0.34997400  0.21070900  1
  H  1146  1  0.37518600  0.34382900  0.18682900  1
  H  1172  1  0.13982900  0.01091600  0.97582900  1
  H  1173  1  0.10114600  0.02803400  0.98742600  1
  H  1174  1  0.13273700  0.00883000  0.90950800  1
  H  1175  1  0.09392900  0.02578400  0.92080100  1
  H  1176  1  0.04993800  0.01097700  0.91721400  1
  H  1177  1  0.02852700  0.97440230  0.90150930  1
  H  1178  1  0.03512700  0.97618930  0.96807030  1
  H  1179  1  0.05680400  0.01312200  0.98409400  1
  H  1180  1  0.02774600  0.04921000  0.99031200  1
  H  1181  1  0.02158400  0.07550200  0.03185200  1
  H  1182  1  0.09243200  0.10029100  0.03902500  1
  H  1183  1  0.09886000  0.07395400  0.99699100  1
  H  1184  1  0.09505400  0.07187600  0.95539700  1
  H  1185  1  0.02357100  0.04783000  0.94944500  1
  H  1186  1  0.01216100  0.07366700  0.93435200  1
  H  1191  1  0.08345300  0.09753900  0.94052100  1
  H  1217  1  0.13994000  0.30842600  0.92072300  1
  H  1218  1  0.10125000  0.29681700  0.92624300  1
  H  1219  1  0.13282200  0.37474600  0.98495000  1
  H  1220  1  0.09402700  0.36344400  0.99061600  1
  H  1221  1  0.05006500  0.36703300  0.97939500  1
  H  1222  1  0.02850400  0.38277100  0.95836200  1
  H  1223  1  0.03531400  0.31619400  0.89382900  1
  H  1224  1  0.05693400  0.30015900  0.91465000  1
  H  1225  1  0.02784400  0.29394400  0.94453800  1
  H  1226  1  0.02167900  0.25240500  0.92928000  1
  H  1227  1  0.09251600  0.24522200  0.94690300  1
  H  1228  1  0.09895800  0.28725300  0.96259700  1
  H  1229  1  0.09516600  0.32886800  0.00214400  1
  H  1230  1  0.02369200  0.33481200  0.98403200  1
  H  1231  1  0.01228000  0.34988800  0.02492700  1
  H  1236  1  0.08353500  0.34376400  0.04272300  1
  H  1262  1  0.13977900  0.36354100  0.27336600  1
  H  1263  1  0.10106900  0.35803600  0.25627700  1
  H  1264  1  0.13265700  0.29932900  0.27547700  1
  H  1265  1  0.09384800  0.29367600  0.25853500  1
  H  1266  1  0.04989000  0.30483600  0.27327200  1
  H  1267  1  0.02838600  0.32573500  0.30999600  1
  H  1268  1  0.03510700  0.39038800  0.30811000  1
  H  1269  1  0.05673600  0.36961800  0.27117600  1
  H  1270  1  0.02764900  0.33971500  0.23510900  1
  H  1271  1  0.02143800  0.35496000  0.20884500  1
  H  1272  1  0.09228100  0.33736500  0.18399100  1
  H  1273  1  0.09876000  0.32167200  0.21032500  1
  H  1274  1  0.09495800  0.28215400  0.21242000  1
  H  1275  1  0.02347300  0.30024700  0.23645800  1
  H  1276  1  0.01206100  0.25932200  0.21061600  1
  H  1281  1  0.08335300  0.24161600  0.18674700  1
  H  1307  1  0.63983000  0.77767800  0.80413300  1
  H  1308  1  0.60114300  0.76055800  0.79252900  1
  H  1309  1  0.63273100  0.77976300  0.87045200  1
  H  1310  1  0.59392300  0.76280800  0.85915400  1
  H  1311  1  0.54998400  0.77756800  0.86271500  1
  H  1312  1  0.52845600  0.81432500  0.87862900  1
  H  1313  1  0.53518000  0.81244700  0.81212100  1
  H  1314  1  0.55679100  0.77552900  0.79587900  1
  H  1315  1  0.52774300  0.73937600  0.78964800  1
  H  1316  1  0.52158200  0.71309500  0.74810800  1
  H  1317  1  0.59243000  0.68830000  0.74092800  1
  H  1318  1  0.59886300  0.71463800  0.78295900  1
  H  1319  1  0.59505300  0.71671500  0.82455700  1
  H  1320  1  0.52357000  0.74076000  0.83051100  1
  H  1321  1  0.51216300  0.71492200  0.84560500  1
  H  1326  1  0.58345600  0.69105400  0.83943600  1
  H  1352  1  0.63993400  0.48015800  0.85923900  1
  H  1353  1  0.60124700  0.49176900  0.85371300  1
  H  1354  1  0.63282500  0.41384600  0.79500100  1
  H  1355  1  0.59403000  0.42514700  0.78933300  1
  H  1356  1  0.55009600  0.42158500  0.80053600  1
  H  1357  1  0.52856700  0.40565700  0.82137700  1
  H  1358  1  0.53527300  0.47218300  0.88599200  1
  H  1359  1  0.55690500  0.48842100  0.86533600  1
  H  1360  1  0.52784700  0.49464700  0.83541700  1
  H  1361  1  0.52168500  0.53618500  0.85067900  1
  H  1362  1  0.59252300  0.54336300  0.83304500  1
  H  1363  1  0.59895700  0.50133000  0.81734600  1
  H  1364  1  0.59516400  0.45972400  0.77781200  1
  H  1365  1  0.52368900  0.45377900  0.79592100  1
  H  1366  1  0.51227800  0.43870200  0.75502400  1
  H  1371  1  0.58353600  0.44483000  0.73723800  1
  H  1397  1  0.63977100  0.42504400  0.50658200  1
  H  1398  1  0.60106700  0.43055500  0.52367500  1
  H  1399  1  0.63265800  0.48926000  0.50447500  1
  H  1400  1  0.59385100  0.49491600  0.52142100  1
  H  1401  1  0.54987500  0.48375900  0.50667900  1
  H  1402  1  0.52833000  0.46273100  0.46987804  1
  H  1403  1  0.53516200  0.39818800  0.47191900  1
  H  1404  1  0.55672700  0.41898900  0.50879200  1
  H  1405  1  0.52765000  0.44887600  0.54484500  1
  H  1406  1  0.52143700  0.43363500  0.57111500  1
  H  1407  1  0.59228000  0.45122400  0.59596500  1
  H  1408  1  0.59876100  0.46691600  0.56962800  1
  H  1409  1  0.59496900  0.50646100  0.56754900  1
  H  1410  1  0.52349300  0.48834600  0.54349500  1
  H  1411  1  0.51206700  0.52925300  0.56932600  1
  H  1416  1  0.58334200  0.54701100  0.59322600  1
  H  1423  1  0.94124600  0.40419700  0.63263500  1
  H  1428  1  0.90394200  0.45566700  0.71554300  1
  H  1430  1  0.93290400  0.41270600  0.60416600  1
  H  1437  1  0.94114900  0.62698600  0.87992700  1
  H  1442  1  0.90381700  0.65842200  0.82847900  1
  H  1444  1  0.93285100  0.58995800  0.87151200  1
  H  1451  1  0.94105800  0.65148900  0.65713104  1
  H  1456  1  0.90335600  0.56863900  0.62561200  1
  H  1458  1  0.93273500  0.67998300  0.69422300  1
  H  1465  1  0.44125500  0.38439400  0.14731300  1
  H  1470  1  0.40394600  0.33291900  0.06441900  1
  H  1472  1  0.43294800  0.37598600  0.17593500  1
  H  1479  1  0.44115800  0.16160000  0.90000900  1
  H  1484  1  0.40384100  0.13017000  0.95148700  1
  H  1486  1  0.43283200  0.19869000  0.90862300  1
  H  1493  1  0.44104400  0.13712100  0.12282200  1
  H  1498  1  0.40335400  0.21993900  0.15434300  1
  H  1500  1  0.43275300  0.10851400  0.08579300  1
  H  1507  1  0.01726700  0.16156400  0.14727700  1
  H  1512  1  0.05459400  0.13011800  0.06435600  1
  H  1514  1  0.02560400  0.19864300  0.17575900  1
  H  1521  1  0.01736500  0.13700600  0.89992700  1
  H  1526  1  0.05466800  0.21993000  0.95143200  1
  H  1528  1  0.02568400  0.10848600  0.90850000  1
  H  1535  1  0.01748800  0.38431500  0.12272300  1
  H  1540  1  0.05516700  0.33301800  0.15424900  1
  H  1542  1  0.02581300  0.37579400  0.08573100  1
  H  1549  1  0.51728000  0.62703000  0.63269904  1
  H  1554  1  0.55461100  0.65848000  0.71558600  1
  H  1556  1  0.52557800  0.59000700  0.60409100  1
  H  1563  1  0.51736600  0.65159300  0.88002800  1
  H  1568  1  0.55469000  0.56866500  0.82853300  1
  H  1570  1  0.52571200  0.68003500  0.87138900  1
  H  1577  1  0.51748500  0.40427400  0.65723100  1
  H  1582  1  0.55516300  0.45557600  0.62571000  1
  H  1584  1  0.52581300  0.41279000  0.69423100  1
  H  1591  1  0.74466500  0.42577400  0.85866300  1
  H  1596  1  0.67675500  0.46359900  0.83352400  1
  H  1598  1  0.78527200  0.43133600  0.84758900  1
  H  1605  1  0.74456600  0.83141800  0.85835400  1
  H  1610  1  0.67663400  0.76849300  0.82053000  1
  H  1612  1  0.78518700  0.81483200  0.85276100  1
  H  1619  1  0.74474800  0.42544100  0.45266300  1
  H  1624  1  0.67676800  0.45055700  0.51559400  1
  H  1626  1  0.78534900  0.43654500  0.46931000  1
  H  1633  1  0.24466400  0.36281500  0.92128500  1
  H  1638  1  0.17675800  0.32498900  0.94642800  1
  H  1640  1  0.28526400  0.35727100  0.93239000  1
  H  1647  1  0.24456200  0.95717230  0.92159530  1
  H  1652  1  0.17662800  0.02010300  0.95942400  1
  H  1654  1  0.28518000  0.97378630  0.92716830  1
  H  1661  1  0.24474600  0.36315000  0.32728800  1
  H  1666  1  0.17676900  0.33802900  0.26435900  1
  H  1668  1  0.28536700  0.35210900  0.31068900  1
  H  1675  1  0.97082600  0.43494100  0.91738600  1
  H  1680  1  0.00709400  0.35532000  0.89279500  1
  H  1682  1  0.94962300  0.43797000  0.88738900  1
  H  1689  1  0.97064000  0.88091800  0.84917300  1
  H  1694  1  0.00899900  0.93586130  0.93078030  1
  H  1696  1  0.94952200  0.84795200  0.84617500  1
  H  1703  1  0.97080100  0.36674900  0.40317700  1
  H  1708  1  0.00749400  0.39275600  0.34796100  1
  H  1710  1  0.94971200  0.39672200  0.43613400  1
  H  1717  1  0.47071400  0.35361700  0.86258500  1
  H  1722  1  0.50711300  0.43412100  0.88794500  1
  H  1724  1  0.44961900  0.35061900  0.89256600  1
  H  1731  1  0.47061800  0.90765930  0.93077830  1
  H  1736  1  0.50739800  0.85263400  0.85016000  1
  H  1738  1  0.44952000  0.94063730  0.93377930  1
  H  1745  1  0.47088200  0.42186700  0.37685200  1
  H  1750  1  0.50691000  0.39677000  0.43198600  1
  H  1752  1  0.44971300  0.39187600  0.34382500  1
  C  1  1  0.91161400  0.68095900  0.46983800  1
  C  2  1  0.92886600  0.66422800  0.46806400  1
  C  3  1  0.92193100  0.64029500  0.45941500  1
  C  4  1  0.89761800  0.63305700  0.45409300  1
  C  5  1  0.88094600  0.65062800  0.45594400  1
  C  6  1  0.88765800  0.67446000  0.46428200  1
  C  7  1  0.89013400  0.60696600  0.44408900  1
  C  8  1  0.89388000  0.59753800  0.41732400  1
  C  9  1  0.87594800  0.59946200  0.40267700  1
  C  10  1  0.87968100  0.59020800  0.37786000  1
  C  11  1  0.90154400  0.57835400  0.36699400  1
  C  12  1  0.92044900  0.58004400  0.38199800  1
  C  13  1  0.91665500  0.58917400  0.40658100  1
  C  14  1  0.90440300  0.59352100  0.45397500  1
  C  15  1  0.86479600  0.60378800  0.45088700  1
  C  16  1  0.85093700  0.58313100  0.43578500  1
  C  17  1  0.82795700  0.57979900  0.44247600  1
  C  18  1  0.81803500  0.59629800  0.46500100  1
  C  19  1  0.83175100  0.61676200  0.48043600  1
  C  20  1  0.85492700  0.61990400  0.47384000  1
  C  21  1  0.91216500  0.60507000  0.47825700  1
  C  22  1  0.92473000  0.59261400  0.48760100  1
  C  23  1  0.92950400  0.56763300  0.47339400  1
  C  24  1  0.92084100  0.55577200  0.44956000  1
  C  25  1  0.90824400  0.56829600  0.44024600  1
  C  46  1  0.91142500  0.84047900  0.36990700  1
  C  47  1  0.92876100  0.85548100  0.38662700  1
  C  48  1  0.92184600  0.87076500  0.41057500  1
  C  49  1  0.89753300  0.87268900  0.41782500  1
  C  50  1  0.88085400  0.85697400  0.40026400  1
  C  51  1  0.88754000  0.84149300  0.37643000  1
  C  52  1  0.89003600  0.88876600  0.44391200  1
  C  53  1  0.89378300  0.87143200  0.45333800  1
  C  54  1  0.87585000  0.85485300  0.45139600  1
  C  55  1  0.87957500  0.83929000  0.46065200  1
  C  56  1  0.90143700  0.84027800  0.47250700  1
  C  57  1  0.92034300  0.85360000  0.47083400  1
  C  58  1  0.91655300  0.86905800  0.46171200  1
  C  59  1  0.90430400  0.91209400  0.45735700  1
  C  60  1  0.86469600  0.89873800  0.44708400  1
  C  61  1  0.85084100  0.90430300  0.46774500  1
  C  62  1  0.82784700  0.91429400  0.47106000  1
  C  63  1  0.81790300  0.92033700  0.45457300  1
  C  64  1  0.83164300  0.91530600  0.43412400  1
  C  65  1  0.85482300  0.90557800  0.43097500  1
  C  66  1  0.91206600  0.92483000  0.44581300  1
  C  67  1  0.92463300  0.94662700  0.45827000  1
  C  68  1  0.92940200  0.95740100  0.48325200  1
  C  69  1  0.92073800  0.94542800  0.49511000  1
  C  70  1  0.90814100  0.92359000  0.48258600  1
  C  91  1  0.91172200  0.58107200  0.21034900  1
  C  92  1  0.92894900  0.58280100  0.19535900  1
  C  93  1  0.92202600  0.59144500  0.18007700  1
  C  94  1  0.89771400  0.59675400  0.17815000  1
  C  95  1  0.88104500  0.59491300  0.19388400  1
  C  96  1  0.88775000  0.58657800  0.20939200  1
  C  97  1  0.89023500  0.60675700  0.16206300  1
  C  98  1  0.89397600  0.63351500  0.17939000  1
  C  99  1  0.87605100  0.64816600  0.19597000  1
  C  100  1  0.87979900  0.67297800  0.21153100  1
  C  101  1  0.90168100  0.68382300  0.21053200  1
  C  102  1  0.92056900  0.66881600  0.19721000  1
  C  103  1  0.91675700  0.64424400  0.18176500  1
  C  104  1  0.90450800  0.59687800  0.13873500  1
  C  105  1  0.86489800  0.59996900  0.15209700  1
  C  106  1  0.85104000  0.61506500  0.14653400  1
  C  107  1  0.82806000  0.60837100  0.13651500  1
  C  108  1  0.81811700  0.58585000  0.13048100  1
  C  109  1  0.83185300  0.57042500  0.13551700  1
  C  110  1  0.85502800  0.57701700  0.14525600  1
  C  111  1  0.91226900  0.57259600  0.12599800  1
  C  112  1  0.92483000  0.56325100  0.10419600  1
  C  113  1  0.92960100  0.57745900  0.09342200  1
  C  114  1  0.92094000  0.60129200  0.10539500  1
  C  115  1  0.90834400  0.61060500  0.12723400  1
  C  136  1  0.41150100  0.38753400  0.56377000  1
  C  137  1  0.42886200  0.40425000  0.56545900  1
  C  138  1  0.42194800  0.42819800  0.57411400  1
  C  139  1  0.39763500  0.43544600  0.57944600  1
  C  140  1  0.38095500  0.41788500  0.57759700  1
  C  141  1  0.38763700  0.39405200  0.56924200  1
  C  142  1  0.39014100  0.46153200  0.58945800  1
  C  143  1  0.39388300  0.47095700  0.61622200  1
  C  144  1  0.37594900  0.46902900  0.63086700  1
  C  145  1  0.37968000  0.47828800  0.65568500  1
  C  146  1  0.40154900  0.49013000  0.66654900  1
  C  147  1  0.42044400  0.48846900  0.65154900  1
  C  148  1  0.41665800  0.47931800  0.62696300  1
  C  149  1  0.40440500  0.47497600  0.57956900  1
  C  150  1  0.36480100  0.46470100  0.58265700  1
  C  151  1  0.35094200  0.48536000  0.59775700  1
  C  152  1  0.32796000  0.48868500  0.59106400  1
  C  153  1  0.31802100  0.47219600  0.56854000  1
  C  154  1  0.33175700  0.45174100  0.55311300  1
  C  155  1  0.35493000  0.44859000  0.55970600  1
  C  156  1  0.41216400  0.46342500  0.55528600  1
  C  157  1  0.42473000  0.47588100  0.54594300  1
  C  158  1  0.42949800  0.50086300  0.56014800  1
  C  159  1  0.42084000  0.51272300  0.58398300  1
  C  160  1  0.40824200  0.50020000  0.59329800  1
  C  181  1  0.41151300  0.22798000  0.66363500  1
  C  182  1  0.42876400  0.21302800  0.64690400  1
  C  183  1  0.42182800  0.19774500  0.62297000  1
  C  184  1  0.39751400  0.19582000  0.61573000  1
  C  185  1  0.38084400  0.21154500  0.63330400  1
  C  186  1  0.38755700  0.22704300  0.65713600  1
  C  187  1  0.39003400  0.17973400  0.58963700  1
  C  188  1  0.39378300  0.19706400  0.58020700  1
  C  189  1  0.37585300  0.21364500  0.58214500  1
  C  190  1  0.37958200  0.22920900  0.57289400  1
  C  191  1  0.40144400  0.22821300  0.56103300  1
  C  192  1  0.42034800  0.21489200  0.56270900  1
  C  193  1  0.41655300  0.19943700  0.57183400  1
  C  194  1  0.40430500  0.15640300  0.57618900  1
  C  195  1  0.36469800  0.16975800  0.58646100  1
  C  196  1  0.35084400  0.16419900  0.56580300  1
  C  197  1  0.32786400  0.15418300  0.56247500  1
  C  198  1  0.31789600  0.14813800  0.57894900  1
  C  199  1  0.33164300  0.15318600  0.59941000  1
  C  200  1  0.35482500  0.16291300  0.60256300  1
  C  201  1  0.41206600  0.14366700  0.58773500  1
  C  202  1  0.42462800  0.12186500  0.57527500  1
  C  203  1  0.42940200  0.11109200  0.55029200  1
  C  204  1  0.42073800  0.12306800  0.53843500  1
  C  205  1  0.40814100  0.14490500  0.55096000  1
  C  226  1  0.41171500  0.48747000  0.82322100  1
  C  227  1  0.42896500  0.48569800  0.83818000  1
  C  228  1  0.42203000  0.47705000  0.85346500  1
  C  229  1  0.39771500  0.47174200  0.85539500  1
  C  230  1  0.38104800  0.47358200  0.83966400  1
  C  231  1  0.38775800  0.48191800  0.82416700  1
  C  232  1  0.39023200  0.46174100  0.87148200  1
  C  233  1  0.39397500  0.43498100  0.85415500  1
  C  234  1  0.37604900  0.42033200  0.83757700  1
  C  235  1  0.37979400  0.39551900  0.82201100  1
  C  236  1  0.40168000  0.38467500  0.82300400  1
  C  237  1  0.42056700  0.39967900  0.83633100  1
  C  238  1  0.41675600  0.42425100  0.85177900  1
  C  239  1  0.40450800  0.47161700  0.89480900  1
  C  240  1  0.36489200  0.46853200  0.88145200  1
  C  241  1  0.35104200  0.45343400  0.88701700  1
  C  242  1  0.32805600  0.46010600  0.89702500  1
  C  243  1  0.31810700  0.48260300  0.90300700  1
  C  244  1  0.33183700  0.49807300  0.89803400  1
  C  245  1  0.35501700  0.49148600  0.88829900  1
  C  246  1  0.41226700  0.49589700  0.90754500  1
  C  247  1  0.42483000  0.50524300  0.92934700  1
  C  248  1  0.42960400  0.49103300  0.94011900  1
  C  249  1  0.42093800  0.46720200  0.92814800  1
  C  250  1  0.40834200  0.45789000  0.90631000  1
  C  271  1  0.04697100  0.22790900  0.56363300  1
  C  272  1  0.02964500  0.21293900  0.56537400  1
  C  273  1  0.03655200  0.19771800  0.57409200  1
  C  274  1  0.06087000  0.19590300  0.57947000  1
  C  275  1  0.07757500  0.21152800  0.57756100  1
  C  276  1  0.07088200  0.22693600  0.56915300  1
  C  277  1  0.06844800  0.17997800  0.58953600  1
  C  278  1  0.06462400  0.19715500  0.61623900  1
  C  279  1  0.08258800  0.21364600  0.63085700  1
  C  280  1  0.07885900  0.22916800  0.65565700  1
  C  281  1  0.05699700  0.22816100  0.66650800  1
  C  282  1  0.03808200  0.21483900  0.65152500  1
  C  283  1  0.04184700  0.19945000  0.62694400  1
  C  284  1  0.05439100  0.15676300  0.57963600  1
  C  285  1  0.09367900  0.16996300  0.58270500  1
  C  286  1  0.10756800  0.16461200  0.59793700  1
  C  287  1  0.13030300  0.15413700  0.59097600  1
  C  288  1  0.13921600  0.14656300  0.56757700  1
  C  289  1  0.12620400  0.15286400  0.55278200  1
  C  290  1  0.10345200  0.16329500  0.55976500  1
  C  291  1  0.04678500  0.14426700  0.55522800  1
  C  292  1  0.03442400  0.12262600  0.54584300  1
  C  293  1  0.03060600  0.11271000  0.56075300  1
  C  294  1  0.03835000  0.12374100  0.58449000  1
  C  295  1  0.05073000  0.14545800  0.59362800  1
  C  316  1  0.04700400  0.48733500  0.66353700  1
  C  317  1  0.02976300  0.48559600  0.64682600  1
  C  318  1  0.03667300  0.47688900  0.62290200  1
  C  319  1  0.06099100  0.47152400  0.61572100  1
  C  320  1  0.07768600  0.47343900  0.63327200  1
  C  321  1  0.07097700  0.48182300  0.65709500  1
  C  322  1  0.06854900  0.46146100  0.58972200  1
  C  323  1  0.06472400  0.43475900  0.58019000  1
  C  324  1  0.08268100  0.42014200  0.58207400  1
  C  325  1  0.07895500  0.39533800  0.57276400  1
  C  326  1  0.05708900  0.38448800  0.56090700  1
  C  327  1  0.03817500  0.39948000  0.56259200  1
  C  328  1  0.04194700  0.42405800  0.57177900  1
  C  329  1  0.05448900  0.47135700  0.57640600  1
  C  330  1  0.09377900  0.46828400  0.58652900  1
  C  331  1  0.10766800  0.45305700  0.56594700  1
  C  332  1  0.13039900  0.46002400  0.56242500  1
  C  333  1  0.13930000  0.48342800  0.57825000  1
  C  334  1  0.12631300  0.49819900  0.59937100  1
  C  335  1  0.10355000  0.49122400  0.60280300  1
  C  336  1  0.04688000  0.49578200  0.58832000  1
  C  337  1  0.03446000  0.50531800  0.57620700  1
  C  338  1  0.03053500  0.49049200  0.55165400  1
  C  339  1  0.03841700  0.46661800  0.53869200  1
  C  340  1  0.05083700  0.45736600  0.55111700  1
  C  361  1  0.04690800  0.38747000  0.82307500  1
  C  362  1  0.02955400  0.40417200  0.83810200  1
  C  363  1  0.03645400  0.42811500  0.85331800  1
  C  364  1  0.06077600  0.43530700  0.85513600  1
  C  365  1  0.07747900  0.41777300  0.83951200  1
  C  366  1  0.07078800  0.39396200  0.82408900  1
  C  367  1  0.06836800  0.46129300  0.87105800  1
  C  368  1  0.06453500  0.47082000  0.85388800  1
  C  369  1  0.08248700  0.46896200  0.83739800  1
  C  370  1  0.07872700  0.47824900  0.82189100  1
  C  371  1  0.05683400  0.49008400  0.82290600  1
  C  372  1  0.03794700  0.48841400  0.83623600  1
  C  373  1  0.04174700  0.47922800  0.85161800  1
  C  374  1  0.05430700  0.47460000  0.89425500  1
  C  375  1  0.09360200  0.46449500  0.88108500  1
  C  376  1  0.10749800  0.48507400  0.88643700  1
  C  377  1  0.13025600  0.48857300  0.89688700  1
  C  378  1  0.13922800  0.47271400  0.90439600  1
  C  379  1  0.12616000  0.45165300  0.89813900  1
  C  380  1  0.10337700  0.44823000  0.88775800  1
  C  381  1  0.04669900  0.46265100  0.90673300  1
  C  382  1  0.03429100  0.47465300  0.92833200  1
  C  383  1  0.03047200  0.49911600  0.93809000  1
  C  384  1  0.03822100  0.51226000  0.92725300  1
  C  385  1  0.05065000  0.49989200  0.90555400  1
  C  406  1  0.54706100  0.84049300  0.46981800  1
  C  407  1  0.52965700  0.85554700  0.46816800  1
  C  408  1  0.53655100  0.87077400  0.45945100  1
  C  409  1  0.56086900  0.87259000  0.45407400  1
  C  410  1  0.57757400  0.85696900  0.45598600  1
  C  411  1  0.57089600  0.84155000  0.46438200  1
  C  412  1  0.56844500  0.88851700  0.44400600  1
  C  413  1  0.56462300  0.87134000  0.41730700  1
  C  414  1  0.58258400  0.85484000  0.40269100  1
  C  415  1  0.57885700  0.83932700  0.37788700  1
  C  416  1  0.55698900  0.84033000  0.36703900  1
  C  417  1  0.53807600  0.85364700  0.38202400  1
  C  418  1  0.54185100  0.86905600  0.40660000  1
  C  419  1  0.55438700  0.91172600  0.45390200  1
  C  420  1  0.59367500  0.89853300  0.45084000  1
  C  421  1  0.60756500  0.90388300  0.43560900  1
  C  422  1  0.63030700  0.91434300  0.44256600  1
  C  423  1  0.63921900  0.92191800  0.46596700  1
  C  424  1  0.62620500  0.91561300  0.48075900  1
  C  425  1  0.60344600  0.90520000  0.47378100  1
  C  426  1  0.54679100  0.92420600  0.47833600  1
  C  427  1  0.53435600  0.94580300  0.48804400  1
  C  428  1  0.53048200  0.95565000  0.47349300  1
  C  429  1  0.53829000  0.94479100  0.44942000  1
  C  430  1  0.55071100  0.92305400  0.43994500  1
  C  451  1  0.54700500  0.58114900  0.37000500  1
  C  452  1  0.52976000  0.58289500  0.38671700  1
  C  453  1  0.53667100  0.59160600  0.41064200  1
  C  454  1  0.56098700  0.59696700  0.41782300  1
  C  455  1  0.57768300  0.59505700  0.40027600  1
  C  456  1  0.57097600  0.58667100  0.37645300  1
  C  457  1  0.56855000  0.60703300  0.44382200  1
  C  458  1  0.56472900  0.63373100  0.45335400  1
  C  459  1  0.58268700  0.64835200  0.45148200  1
  C  460  1  0.57896200  0.67315200  0.46077400  1
  C  461  1  0.55709800  0.68400100  0.47263400  1
  C  462  1  0.53817600  0.66901300  0.47094200  1
  C  463  1  0.54194900  0.64443500  0.46176500  1
  C  464  1  0.55449200  0.59714700  0.45714400  1
  C  465  1  0.59378000  0.60020800  0.44701400  1
  C  466  1  0.60766700  0.61543500  0.46759900  1
  C  467  1  0.63041100  0.60848100  0.47110600  1
  C  468  1  0.63929900  0.58506900  0.45529300  1
  C  469  1  0.62630700  0.57028800  0.43417900  1
  C  470  1  0.60354900  0.57726900  0.43074000  1
  C  471  1  0.54689800  0.57271000  0.44518800  1
  C  472  1  0.53448800  0.56297000  0.45705600  1
  C  473  1  0.53050900  0.57753300  0.48140100  1
  C  474  1  0.53835400  0.60162400  0.49465900  1
  C  475  1  0.55081600  0.61110600  0.48242700  1
  C  496  1  0.54680900  0.68102600  0.21041400  1
  C  497  1  0.52954300  0.66429900  0.19548100  1
  C  498  1  0.53647100  0.64037800  0.18024000  1
  C  499  1  0.56079300  0.63319800  0.17842500  1
  C  500  1  0.57748700  0.65074100  0.19405600  1
  C  501  1  0.57076900  0.67455400  0.20948900  1
  C  502  1  0.56837200  0.60720600  0.16249200  1
  C  503  1  0.56453600  0.59767300  0.17965800  1
  C  504  1  0.58248600  0.59953600  0.19615100  1
  C  505  1  0.57872800  0.59024500  0.21165500  1
  C  506  1  0.55683400  0.57841200  0.21064100  1
  C  507  1  0.53794900  0.58007300  0.19730100  1
  C  508  1  0.54174600  0.58926900  0.18192800  1
  C  509  1  0.55430700  0.59390600  0.13929100  1
  C  510  1  0.59360300  0.60400300  0.15246400  1
  C  511  1  0.60749800  0.58342000  0.14710400  1
  C  512  1  0.63026400  0.57993000  0.13667200  1
  C  513  1  0.63922800  0.59577800  0.12914500  1
  C  514  1  0.62616100  0.61684200  0.13540500  1
  C  515  1  0.60337800  0.62026300  0.14578500  1
  C  516  1  0.54669200  0.60584100  0.12679500  1
  C  517  1  0.53427200  0.59374500  0.10515100  1
  C  518  1  0.53050700  0.56918800  0.09540200  1
  C  519  1  0.53829700  0.55620300  0.10630500  1
  C  520  1  0.55065400  0.56862100  0.12800500  1
  C  541  1  0.90932900  0.57427500  0.30811000  1
  C  543  1  0.92867200  0.55632900  0.27025300  1
  C  544  1  0.91523300  0.57001800  0.26255700  1
  C  546  1  0.89576400  0.58903400  0.30149300  1
  C  551  1  0.90666100  0.57841600  0.33140100  1
  C  553  1  0.92121300  0.56575100  0.23940700  1
  C  555  1  0.90923700  0.78547300  0.47659000  1
  C  557  1  0.92857400  0.76556700  0.49454000  1
  C  558  1  0.91519100  0.74416700  0.48083200  1
  C  560  1  0.89565900  0.76409500  0.46183400  1
  C  565  1  0.90669500  0.80463300  0.47244300  1
  C  567  1  0.92120000  0.72534900  0.48518300  1
  C  569  1  0.90917900  0.74274000  0.26539300  1
  C  571  1  0.92849900  0.78060400  0.28528000  1
  C  572  1  0.91507600  0.78827100  0.30665400  1
  C  574  1  0.89558900  0.74935200  0.28676300  1
  C  579  1  0.90653100  0.71947700  0.24620400  1
  C  581  1  0.92094500  0.81136500  0.32551600  1
  C  583  1  0.40930500  0.49422500  0.72544800  1
  C  585  1  0.42868500  0.51215900  0.76329300  1
  C  586  1  0.41531000  0.49844900  0.77098800  1
  C  588  1  0.39575900  0.47946100  0.73207300  1
  C  593  1  0.40665700  0.49007600  0.70214900  1
  C  595  1  0.42130000  0.50281000  0.79416700  1
  C  597  1  0.40923900  0.28300400  0.55694500  1
  C  599  1  0.42859400  0.30290400  0.53898900  1
  C  600  1  0.41514900  0.32426900  0.55267300  1
  C  602  1  0.39567300  0.30438400  0.57170900  1
  C  607  1  0.40661400  0.26385400  0.56109000  1
  C  609  1  0.42101300  0.34314400  0.54849200  1
  C  611  1  0.40917500  0.32575000  0.76812800  1
  C  613  1  0.42847700  0.28788500  0.74824000  1
  C  614  1  0.41509400  0.28019700  0.72684300  1
  C  616  1  0.39557300  0.31912800  0.74676100  1
  C  621  1  0.40658900  0.34901600  0.78733600  1
  C  623  1  0.42110400  0.25702700  0.70802600  1
  C  625  1  0.04918200  0.28294000  0.72537900  1
  C  627  1  0.02983600  0.30286100  0.76324000  1
  C  628  1  0.04326300  0.32423100  0.77090000  1
  C  630  1  0.06275700  0.30431500  0.73198500  1
  C  635  1  0.05170900  0.26380700  0.70205900  1
  C  637  1  0.03740600  0.34309500  0.79397900  1
  C  639  1  0.04930500  0.32564400  0.55684900  1
  C  641  1  0.02993000  0.28779200  0.53890300  1
  C  642  1  0.04335000  0.28012100  0.55260800  1
  C  644  1  0.06286000  0.31902900  0.57161600  1
  C  649  1  0.05195300  0.34894300  0.56102100  1
  C  651  1  0.03745400  0.25700500  0.54835300  1
  C  653  1  0.04936700  0.49410800  0.76804200  1
  C  655  1  0.03005200  0.51207700  0.74815500  1
  C  656  1  0.04348800  0.49838400  0.72677100  1
  C  658  1  0.06295000  0.47935100  0.74667400  1
  C  663  1  0.05208000  0.49008000  0.78725100  1
  C  665  1  0.03750400  0.50265500  0.70789900  1
  C  667  1  0.54919000  0.78552700  0.30816600  1
  C  669  1  0.52985500  0.76561300  0.27030700  1
  C  670  1  0.54323900  0.74421600  0.26261700  1
  C  672  1  0.56277000  0.76415100  0.30154600  1
  C  677  1  0.55173300  0.80469100  0.33147000  1
  C  679  1  0.53723100  0.72539900  0.23945100  1
  C  681  1  0.54928800  0.74285200  0.47669600  1
  C  683  1  0.52993300  0.78071100  0.49464400  1
  C  684  1  0.54336400  0.78837000  0.48093600  1
  C  686  1  0.56285600  0.74946300  0.46193300  1
  C  691  1  0.55188100  0.71954200  0.47251500  1
  C  693  1  0.53755900  0.81139900  0.48509500  1
  C  695  1  0.54937900  0.57437400  0.26549600  1
  C  697  1  0.53004900  0.55641700  0.28538800  1
  C  698  1  0.54346400  0.57012900  0.30678000  1
  C  700  1  0.56295200  0.58914100  0.28687100  1
  C  705  1  0.55207700  0.57841800  0.24629600  1
  C  707  1  0.53750000  0.56583400  0.32564100  1
  C  709  1  0.70468300  0.58663700  0.46276100  1
  C  711  1  0.73849200  0.57449700  0.47694300  1
  C  712  1  0.75447500  0.58487800  0.46772000  1
  C  714  1  0.72048400  0.59741300  0.45325300  1
  C  719  1  0.68014200  0.58881700  0.46065700  1
  C  721  1  0.77910900  0.58284700  0.46965200  1
  C  723  1  0.70458800  0.92776700  0.46425300  1
  C  725  1  0.73840000  0.95408200  0.47638000  1
  C  726  1  0.75438800  0.93448700  0.46599600  1
  C  728  1  0.72038600  0.90748100  0.45347100  1
  C  733  1  0.68004600  0.92351700  0.46205700  1
  C  735  1  0.77901800  0.93848300  0.46802200  1
  C  737  1  0.70471300  0.58810000  0.12304000  1
  C  739  1  0.73857300  0.57391500  0.09674200  1
  C  740  1  0.75455500  0.58315700  0.11634800  1
  C  742  1  0.72053400  0.59758900  0.14332300  1
  C  747  1  0.68013100  0.59013300  0.12729800  1
  C  749  1  0.77919300  0.58123300  0.11239900  1
  C  751  1  0.20468700  0.48186200  0.57078600  1
  C  753  1  0.23849300  0.49399500  0.55659500  1
  C  754  1  0.25447800  0.48363400  0.56583900  1
  C  756  1  0.22049000  0.47107900  0.58028600  1
  C  761  1  0.18014600  0.47967700  0.57288700  1
  C  763  1  0.27910600  0.48566600  0.56392200  1
  C  765  1  0.20458400  0.14073200  0.56928900  1
  C  767  1  0.23839100  0.11441100  0.55716200  1
  C  768  1  0.25437800  0.13401100  0.56755100  1
  C  770  1  0.22038100  0.16101600  0.58007500  1
  C  775  1  0.18004500  0.14500700  0.57145600  1
  C  777  1  0.27900800  0.13002700  0.56552400  1
  C  779  1  0.20471900  0.48039400  0.91049700  1
  C  781  1  0.23857700  0.49458900  0.93679600  1
  C  782  1  0.25457000  0.48538500  0.91720500  1
  C  784  1  0.22054300  0.47090000  0.89021700  1
  C  789  1  0.18013400  0.47835600  0.90624400  1
  C  791  1  0.27920800  0.48731500  0.92118700  1
  C  793  1  0.99225800  0.52052300  0.52329700  1
  C  795  1  0.97400100  0.55729800  0.53170200  1
  C  796  1  0.96517300  0.54685600  0.50793900  1
  C  798  1  0.98383700  0.50930200  0.49891600  1
  C  803  1  0.00615100  0.51056700  0.53374700  1
  C  805  1  0.95174900  0.56095700  0.50142400  1
  C  807  1  0.99206600  0.05455600  0.53021900  1
  C  809  1  0.97389800  0.02602600  0.49355100  1
  C  810  1  0.96507700  0.01272700  0.50404400  1
  C  812  1  0.98380000  0.04129100  0.54141000  1
  C  817  1  0.00643600  0.07459400  0.54280900  1
  C  819  1  0.95164700  0.99211200  0.48993800  1
  C  821  1  0.99239600  0.52723800  0.99650300  1
  C  823  1  0.97408200  0.51913500  0.02483400  1
  C  824  1  0.96527400  0.54293300  0.03812400  1
  C  826  1  0.98395700  0.55171000  0.00955700  1
  C  831  1  0.00587300  0.51895400  0.97597300  1
  C  833  1  0.95184200  0.54943200  0.05872200  1
  C  835  1  0.49235000  0.54763000  0.50997100  1
  C  837  1  0.47397600  0.51114500  0.50181500  1
  C  838  1  0.46517100  0.52163800  0.52560800  1
  C  840  1  0.48388400  0.55901800  0.53442200  1
  C  845  1  0.50593900  0.55895900  0.50070300  1
  C  847  1  0.45175000  0.50753800  0.53212100  1
  C  849  1  0.49274600  0.01445200  0.50353800  1
  C  851  1  0.47390600  0.04248600  0.54000600  1
  C  852  1  0.46508600  0.05577600  0.52950700  1
  C  854  1  0.48382600  0.02721500  0.49214900  1
  C  859  1  0.50462000  0.99268100  0.49179800  1
  C  861  1  0.45164800  0.07638200  0.54360700  1
  C  863  1  0.49236800  0.54105200  0.03706200  1
  C  865  1  0.47412200  0.54932700  0.00872500  1
  C  866  1  0.46527100  0.52557000  0.99542600  1
  C  868  1  0.48401800  0.51656700  0.02389100  1
  C  873  1  0.50585000  0.55070300  0.05766600  1
  C  875  1  0.45183700  0.51907000  0.97482900  1
  C  877  1  0.91161400  0.54100700  0.84304300  1
  C  878  1  0.92886600  0.52427600  0.84126900  1
  C  879  1  0.92193100  0.50034300  0.83262000  1
  C  880  1  0.89761800  0.49310500  0.82729800  1
  C  881  1  0.88094600  0.51067600  0.82914900  1
  C  882  1  0.88765800  0.53450800  0.83748700  1
  C  883  1  0.89013400  0.46701400  0.81729400  1
  C  884  1  0.89388000  0.45758600  0.79052900  1
  C  885  1  0.87594800  0.45951000  0.77588200  1
  C  886  1  0.87968100  0.45025600  0.75106500  1
  C  887  1  0.90154400  0.43840200  0.74019900  1
  C  888  1  0.92044900  0.44009200  0.75520300  1
  C  889  1  0.91665500  0.44922200  0.77978600  1
  C  890  1  0.90440300  0.45356900  0.82718000  1
  C  891  1  0.86479600  0.46383600  0.82409200  1
  C  892  1  0.85093700  0.44317900  0.80899000  1
  C  893  1  0.82795700  0.43984700  0.81568100  1
  C  894  1  0.81803500  0.45634600  0.83820600  1
  C  895  1  0.83175100  0.47681000  0.85364100  1
  C  896  1  0.85492700  0.47995200  0.84704500  1
  C  897  1  0.91216500  0.46511800  0.85146200  1
  C  898  1  0.92473000  0.45266200  0.86080600  1
  C  899  1  0.92950400  0.42768100  0.84659900  1
  C  900  1  0.92084100  0.41582000  0.82276500  1
  C  901  1  0.90824400  0.42834400  0.81345100  1
  C  922  1  0.91142500  0.70052700  0.74311200  1
  C  923  1  0.92876100  0.71552900  0.75983200  1
  C  924  1  0.92184600  0.73081300  0.78378000  1
  C  925  1  0.89753300  0.73273700  0.79103000  1
  C  926  1  0.88085400  0.71702200  0.77346900  1
  C  927  1  0.88754000  0.70154100  0.74963500  1
  C  928  1  0.89003600  0.74881400  0.81711700  1
  C  929  1  0.89378300  0.73148000  0.82654300  1
  C  930  1  0.87585000  0.71490100  0.82460100  1
  C  931  1  0.87957500  0.69933800  0.83385700  1
  C  932  1  0.90143700  0.70032600  0.84571200  1
  C  933  1  0.92034300  0.71364800  0.84403900  1
  C  934  1  0.91655300  0.72910600  0.83491700  1
  C  935  1  0.90430400  0.77214200  0.83056200  1
  C  936  1  0.86469600  0.75878600  0.82028900  1
  C  937  1  0.85084100  0.76435100  0.84095000  1
  C  938  1  0.82784700  0.77434200  0.84426500  1
  C  939  1  0.81790300  0.78038500  0.82777800  1
  C  940  1  0.83164300  0.77535400  0.80732900  1
  C  941  1  0.85482300  0.76562600  0.80418000  1
  C  942  1  0.91206600  0.78487800  0.81901800  1
  C  943  1  0.92463300  0.80667500  0.83147500  1
  C  944  1  0.92940200  0.81744900  0.85645700  1
  C  945  1  0.92073800  0.80547600  0.86831500  1
  C  946  1  0.90814100  0.78363800  0.85579100  1
  C  967  1  0.91172200  0.44112000  0.58355400  1
  C  968  1  0.92894900  0.44284900  0.56856400  1
  C  969  1  0.92202600  0.45149300  0.55328200  1
  C  970  1  0.89771400  0.45680200  0.55135500  1
  C  971  1  0.88104500  0.45496100  0.56708900  1
  C  972  1  0.88775000  0.44662600  0.58259700  1
  C  973  1  0.89023500  0.46680500  0.53526800  1
  C  974  1  0.89397600  0.49356300  0.55259500  1
  C  975  1  0.87605100  0.50821400  0.56917500  1
  C  976  1  0.87979900  0.53302600  0.58473600  1
  C  977  1  0.90168100  0.54387100  0.58373700  1
  C  978  1  0.92056900  0.52886400  0.57041500  1
  C  979  1  0.91675700  0.50429200  0.55497000  1
  C  980  1  0.90450800  0.45692600  0.51194000  1
  C  981  1  0.86489800  0.46001700  0.52530200  1
  C  982  1  0.85104000  0.47511300  0.51973900  1
  C  983  1  0.82806000  0.46841900  0.50972000  1
  C  984  1  0.81811700  0.44589800  0.50368600  1
  C  985  1  0.83185300  0.43047300  0.50872200  1
  C  986  1  0.85502800  0.43706500  0.51846100  1
  C  987  1  0.91226900  0.43264400  0.49920300  1
  C  988  1  0.92483000  0.42329900  0.47740100  1
  C  989  1  0.92960100  0.43750700  0.46662700  1
  C  990  1  0.92094000  0.46134000  0.47860000  1
  C  991  1  0.90834400  0.47065300  0.50043900  1
  C  1012  1  0.41150100  0.24758200  0.93697500  1
  C  1013  1  0.42886200  0.26429800  0.93866400  1
  C  1014  1  0.42194800  0.28824600  0.94731900  1
  C  1015  1  0.39763500  0.29549400  0.95265100  1
  C  1016  1  0.38095500  0.27793300  0.95080200  1
  C  1017  1  0.38763700  0.25410000  0.94244700  1
  C  1018  1  0.39014100  0.32158000  0.96266300  1
  C  1019  1  0.39388300  0.33100500  0.98942700  1
  C  1020  1  0.37594900  0.32907700  0.00407200  1
  C  1021  1  0.37968000  0.33833600  0.02889000  1
  C  1022  1  0.40154900  0.35017800  0.03975400  1
  C  1023  1  0.42044400  0.34851700  0.02475400  1
  C  1024  1  0.41665800  0.33936600  0.00016800  1
  C  1025  1  0.40440500  0.33502400  0.95277400  1
  C  1026  1  0.36480100  0.32474900  0.95586200  1
  C  1027  1  0.35094200  0.34540800  0.97096200  1
  C  1028  1  0.32796000  0.34873300  0.96426900  1
  C  1029  1  0.31802100  0.33224400  0.94174500  1
  C  1030  1  0.33175700  0.31178900  0.92631800  1
  C  1031  1  0.35493000  0.30863800  0.93291100  1
  C  1032  1  0.41216400  0.32347300  0.92849100  1
  C  1033  1  0.42473000  0.33592900  0.91914800  1
  C  1034  1  0.42949800  0.36091100  0.93335300  1
  C  1035  1  0.42084000  0.37277100  0.95718800  1
  C  1036  1  0.40824200  0.36024800  0.96650300  1
  C  1057  1  0.41151300  0.08802800  0.03684000  1
  C  1058  1  0.42876400  0.07307600  0.02010900  1
  C  1059  1  0.42182800  0.05779300  0.99617500  1
  C  1060  1  0.39751400  0.05586800  0.98893500  1
  C  1061  1  0.38084400  0.07159300  0.00650900  1
  C  1062  1  0.38755700  0.08709100  0.03034100  1
  C  1063  1  0.39003400  0.03978200  0.96284200  1
  C  1064  1  0.39378300  0.05711200  0.95341200  1
  C  1065  1  0.37585300  0.07369300  0.95535000  1
  C  1066  1  0.37958200  0.08925700  0.94609900  1
  C  1067  1  0.40144400  0.08826100  0.93423800  1
  C  1068  1  0.42034800  0.07494000  0.93591400  1
  C  1069  1  0.41655300  0.05948500  0.94503900  1
  C  1070  1  0.40430500  0.01645100  0.94939400  1
  C  1071  1  0.36469800  0.02980600  0.95966600  1
  C  1072  1  0.35084400  0.02424700  0.93900800  1
  C  1073  1  0.32786400  0.01423100  0.93568000  1
  C  1074  1  0.31789600  0.00818600  0.95215400  1
  C  1075  1  0.33164300  0.01323400  0.97261500  1
  C  1076  1  0.35482500  0.02296100  0.97576800  1
  C  1077  1  0.41206600  0.00371500  0.96094000  1
  C  1078  1  0.42462800  0.98191330  0.94848030  1
  C  1079  1  0.42940200  0.97114030  0.92349730  1
  C  1080  1  0.42073800  0.98311630  0.91164030  1
  C  1081  1  0.40814100  0.00495300  0.92416500  1
  C  1102  1  0.41171500  0.34751800  0.19642600  1
  C  1103  1  0.42896500  0.34574600  0.21138500  1
  C  1104  1  0.42203000  0.33709800  0.22667000  1
  C  1105  1  0.39771500  0.33179000  0.22860000  1
  C  1106  1  0.38104800  0.33363000  0.21286900  1
  C  1107  1  0.38775800  0.34196600  0.19737200  1
  C  1108  1  0.39023200  0.32178900  0.24468700  1
  C  1109  1  0.39397500  0.29502900  0.22736000  1
  C  1110  1  0.37604900  0.28038000  0.21078200  1
  C  1111  1  0.37979400  0.25556700  0.19521600  1
  C  1112  1  0.40168000  0.24472300  0.19620900  1
  C  1113  1  0.42056700  0.25972700  0.20953600  1
  C  1114  1  0.41675600  0.28429900  0.22498400  1
  C  1115  1  0.40450800  0.33166500  0.26801400  1
  C  1116  1  0.36489200  0.32858000  0.25465700  1
  C  1117  1  0.35104200  0.31348200  0.26022200  1
  C  1118  1  0.32805600  0.32015400  0.27023000  1
  C  1119  1  0.31810700  0.34265100  0.27621200  1
  C  1120  1  0.33183700  0.35812100  0.27123900  1
  C  1121  1  0.35501700  0.35153400  0.26150400  1
  C  1122  1  0.41226700  0.35594500  0.28075000  1
  C  1123  1  0.42483000  0.36529100  0.30255200  1
  C  1124  1  0.42960400  0.35108100  0.31332400  1
  C  1125  1  0.42093800  0.32725000  0.30135300  1
  C  1126  1  0.40834200  0.31793800  0.27951500  1
  C  1147  1  0.04697100  0.08795700  0.93683800  1
  C  1148  1  0.02964500  0.07298700  0.93857900  1
  C  1149  1  0.03655200  0.05776600  0.94729700  1
  C  1150  1  0.06087000  0.05595100  0.95267500  1
  C  1151  1  0.07757500  0.07157600  0.95076600  1
  C  1152  1  0.07088200  0.08698400  0.94235800  1
  C  1153  1  0.06844800  0.04002600  0.96274100  1
  C  1154  1  0.06462400  0.05720300  0.98944400  1
  C  1155  1  0.08258800  0.07369400  0.00406200  1
  C  1156  1  0.07885900  0.08921600  0.02886200  1
  C  1157  1  0.05699700  0.08820900  0.03971300  1
  C  1158  1  0.03808200  0.07488700  0.02473000  1
  C  1159  1  0.04184700  0.05949800  0.00014900  1
  C  1160  1  0.05439100  0.01681100  0.95284100  1
  C  1161  1  0.09367900  0.03001100  0.95591000  1
  C  1162  1  0.10756800  0.02466000  0.97114200  1
  C  1163  1  0.13030300  0.01418500  0.96418100  1
  C  1164  1  0.13921600  0.00661100  0.94078200  1
  C  1165  1  0.12620400  0.01291200  0.92598700  1
  C  1166  1  0.10345200  0.02334300  0.93297000  1
  C  1167  1  0.04678500  0.00431500  0.92843300  1
  C  1168  1  0.03442400  0.98267430  0.91904830  1
  C  1169  1  0.03060600  0.97275830  0.93395830  1
  C  1170  1  0.03835000  0.98378930  0.95769530  1
  C  1171  1  0.05073000  0.00550600  0.96683300  1
  C  1192  1  0.04700400  0.34738300  0.03674200  1
  C  1193  1  0.02976300  0.34564400  0.02003100  1
  C  1194  1  0.03667300  0.33693700  0.99610700  1
  C  1195  1  0.06099100  0.33157200  0.98892600  1
  C  1196  1  0.07768600  0.33348700  0.00647700  1
  C  1197  1  0.07097700  0.34187100  0.03030000  1
  C  1198  1  0.06854900  0.32150900  0.96292700  1
  C  1199  1  0.06472400  0.29480700  0.95339500  1
  C  1200  1  0.08268100  0.28019000  0.95527900  1
  C  1201  1  0.07895500  0.25538600  0.94596900  1
  C  1202  1  0.05708900  0.24453600  0.93411200  1
  C  1203  1  0.03817500  0.25952800  0.93579700  1
  C  1204  1  0.04194700  0.28410600  0.94498400  1
  C  1205  1  0.05448900  0.33140500  0.94961100  1
  C  1206  1  0.09377900  0.32833200  0.95973400  1
  C  1207  1  0.10766800  0.31310500  0.93915200  1
  C  1208  1  0.13039900  0.32007200  0.93563000  1
  C  1209  1  0.13930000  0.34347600  0.95145500  1
  C  1210  1  0.12631300  0.35824700  0.97257600  1
  C  1211  1  0.10355000  0.35127200  0.97600800  1
  C  1212  1  0.04688000  0.35583000  0.96152500  1
  C  1213  1  0.03446000  0.36536600  0.94941200  1
  C  1214  1  0.03053500  0.35054000  0.92485900  1
  C  1215  1  0.03841700  0.32666600  0.91189700  1
  C  1216  1  0.05083700  0.31741400  0.92432200  1
  C  1237  1  0.04690800  0.24751800  0.19628000  1
  C  1238  1  0.02955400  0.26422000  0.21130700  1
  C  1239  1  0.03645400  0.28816300  0.22652300  1
  C  1240  1  0.06077600  0.29535500  0.22834100  1
  C  1241  1  0.07747900  0.27782100  0.21271700  1
  C  1242  1  0.07078800  0.25401000  0.19729400  1
  C  1243  1  0.06836800  0.32134100  0.24426300  1
  C  1244  1  0.06453500  0.33086800  0.22709300  1
  C  1245  1  0.08248700  0.32901000  0.21060300  1
  C  1246  1  0.07872700  0.33829700  0.19509600  1
  C  1247  1  0.05683400  0.35013200  0.19611100  1
  C  1248  1  0.03794700  0.34846200  0.20944100  1
  C  1249  1  0.04174700  0.33927600  0.22482300  1
  C  1250  1  0.05430700  0.33464800  0.26746000  1
  C  1251  1  0.09360200  0.32454300  0.25429000  1
  C  1252  1  0.10749800  0.34512200  0.25964200  1
  C  1253  1  0.13025600  0.34862100  0.27009200  1
  C  1254  1  0.13922800  0.33276200  0.27760100  1
  C  1255  1  0.12616000  0.31170100  0.27134400  1
  C  1256  1  0.10337700  0.30827800  0.26096300  1
  C  1257  1  0.04669900  0.32269900  0.27993800  1
  C  1258  1  0.03429100  0.33470100  0.30153700  1
  C  1259  1  0.03047200  0.35916400  0.31129500  1
  C  1260  1  0.03822100  0.37230800  0.30045800  1
  C  1261  1  0.05065000  0.35994000  0.27875900  1
  C  1282  1  0.54706100  0.70054100  0.84302300  1
  C  1283  1  0.52965700  0.71559500  0.84137300  1
  C  1284  1  0.53655100  0.73082200  0.83265600  1
  C  1285  1  0.56086900  0.73263800  0.82727900  1
  C  1286  1  0.57757400  0.71701700  0.82919100  1
  C  1287  1  0.57089600  0.70159800  0.83758700  1
  C  1288  1  0.56844500  0.74856500  0.81721100  1
  C  1289  1  0.56462300  0.73138800  0.79051200  1
  C  1290  1  0.58258400  0.71488800  0.77589600  1
  C  1291  1  0.57885700  0.69937500  0.75109200  1
  C  1292  1  0.55698900  0.70037800  0.74024400  1
  C  1293  1  0.53807600  0.71369500  0.75522900  1
  C  1294  1  0.54185100  0.72910400  0.77980500  1
  C  1295  1  0.55438700  0.77177400  0.82710700  1
  C  1296  1  0.59367500  0.75858100  0.82404500  1
  C  1297  1  0.60756500  0.76393100  0.80881400  1
  C  1298  1  0.63030700  0.77439100  0.81577100  1
  C  1299  1  0.63921900  0.78196600  0.83917200  1
  C  1300  1  0.62620500  0.77566100  0.85396400  1
  C  1301  1  0.60344600  0.76524800  0.84698600  1
  C  1302  1  0.54679100  0.78425400  0.85154100  1
  C  1303  1  0.53435600  0.80585100  0.86124900  1
  C  1304  1  0.53048200  0.81569800  0.84669800  1
  C  1305  1  0.53829000  0.80483900  0.82262500  1
  C  1306  1  0.55071100  0.78310200  0.81315000  1
  C  1327  1  0.54700500  0.44119700  0.74321000  1
  C  1328  1  0.52976000  0.44294300  0.75992200  1
  C  1329  1  0.53667100  0.45165400  0.78384700  1
  C  1330  1  0.56098700  0.45701500  0.79102800  1
  C  1331  1  0.57768300  0.45510500  0.77348100  1
  C  1332  1  0.57097600  0.44671900  0.74965800  1
  C  1333  1  0.56855000  0.46708100  0.81702700  1
  C  1334  1  0.56472900  0.49377900  0.82655900  1
  C  1335  1  0.58268700  0.50840000  0.82468700  1
  C  1336  1  0.57896200  0.53320000  0.83397900  1
  C  1337  1  0.55709800  0.54404900  0.84583900  1
  C  1338  1  0.53817600  0.52906100  0.84414700  1
  C  1339  1  0.54194900  0.50448300  0.83497000  1
  C  1340  1  0.55449200  0.45719500  0.83034900  1
  C  1341  1  0.59378000  0.46025600  0.82021900  1
  C  1342  1  0.60766700  0.47548300  0.84080400  1
  C  1343  1  0.63041100  0.46852900  0.84431100  1
  C  1344  1  0.63929900  0.44511700  0.82849800  1
  C  1345  1  0.62630700  0.43033600  0.80738400  1
  C  1346  1  0.60354900  0.43731700  0.80394500  1
  C  1347  1  0.54689800  0.43275800  0.81839300  1
  C  1348  1  0.53448800  0.42301800  0.83026100  1
  C  1349  1  0.53050900  0.43758100  0.85460600  1
  C  1350  1  0.53835400  0.46167200  0.86786400  1
  C  1351  1  0.55081600  0.47115400  0.85563200  1
  C  1372  1  0.54680900  0.54107400  0.58361900  1
  C  1373  1  0.52954300  0.52434700  0.56868600  1
  C  1374  1  0.53647100  0.50042600  0.55344500  1
  C  1375  1  0.56079300  0.49324600  0.55163000  1
  C  1376  1  0.57748700  0.51078900  0.56726100  1
  C  1377  1  0.57076900  0.53460200  0.58269400  1
  C  1378  1  0.56837200  0.46725400  0.53569700  1
  C  1379  1  0.56453600  0.45772100  0.55286300  1
  C  1380  1  0.58248600  0.45958400  0.56935600  1
  C  1381  1  0.57872800  0.45029300  0.58486000  1
  C  1382  1  0.55683400  0.43846000  0.58384600  1
  C  1383  1  0.53794900  0.44012100  0.57050600  1
  C  1384  1  0.54174600  0.44931700  0.55513300  1
  C  1385  1  0.55430700  0.45395400  0.51249600  1
  C  1386  1  0.59360300  0.46405100  0.52566900  1
  C  1387  1  0.60749800  0.44346800  0.52030900  1
  C  1388  1  0.63026400  0.43997800  0.50987700  1
  C  1389  1  0.63922800  0.45582600  0.50235000  1
  C  1390  1  0.62616100  0.47689000  0.50861000  1
  C  1391  1  0.60337800  0.48031100  0.51899000  1
  C  1392  1  0.54669200  0.46588900  0.50000000  1
  C  1393  1  0.53427200  0.45379300  0.47835600  1
  C  1394  1  0.53050700  0.42923600  0.46860700  1
  C  1395  1  0.53829700  0.41625100  0.47951000  1
  C  1396  1  0.55065400  0.42866900  0.50121000  1
  C  1417  1  0.90932900  0.43432300  0.68131500  1
  C  1419  1  0.92867200  0.41637700  0.64345800  1
  C  1420  1  0.91523300  0.43006600  0.63576200  1
  C  1422  1  0.89576400  0.44908200  0.67469800  1
  C  1427  1  0.90666100  0.43846400  0.70460600  1
  C  1429  1  0.92121300  0.42579900  0.61261200  1
  C  1431  1  0.90923700  0.64552100  0.84979500  1
  C  1433  1  0.92857400  0.62561500  0.86774500  1
  C  1434  1  0.91519100  0.60421500  0.85403700  1
  C  1436  1  0.89565900  0.62414300  0.83503900  1
  C  1441  1  0.90669500  0.66468100  0.84564800  1
  C  1443  1  0.92120000  0.58539700  0.85838800  1
  C  1445  1  0.90917900  0.60278800  0.63859800  1
  C  1447  1  0.92849900  0.64065200  0.65848500  1
  C  1448  1  0.91507600  0.64831900  0.67985900  1
  C  1450  1  0.89558900  0.60940000  0.65996800  1
  C  1455  1  0.90653100  0.57952500  0.61940900  1
  C  1457  1  0.92094500  0.67141300  0.69872100  1
  C  1459  1  0.40930500  0.35427300  0.09865300  1
  C  1461  1  0.42868500  0.37220700  0.13649800  1
  C  1462  1  0.41531000  0.35849700  0.14419300  1
  C  1464  1  0.39575900  0.33950900  0.10527800  1
  C  1469  1  0.40665700  0.35012400  0.07535400  1
  C  1471  1  0.42130000  0.36285800  0.16737200  1
  C  1473  1  0.40923900  0.14305200  0.93015000  1
  C  1475  1  0.42859400  0.16295200  0.91219400  1
  C  1476  1  0.41514900  0.18431700  0.92587800  1
  C  1478  1  0.39567300  0.16443200  0.94491400  1
  C  1483  1  0.40661400  0.12390200  0.93429500  1
  C  1485  1  0.42101300  0.20319200  0.92169700  1
  C  1487  1  0.40917500  0.18579800  0.14133300  1
  C  1489  1  0.42847700  0.14793300  0.12144500  1
  C  1490  1  0.41509400  0.14024500  0.10004800  1
  C  1492  1  0.39557300  0.17917600  0.11996600  1
  C  1497  1  0.40658900  0.20906400  0.16054100  1
  C  1499  1  0.42110400  0.11707500  0.08123100  1
  C  1501  1  0.04918200  0.14298800  0.09858400  1
  C  1503  1  0.02983600  0.16290900  0.13644500  1
  C  1504  1  0.04326300  0.18427900  0.14410500  1
  C  1506  1  0.06275700  0.16436300  0.10519000  1
  C  1511  1  0.05170900  0.12385500  0.07526400  1
  C  1513  1  0.03740600  0.20314300  0.16718400  1
  C  1515  1  0.04930500  0.18569200  0.93005400  1
  C  1517  1  0.02993000  0.14784000  0.91210800  1
  C  1518  1  0.04335000  0.14016900  0.92581300  1
  C  1520  1  0.06286000  0.17907700  0.94482100  1
  C  1525  1  0.05195300  0.20899100  0.93422600  1
  C  1527  1  0.03745400  0.11705300  0.92155800  1
  C  1529  1  0.04936700  0.35415600  0.14124700  1
  C  1531  1  0.03005200  0.37212500  0.12136000  1
  C  1532  1  0.04348800  0.35843200  0.09997600  1
  C  1534  1  0.06295000  0.33939900  0.11987900  1
  C  1539  1  0.05208000  0.35012800  0.16045600  1
  C  1541  1  0.03750400  0.36270300  0.08110400  1
  C  1543  1  0.54919000  0.64557500  0.68137100  1
  C  1545  1  0.52985500  0.62566100  0.64351200  1
  C  1546  1  0.54323900  0.60426400  0.63582200  1
  C  1548  1  0.56277000  0.62419900  0.67475100  1
  C  1553  1  0.55173300  0.66473900  0.70467500  1
  C  1555  1  0.53723100  0.58544700  0.61265600  1
  C  1557  1  0.54928800  0.60290000  0.84990100  1
  C  1559  1  0.52993300  0.64075900  0.86784900  1
  C  1560  1  0.54336400  0.64841800  0.85414100  1
  C  1562  1  0.56285600  0.60951100  0.83513800  1
  C  1567  1  0.55188100  0.57959000  0.84572000  1
  C  1569  1  0.53755900  0.67144700  0.85830000  1
  C  1571  1  0.54937900  0.43442200  0.63870100  1
  C  1573  1  0.53004900  0.41646500  0.65859300  1
  C  1574  1  0.54346400  0.43017700  0.67998500  1
  C  1576  1  0.56295200  0.44918900  0.66007600  1
  C  1581  1  0.55207700  0.43846600  0.61950100  1
  C  1583  1  0.53750000  0.42588200  0.69884600  1
  C  1585  1  0.70468300  0.44668500  0.83596600  1
  C  1587  1  0.73849200  0.43454500  0.85014800  1
  C  1588  1  0.75447500  0.44492600  0.84092500  1
  C  1590  1  0.72048400  0.45746100  0.82645800  1
  C  1595  1  0.68014200  0.44886500  0.83386200  1
  C  1597  1  0.77910900  0.44289500  0.84285700  1
  C  1599  1  0.70458800  0.78781500  0.83745800  1
  C  1601  1  0.73840000  0.81413000  0.84958500  1
  C  1602  1  0.75438800  0.79453500  0.83920100  1
  C  1604  1  0.72038600  0.76752900  0.82667600  1
  C  1609  1  0.68004600  0.78356500  0.83526200  1
  C  1611  1  0.77901800  0.79853100  0.84122700  1
  C  1613  1  0.70471300  0.44814800  0.49624500  1
  C  1615  1  0.73857300  0.43396300  0.46994700  1
  C  1616  1  0.75455500  0.44320500  0.48955300  1
  C  1618  1  0.72053400  0.45763700  0.51652800  1
  C  1623  1  0.68013100  0.45018100  0.50050300  1
  C  1625  1  0.77919300  0.44128100  0.48560400  1
  C  1627  1  0.20468700  0.34191000  0.94399100  1
  C  1629  1  0.23849300  0.35404300  0.92980000  1
  C  1630  1  0.25447800  0.34368200  0.93904400  1
  C  1632  1  0.22049000  0.33112700  0.95349100  1
  C  1637  1  0.18014600  0.33972500  0.94609200  1
  C  1639  1  0.27910600  0.34571400  0.93712700  1
  C  1641  1  0.20458400  0.00078000  0.94249400  1
  C  1643  1  0.23839100  0.97445930  0.93036730  1
  C  1644  1  0.25437800  0.99405930  0.94075630  1
  C  1646  1  0.22038100  0.02106400  0.95328000  1
  C  1651  1  0.18004500  0.00505500  0.94466100  1
  C  1653  1  0.27900800  0.99007530  0.93872930  1
  C  1655  1  0.20471900  0.34044200  0.28370200  1
  C  1657  1  0.23857700  0.35463700  0.31000100  1
  C  1658  1  0.25457000  0.34543300  0.29041000  1
  C  1660  1  0.22054300  0.33094800  0.26342200  1
  C  1665  1  0.18013400  0.33840400  0.27944900  1
  C  1667  1  0.27920800  0.34736300  0.29439200  1
  C  1669  1  0.99225800  0.38057100  0.89650200  1
  C  1671  1  0.97400100  0.41734600  0.90490700  1
  C  1672  1  0.96517300  0.40690400  0.88114400  1
  C  1674  1  0.98383700  0.36935000  0.87212100  1
  C  1679  1  0.00615100  0.37061500  0.90695200  1
  C  1681  1  0.95174900  0.42100500  0.87462900  1
  C  1683  1  0.99206600  0.91460430  0.90342430  1
  C  1685  1  0.97389800  0.88607400  0.86675600  1
  C  1686  1  0.96507700  0.87277500  0.87724904  1
  C  1688  1  0.98380000  0.90133930  0.91461530  1
  C  1693  1  0.00643600  0.93464230  0.91601430  1
  C  1695  1  0.95164700  0.85216000  0.86314300  1
  C  1697  1  0.99239600  0.38728600  0.36970800  1
  C  1699  1  0.97408200  0.37918300  0.39803900  1
  C  1700  1  0.96527400  0.40298100  0.41132904  1
  C  1702  1  0.98395700  0.41175800  0.38276200  1
  C  1707  1  0.00587300  0.37900200  0.34917800  1
  C  1709  1  0.95184200  0.40948000  0.43192700  1
  C  1711  1  0.49235000  0.40767800  0.88317600  1
  C  1713  1  0.47397600  0.37119300  0.87502000  1
  C  1714  1  0.46517100  0.38168600  0.89881300  1
  C  1716  1  0.48388400  0.41906600  0.90762700  1
  C  1721  1  0.50593900  0.41900700  0.87390800  1
  C  1723  1  0.45175000  0.36758600  0.90532600  1
  C  1725  1  0.49274600  0.87450000  0.87674304  1
  C  1727  1  0.47390600  0.90253430  0.91321130  1
  C  1728  1  0.46508600  0.91582430  0.90271230  1
  C  1730  1  0.48382600  0.88726300  0.86535400  1
  C  1735  1  0.50462000  0.85272900  0.86500300  1
  C  1737  1  0.45164800  0.93643030  0.91681230  1
  C  1739  1  0.49236800  0.40110000  0.41026704  1
  C  1741  1  0.47412200  0.40937500  0.38193000  1
  C  1742  1  0.46527100  0.38561800  0.36863100  1
  C  1744  1  0.48401800  0.37661500  0.39709600  1
  C  1749  1  0.50585000  0.41075100  0.43087100  1
  C  1751  1  0.45183700  0.37911800  0.34803400  1
  N  41  1  0.79420300  0.59607400  0.46642900  1
  N  42  1  0.94216900  0.55461600  0.48082800  1
  N  43  1  0.91646900  0.70334200  0.47759600  1
  N  44  1  0.90671900  0.56702400  0.34314300  1
  N  86  1  0.79408000  0.92196000  0.45487800  1
  N  87  1  0.94206600  0.97785300  0.49627200  1
  N  88  1  0.91641100  0.82597700  0.34752400  1
  N  89  1  0.90660700  0.82777300  0.48385900  1
  N  131  1  0.79429100  0.58440400  0.12883200  1
  N  132  1  0.94226400  0.57002600  0.07297300  1
  N  133  1  0.91681800  0.57305100  0.22469000  1
  N  134  1  0.90699600  0.70764400  0.22308200  1
  N  176  1  0.29419700  0.47239800  0.56709100  1
  N  177  1  0.44216900  0.51387800  0.55271500  1
  N  178  1  0.41657400  0.36515300  0.55580100  1
  N  179  1  0.40671600  0.50146600  0.69040300  1
  N  221  1  0.29408300  0.14651200  0.57871800  1
  N  222  1  0.44206800  0.09064100  0.53727300  1
  N  223  1  0.41637100  0.24260700  0.68601900  1
  N  224  1  0.40661100  0.24071700  0.54968300  1
  N  266  1  0.29427500  0.48401500  0.90469000  1
  N  267  1  0.44226600  0.49846900  0.96057100  1
  N  268  1  0.41657100  0.49522800  0.80859300  1
  N  269  1  0.40698700  0.36084700  0.81046300  1
  N  311  1  0.16063200  0.13526600  0.55979000  1
  N  312  1  0.01737500  0.09404400  0.54929600  1
  N  313  1  0.04207200  0.24248000  0.55583300  1
  N  314  1  0.05182100  0.24067100  0.69035300  1
  N  356  1  0.16069100  0.49125100  0.57472600  1
  N  357  1  0.01812400  0.49885900  0.54095100  1
  N  358  1  0.04195400  0.49530700  0.68588800  1
  N  359  1  0.05192100  0.36065000  0.54959600  1
  N  401  1  0.16063800  0.47625600  0.91577900  1
  N  402  1  0.01811500  0.50912100  0.95712300  1
  N  403  1  0.04187500  0.36510100  0.80864100  1
  N  404  1  0.05152900  0.50135700  0.81036800  1
  N  446  1  0.66063500  0.93321900  0.47375600  1
  N  447  1  0.51866600  0.97509400  0.48138600  1
  N  448  1  0.54187500  0.82620700  0.47789800  1
  N  449  1  0.55181700  0.82783000  0.34318900  1
  N  491  1  0.66068700  0.57724300  0.45881900  1
  N  492  1  0.51839600  0.56991500  0.49296500  1
  N  493  1  0.54198700  0.57321200  0.34765100  1
  N  494  1  0.55191700  0.70784100  0.48394600  1
  N  536  1  0.66063700  0.59223800  0.11776400  1
  N  537  1  0.51815600  0.55863500  0.07642200  1
  N  538  1  0.54195300  0.70339600  0.22502600  1
  N  539  1  0.55153000  0.56713800  0.22317800  1
  N  542  1  0.92567800  0.55882900  0.29228500  1
  N  545  1  0.89944700  0.58609900  0.27900400  1
  N  548  1  0.87861600  0.60693600  0.31710000  1
  N  556  1  0.92557800  0.78508500  0.49202800  1
  N  559  1  0.89936300  0.74453400  0.46476800  1
  N  562  1  0.87851800  0.76181000  0.44392200  1
  N  570  1  0.92550900  0.75856900  0.26576400  1
  N  573  1  0.89926200  0.77185100  0.30630100  1
  N  576  1  0.87841100  0.73375200  0.28905400  1
  N  584  1  0.42566200  0.50965800  0.74126500  1
  N  587  1  0.39947000  0.48239600  0.75456700  1
  N  590  1  0.37861100  0.46156000  0.71644800  1
  N  598  1  0.42559100  0.28338200  0.54150300  1
  N  601  1  0.39935900  0.32392600  0.56875700  1
  N  604  1  0.37851700  0.30668100  0.58961100  1
  N  612  1  0.42548800  0.30991500  0.76775600  1
  N  615  1  0.39926700  0.29662800  0.72720700  1
  N  618  1  0.37840800  0.33475000  0.74448400  1
  N  626  1  0.03282300  0.28334100  0.74120200  1
  N  629  1  0.05907600  0.32386600  0.75447600  1
  N  632  1  0.07990400  0.30661600  0.71637200  1
  N  640  1  0.03294200  0.30982500  0.54141000  1
  N  643  1  0.05916900  0.29654100  0.56867200  1
  N  646  1  0.08000900  0.33463800  0.58951900  1
  N  654  1  0.03304400  0.50957600  0.76768200  1
  N  657  1  0.05927600  0.48229800  0.72712800  1
  N  660  1  0.08012900  0.46146800  0.74439300  1
  N  668  1  0.53285100  0.78513400  0.29233600  1
  N  671  1  0.55906600  0.74458700  0.27905100  1
  N  674  1  0.57991200  0.76187000  0.31717400  1
  N  682  1  0.53292900  0.75867400  0.49213000  1
  N  685  1  0.55917200  0.77195200  0.46487300  1
  N  688  1  0.58000300  0.73385200  0.44402000  1
  N  696  1  0.53304700  0.55891500  0.26586100  1
  N  699  1  0.55927500  0.58619400  0.30641700  1
  N  702  1  0.58013000  0.60702300  0.28914900  1
  N  710  1  0.71450900  0.57581400  0.47438000  1
  N  713  1  0.74448400  0.59560500  0.45607200  1
  N  716  1  0.71306800  0.60987800  0.44079300  1
  N  724  1  0.71441800  0.95020300  0.47507000  1
  N  727  1  0.74439200  0.91211000  0.45526100  1
  N  730  1  0.71296000  0.88255900  0.44099400  1
  N  738  1  0.71458200  0.57646900  0.10061600  1
  N  741  1  0.74454500  0.59478200  0.13871100  1
  N  744  1  0.71314300  0.61003800  0.16825100  1
  N  752  1  0.21451000  0.49267300  0.55915700  1
  N  755  1  0.24449100  0.47289300  0.57747200  1
  N  758  1  0.21307500  0.45861500  0.59274700  1
  N  766  1  0.21440900  0.11829200  0.55846900  1
  N  769  1  0.24438400  0.15638600  0.57828000  1
  N  772  1  0.21296000  0.18593800  0.59254600  1
  N  780  1  0.21458900  0.49201400  0.93292000  1
  N  783  1  0.24455700  0.47373500  0.89483700  1
  N  786  1  0.21314400  0.45844900  0.86528900  1
  N  794  1  0.98702700  0.54390800  0.53835200  1
  N  797  1  0.97068700  0.52332100  0.49274000  1
  N  800  1  0.98823100  0.48466100  0.48100200  1
  N  808  1  0.98698500  0.04612300  0.50671700  1
  N  811  1  0.97061200  0.02108600  0.52756600  1
  N  814  1  0.98810500  0.04796800  0.56619300  1
  N  822  1  0.98710900  0.51214900  0.00473100  1
  N  825  1  0.97079800  0.55810700  0.02977600  1
  N  828  1  0.98828000  0.56982300  0.00285300  1
  N  836  1  0.48705300  0.52429100  0.49490400  1
  N  839  1  0.47069300  0.54516800  0.54077100  1
  N  842  1  0.48822700  0.58378500  0.55251900  1
  N  850  1  0.48695400  0.02240200  0.52686200  1
  N  853  1  0.47062700  0.04741600  0.50598500  1
  N  856  1  0.48809700  0.02051100  0.46734900  1
  N  864  1  0.48716000  0.55605400  0.02875600  1
  N  867  1  0.47079400  0.51035600  0.00373900  1
  N  870  1  0.48827700  0.49862800  0.03070300  1
  N  917  1  0.79420300  0.45612200  0.83963400  1
  N  918  1  0.94216900  0.41466400  0.85403300  1
  N  919  1  0.91646900  0.56339000  0.85080100  1
  N  920  1  0.90671900  0.42707200  0.71634800  1
  N  962  1  0.79408000  0.78200800  0.82808300  1
  N  963  1  0.94206600  0.83790100  0.86947700  1
  N  964  1  0.91641100  0.68602500  0.72072900  1
  N  965  1  0.90660700  0.68782100  0.85706400  1
  N  1007  1  0.79429100  0.44445200  0.50203700  1
  N  1008  1  0.94226400  0.43007400  0.44617800  1
  N  1009  1  0.91681800  0.43309900  0.59789500  1
  N  1010  1  0.90699600  0.56769200  0.59628700  1
  N  1052  1  0.29419700  0.33244600  0.94029600  1
  N  1053  1  0.44216900  0.37392600  0.92592000  1
  N  1054  1  0.41657400  0.22520100  0.92900600  1
  N  1055  1  0.40671600  0.36151400  0.06360800  1
  N  1097  1  0.29408300  0.00656000  0.95192300  1
  N  1098  1  0.44206800  0.95068930  0.91047830  1
  N  1099  1  0.41637100  0.10265500  0.05922400  1
  N  1100  1  0.40661100  0.10076500  0.92288800  1
  N  1142  1  0.29427500  0.34406300  0.27789500  1
  N  1143  1  0.44226600  0.35851700  0.33377600  1
  N  1144  1  0.41657100  0.35527600  0.18179800  1
  N  1145  1  0.40698700  0.22089500  0.18366800  1
  N  1187  1  0.16063200  0.99531430  0.93299530  1
  N  1188  1  0.01737500  0.95409230  0.92250130  1
  N  1189  1  0.04207200  0.10252800  0.92903800  1
  N  1190  1  0.05182100  0.10071900  0.06355800  1
  N  1232  1  0.16069100  0.35129900  0.94793100  1
  N  1233  1  0.01812400  0.35890700  0.91415600  1
  N  1234  1  0.04195400  0.35535500  0.05909300  1
  N  1235  1  0.05192100  0.22069800  0.92280100  1
  N  1277  1  0.16063800  0.33630400  0.28898400  1
  N  1278  1  0.01811500  0.36916900  0.33032800  1
  N  1279  1  0.04187500  0.22514900  0.18184600  1
  N  1280  1  0.05152900  0.36140500  0.18357300  1
  N  1322  1  0.66063500  0.79326700  0.84696100  1
  N  1323  1  0.51866600  0.83514200  0.85459100  1
  N  1324  1  0.54187500  0.68625500  0.85110300  1
  N  1325  1  0.55181700  0.68787800  0.71639400  1
  N  1367  1  0.66068700  0.43729100  0.83202400  1
  N  1368  1  0.51839600  0.42996300  0.86617000  1
  N  1369  1  0.54198700  0.43326000  0.72085600  1
  N  1370  1  0.55191700  0.56788900  0.85715100  1
  N  1412  1  0.66063700  0.45228600  0.49096900  1
  N  1413  1  0.51815600  0.41868300  0.44962700  1
  N  1414  1  0.54195300  0.56344400  0.59823100  1
  N  1415  1  0.55153000  0.42718600  0.59638300  1
  N  1418  1  0.92567800  0.41887700  0.66549000  1
  N  1421  1  0.89944700  0.44614700  0.65220900  1
  N  1424  1  0.87861600  0.46698400  0.69030500  1
  N  1432  1  0.92557800  0.64513300  0.86523300  1
  N  1435  1  0.89936300  0.60458200  0.83797300  1
  N  1438  1  0.87851800  0.62185800  0.81712700  1
  N  1446  1  0.92550900  0.61861700  0.63896900  1
  N  1449  1  0.89926200  0.63189900  0.67950600  1
  N  1452  1  0.87841100  0.59380000  0.66225900  1
  N  1460  1  0.42566200  0.36970600  0.11447000  1
  N  1463  1  0.39947000  0.34244400  0.12777200  1
  N  1466  1  0.37861100  0.32160800  0.08965300  1
  N  1474  1  0.42559100  0.14343000  0.91470800  1
  N  1477  1  0.39935900  0.18397400  0.94196200  1
  N  1480  1  0.37851700  0.16672900  0.96281600  1
  N  1488  1  0.42548800  0.16996300  0.14096100  1
  N  1491  1  0.39926700  0.15667600  0.10041200  1
  N  1494  1  0.37840800  0.19479800  0.11768900  1
  N  1502  1  0.03282300  0.14338900  0.11440700  1
  N  1505  1  0.05907600  0.18391400  0.12768100  1
  N  1508  1  0.07990400  0.16666400  0.08957700  1
  N  1516  1  0.03294200  0.16987300  0.91461500  1
  N  1519  1  0.05916900  0.15658900  0.94187700  1
  N  1522  1  0.08000900  0.19468600  0.96272400  1
  N  1530  1  0.03304400  0.36962400  0.14088700  1
  N  1533  1  0.05927600  0.34234600  0.10033300  1
  N  1536  1  0.08012900  0.32151600  0.11759800  1
  N  1544  1  0.53285100  0.64518200  0.66554100  1
  N  1547  1  0.55906600  0.60463500  0.65225600  1
  N  1550  1  0.57991200  0.62191800  0.69037900  1
  N  1558  1  0.53292900  0.61872200  0.86533500  1
  N  1561  1  0.55917200  0.63200000  0.83807800  1
  N  1564  1  0.58000300  0.59390000  0.81722500  1
  N  1572  1  0.53304700  0.41896300  0.63906600  1
  N  1575  1  0.55927500  0.44624200  0.67962200  1
  N  1578  1  0.58013000  0.46707100  0.66235400  1
  N  1586  1  0.71450900  0.43586200  0.84758500  1
  N  1589  1  0.74448400  0.45565300  0.82927700  1
  N  1592  1  0.71306800  0.46992600  0.81399800  1
  N  1600  1  0.71441800  0.81025100  0.84827500  1
  N  1603  1  0.74439200  0.77215800  0.82846600  1
  N  1606  1  0.71296000  0.74260700  0.81419900  1
  N  1614  1  0.71458200  0.43651700  0.47382100  1
  N  1617  1  0.74454500  0.45483000  0.51191600  1
  N  1620  1  0.71314300  0.47008600  0.54145600  1
  N  1628  1  0.21451000  0.35272100  0.93236200  1
  N  1631  1  0.24449100  0.33294100  0.95067700  1
  N  1634  1  0.21307500  0.31866300  0.96595200  1
  N  1642  1  0.21440900  0.97834030  0.93167430  1
  N  1645  1  0.24438400  0.01643400  0.95148500  1
  N  1648  1  0.21296000  0.04598600  0.96575100  1
  N  1656  1  0.21458900  0.35206200  0.30612500  1
  N  1659  1  0.24455700  0.33378300  0.26804200  1
  N  1662  1  0.21314400  0.31849700  0.23849400  1
  N  1670  1  0.98702700  0.40395600  0.91155700  1
  N  1673  1  0.97068700  0.38336900  0.86594500  1
  N  1676  1  0.98823100  0.34470900  0.85420700  1
  N  1684  1  0.98698500  0.90617130  0.87992230  1
  N  1687  1  0.97061200  0.88113400  0.90077100  1
  N  1690  1  0.98810500  0.90801630  0.93939830  1
  N  1698  1  0.98710900  0.37219700  0.37793604  1
  N  1701  1  0.97079800  0.41815500  0.40298100  1
  N  1704  1  0.98828000  0.42987100  0.37605800  1
  N  1712  1  0.48705300  0.38433900  0.86810900  1
  N  1715  1  0.47069300  0.40521600  0.91397600  1
  N  1718  1  0.48822700  0.44383300  0.92572400  1
  N  1726  1  0.48695400  0.88245000  0.90006700  1
  N  1729  1  0.47062700  0.90746430  0.87919030  1
  N  1732  1  0.48809700  0.88055900  0.84055400  1
  N  1740  1  0.48716000  0.41610200  0.40196100  1
  N  1743  1  0.47079400  0.37040400  0.37694404  1
  N  1746  1  0.48827700  0.35867600  0.40390800  1
  O  549  1  0.86731400  0.61843500  0.30950300  1
  O  550  1  0.87115000  0.61359200  0.33813000  1
  O  563  1  0.86720900  0.74271600  0.43242500  1
  O  564  1  0.87105100  0.77617400  0.43725000  1
  O  577  1  0.86711400  0.74135600  0.30815200  1
  O  578  1  0.87092000  0.71271200  0.27473900  1
  O  591  1  0.36731000  0.45005500  0.72403800  1
  O  592  1  0.37114800  0.45490200  0.69541500  1
  O  605  1  0.36721700  0.32577900  0.60111200  1
  O  606  1  0.37105400  0.29231400  0.59627800  1
  O  619  1  0.36710200  0.32714700  0.72539300  1
  O  620  1  0.37092200  0.35579300  0.75880800  1
  O  633  1  0.09121100  0.32571200  0.72397200  1
  O  634  1  0.08737800  0.29226200  0.69534000  1
  O  647  1  0.09130700  0.32704500  0.60102400  1
  O  648  1  0.08748000  0.35566800  0.59618100  1
  O  661  1  0.09142300  0.44997000  0.72529800  1
  O  662  1  0.08761200  0.45476600  0.75872800  1
  O  675  1  0.59122300  0.74277800  0.30957900  1
  O  676  1  0.58737900  0.77623700  0.33821000  1
  O  689  1  0.59130600  0.74144900  0.43252100  1
  O  690  1  0.58748100  0.71282100  0.43734800  1
  O  703  1  0.59142200  0.61852400  0.30824700  1
  O  704  1  0.58761300  0.61372800  0.27481700  1
  O  717  1  0.72841400  0.61815600  0.43285500  1
  O  718  1  0.69276500  0.61454000  0.43551100  1
  O  731  1  0.72829800  0.86633700  0.43271800  1
  O  732  1  0.69264900  0.87263200  0.43633800  1
  O  745  1  0.72849100  0.61798700  0.18447200  1
  O  746  1  0.69284000  0.61530800  0.17818400  1
  O  759  1  0.22841700  0.45034000  0.60068900  1
  O  760  1  0.19277100  0.45395700  0.59803200  1
  O  773  1  0.22830300  0.20215600  0.60082800  1
  O  774  1  0.19265000  0.19586500  0.59720100  1
  O  787  1  0.22849000  0.45050500  0.84906900  1
  O  788  1  0.19283900  0.45318600  0.85535900  1
  O  801  1  0.97997100  0.47687500  0.46042900  1
  O  802  1  0.99940000  0.46800000  0.48188100  1
  O  815  1  0.97986300  0.03519200  0.57401600  1
  O  816  1  0.99924800  0.06546100  0.58302400  1
  O  829  1  0.98006300  0.59043500  0.01563600  1
  O  830  1  0.99945200  0.56913800  0.98535600  1
  O  843  1  0.47995900  0.59160500  0.57311800  1
  O  844  1  0.49937100  0.60058000  0.55180700  1
  O  857  1  0.47986300  0.03330700  0.45953700  1
  O  858  1  0.49926600  0.00302800  0.45055000  1
  O  871  1  0.48005000  0.47804800  0.01789600  1
  O  872  1  0.49948200  0.49942300  0.04819800  1
  O  1425  1  0.86731400  0.47848300  0.68270800  1
  O  1426  1  0.87115000  0.47364000  0.71133500  1
  O  1439  1  0.86720900  0.60276400  0.80563000  1
  O  1440  1  0.87105100  0.63622200  0.81045500  1
  O  1453  1  0.86711400  0.60140400  0.68135700  1
  O  1454  1  0.87092000  0.57276000  0.64794400  1
  O  1467  1  0.36731000  0.31010300  0.09724300  1
  O  1468  1  0.37114800  0.31495000  0.06862000  1
  O  1481  1  0.36721700  0.18582700  0.97431700  1
  O  1482  1  0.37105400  0.15236200  0.96948300  1
  O  1495  1  0.36710200  0.18719500  0.09859800  1
  O  1496  1  0.37092200  0.21584100  0.13201300  1
  O  1509  1  0.09121100  0.18576000  0.09717700  1
  O  1510  1  0.08737800  0.15231000  0.06854500  1
  O  1523  1  0.09130700  0.18709300  0.97422900  1
  O  1524  1  0.08748000  0.21571600  0.96938600  1
  O  1537  1  0.09142300  0.31001800  0.09850300  1
  O  1538  1  0.08761200  0.31481400  0.13193300  1
  O  1551  1  0.59122300  0.60282600  0.68278400  1
  O  1552  1  0.58737900  0.63628500  0.71141500  1
  O  1565  1  0.59130600  0.60149700  0.80572600  1
  O  1566  1  0.58748100  0.57286900  0.81055300  1
  O  1579  1  0.59142200  0.47857200  0.68145200  1
  O  1580  1  0.58761300  0.47377600  0.64802200  1
  O  1593  1  0.72841400  0.47820400  0.80606000  1
  O  1594  1  0.69276500  0.47458800  0.80871600  1
  O  1607  1  0.72829800  0.72638500  0.80592300  1
  O  1608  1  0.69264900  0.73268000  0.80954300  1
  O  1621  1  0.72849100  0.47803500  0.55767700  1
  O  1622  1  0.69284000  0.47535600  0.55138900  1
  O  1635  1  0.22841700  0.31038800  0.97389400  1
  O  1636  1  0.19277100  0.31400500  0.97123700  1
  O  1649  1  0.22830300  0.06220400  0.97403300  1
  O  1650  1  0.19265000  0.05591300  0.97040600  1
  O  1663  1  0.22849000  0.31055300  0.22227400  1
  O  1664  1  0.19283900  0.31323400  0.22856400  1
  O  1677  1  0.97997100  0.33692300  0.83363400  1
  O  1678  1  0.99940000  0.32804800  0.85508600  1
  O  1691  1  0.97986300  0.89524000  0.94722100  1
  O  1692  1  0.99924800  0.92550930  0.95622930  1
  O  1705  1  0.98006300  0.45048300  0.38884100  1
  O  1706  1  0.99945200  0.42918600  0.35856100  1
  O  1719  1  0.47995900  0.45165300  0.94632300  1
  O  1720  1  0.49937100  0.46062800  0.92501200  1
  O  1733  1  0.47986300  0.89335500  0.83274200  1
  O  1734  1  0.49926600  0.86307600  0.82375500  1
  O  1747  1  0.48005000  0.33809600  0.39110100  1
  O  1748  1  0.49948200  0.35947100  0.42140300  1
