# generated using pymatgen
data_H17C29N6O
_symmetry_space_group_name_H-M   'P 1'
_cell_length_a   51.20630000
_cell_length_b   51.20630000
_cell_length_c   51.20630000
_cell_angle_alpha   90.00000000
_cell_angle_beta   90.00000000
_cell_angle_gamma   90.00000000
_symmetry_Int_Tables_number   1
_chemical_formula_structural   H17C29N6O
_chemical_formula_sum   'H408 C696 N144 O24'
_cell_volume   134267.27931263
_cell_formula_units_Z   24
loop_
 _symmetry_equiv_pos_site_id
 _symmetry_equiv_pos_as_xyz
  1  'x, y, z'
loop_
 _atom_site_type_symbol
 _atom_site_label
 _atom_site_symmetry_multiplicity
 _atom_site_fract_x
 _atom_site_fract_y
 _atom_site_fract_z
 _atom_site_occupancy
  H  49  1  0.05662200  0.52170700  0.36310600  1
  H  50  1  0.05700400  0.52108000  0.40997700  1
  H  51  1  0.97611800  0.50410400  0.36371300  1
  H  52  1  0.97650100  0.50360200  0.41036900  1
  H  53  1  0.01631100  0.45961300  0.42396700  1
  H  54  1  0.01549700  0.42456300  0.45874000  1
  H  55  1  0.01705000  0.49546600  0.49517100  1
  H  56  1  0.01495600  0.52775500  0.52761100  1
  H  57  1  0.01685900  0.56491900  0.42352800  1
  H  58  1  0.01626300  0.59984600  0.45865400  1
  H  59  1  0.05443500  0.61330300  0.52220300  1
  H  60  1  0.05393000  0.66008700  0.52236900  1
  H  61  1  0.97493600  0.61254000  0.50054800  1
  H  62  1  0.97452000  0.65941900  0.50049700  1
  H  63  1  0.01412900  0.59870300  0.56398300  1
  H  64  1  0.01433200  0.56370800  0.59876600  1
  H  65  1  0.01578700  0.42341300  0.56413500  1
  H  66  1  0.01447900  0.45833400  0.59925400  1
  H  67  1  0.97394200  0.52171700  0.61183700  1
  H  68  1  0.97328800  0.52291400  0.65869800  1
  H  69  1  0.05380500  0.50151800  0.61350400  1
  H  70  1  0.05306400  0.50248700  0.66027000  1
  H  71  1  0.05569200  0.40999600  0.50080000  1
  H  72  1  0.05516800  0.36310800  0.50016700  1
  H  73  1  0.97538400  0.36378900  0.52059200  1
  H  74  1  0.97582100  0.41056100  0.52102400  1
  H  127  1  0.36338300  0.05653500  0.52155300  1
  H  128  1  0.41025000  0.05686600  0.52089300  1
  H  129  1  0.36388700  0.97596000  0.50430500  1
  H  130  1  0.41055100  0.97629000  0.50376200  1
  H  131  1  0.42424600  0.01568300  0.45956200  1
  H  132  1  0.45904100  0.01407400  0.42454500  1
  H  133  1  0.49543300  0.01602400  0.49544700  1
  H  134  1  0.52790200  0.01540600  0.52774200  1
  H  135  1  0.42380500  0.01694200  0.56490700  1
  H  136  1  0.45898000  0.01727700  0.59982200  1
  H  137  1  0.52114500  0.05679700  0.61295400  1
  H  138  1  0.52203100  0.05640800  0.65982700  1
  H  139  1  0.50316100  0.97640100  0.61266500  1
  H  140  1  0.50395000  0.97600700  0.65931300  1
  H  141  1  0.56426200  0.01642200  0.59869600  1
  H  142  1  0.59906300  0.01569800  0.56370400  1
  H  143  1  0.56444600  0.01400500  0.42344200  1
  H  144  1  0.59955300  0.01359900  0.45837700  1
  H  145  1  0.61207500  0.97416500  0.52237700  1
  H  146  1  0.65893800  0.97349500  0.52354100  1
  H  147  1  0.61377800  0.05370900  0.50094000  1
  H  148  1  0.66054200  0.05295700  0.50190100  1
  H  149  1  0.50169200  0.05366900  0.40957800  1
  H  150  1  0.50231100  0.05297000  0.36281500  1
  H  151  1  0.52281000  0.97320600  0.36416200  1
  H  152  1  0.52196900  0.97382500  0.41102500  1
  H  205  1  0.52153100  0.36335200  0.05650600  1
  H  206  1  0.52088900  0.41021700  0.05685200  1
  H  207  1  0.50428500  0.36389300  0.97592800  1
  H  208  1  0.50376200  0.41055300  0.97627600  1
  H  209  1  0.45956800  0.42423500  0.01567300  1
  H  210  1  0.42455300  0.45903300  0.01406400  1
  H  211  1  0.49545800  0.49541700  0.01603200  1
  H  212  1  0.52775500  0.52788400  0.01537200  1
  H  213  1  0.56491100  0.42378400  0.01689900  1
  H  214  1  0.59983000  0.45895500  0.01723000  1
  H  215  1  0.61299500  0.52104500  0.05679700  1
  H  216  1  0.65986800  0.52191400  0.05638000  1
  H  217  1  0.61264700  0.50319200  0.97637200  1
  H  218  1  0.65929200  0.50395900  0.97595000  1
  H  219  1  0.59871100  0.56423900  0.01652000  1
  H  220  1  0.56372300  0.59904100  0.01582300  1
  H  221  1  0.42345900  0.56443800  0.01396900  1
  H  222  1  0.45839700  0.59954100  0.01357900  1
  H  223  1  0.52248600  0.61208300  0.97424900  1
  H  224  1  0.52369300  0.65894600  0.97361800  1
  H  225  1  0.50087600  0.61374300  0.05374700  1
  H  226  1  0.50187200  0.66051000  0.05302900  1
  H  227  1  0.40956700  0.50169600  0.05364800  1
  H  228  1  0.36280300  0.50230900  0.05291900  1
  H  229  1  0.36419900  0.52278900  0.97315100  1
  H  230  1  0.41106300  0.52195500  0.97380000  1
  H  283  1  0.55388500  0.02206800  0.86279200  1
  H  284  1  0.55471100  0.02205900  0.90957700  1
  H  285  1  0.47430300  0.00086500  0.86412000  1
  H  286  1  0.47503300  0.00112600  0.91097400  1
  H  287  1  0.51536800  0.95922700  0.92434300  1
  H  288  1  0.51457700  0.92431000  0.95923100  1
  H  289  1  0.51530000  0.99534400  0.99541200  1
  H  290  1  0.51536400  0.02773000  0.02781500  1
  H  291  1  0.51506700  0.06462000  0.92361300  1
  H  292  1  0.51547900  0.09961200  0.95865300  1
  H  293  1  0.55456200  0.11350800  0.02200200  1
  H  294  1  0.55374400  0.16029700  0.02227700  1
  H  295  1  0.47492000  0.11225100  0.00093100  1
  H  296  1  0.47419700  0.15910400  0.00093900  1
  H  297  1  0.51473100  0.09876400  0.06401400  1
  H  298  1  0.51497700  0.06385700  0.09888500  1
  H  299  1  0.51457900  0.92349200  0.06461400  1
  H  300  1  0.51416100  0.95850100  0.09964400  1
  H  301  1  0.47414100  0.02215400  0.11175600  1
  H  302  1  0.47305500  0.02324500  0.15858600  1
  H  303  1  0.55379500  0.00122000  0.11411800  1
  H  304  1  0.55261900  0.00205200  0.16088800  1
  H  305  1  0.55379100  0.90913800  0.00173400  1
  H  306  1  0.55266000  0.86236000  0.00230400  1
  H  307  1  0.47297700  0.86446600  0.02305900  1
  H  308  1  0.47401800  0.91129800  0.02221900  1
  H  361  1  0.86280400  0.55387500  0.02192000  1
  H  362  1  0.90958900  0.55470500  0.02187800  1
  H  363  1  0.86412200  0.47428100  0.00076100  1
  H  364  1  0.91097700  0.47501600  0.00099000  1
  H  365  1  0.92434700  0.51534100  0.95906700  1
  H  366  1  0.95922700  0.51454600  0.92414400  1
  H  367  1  0.99542000  0.51531700  0.99517400  1
  H  368  1  0.02782400  0.51533500  0.02755900  1
  H  369  1  0.92362600  0.51506900  0.06445900  1
  H  370  1  0.95866900  0.51548900  0.09944800  1
  H  371  1  0.02201200  0.55456800  0.11333400  1
  H  372  1  0.02229400  0.55374800  0.16012200  1
  H  373  1  0.00095900  0.47492000  0.11207800  1
  H  374  1  0.00097200  0.47419500  0.15893100  1
  H  375  1  0.06402900  0.51474900  0.09859000  1
  H  376  1  0.09889600  0.51497900  0.06368000  1
  H  377  1  0.06461600  0.51456200  0.92331800  1
  H  378  1  0.09964600  0.51414000  0.95832500  1
  H  379  1  0.11176300  0.47413100  0.02200400  1
  H  380  1  0.15859300  0.47305100  0.02311800  1
  H  381  1  0.11412300  0.55377500  0.00103700  1
  H  382  1  0.16089300  0.55260800  0.00189000  1
  H  383  1  0.00169100  0.55376400  0.90894800  1
  H  384  1  0.00225500  0.55262500  0.86217100  1
  H  385  1  0.02307700  0.47296100  0.86428800  1
  H  386  1  0.02224300  0.47400800  0.91111800  1
  H  439  1  0.02378900  0.86379000  0.55679800  1
  H  440  1  0.02262800  0.91064400  0.55663800  1
  H  441  1  0.00309500  0.86305600  0.47707800  1
  H  442  1  0.00218500  0.90982100  0.47683000  1
  H  443  1  0.95951400  0.92412000  0.51614100  1
  H  444  1  0.92449700  0.95889700  0.51474500  1
  H  445  1  0.99541200  0.99530100  0.51586000  1
  H  446  1  0.02770700  0.02783200  0.51585200  1
  H  447  1  0.06490600  0.92374000  0.51620000  1
  H  448  1  0.09978800  0.95889000  0.51598500  1
  H  449  1  0.11358300  0.02229000  0.55455900  1
  H  450  1  0.16036500  0.02252400  0.55368000  1
  H  451  1  0.11220200  0.00101900  0.47497300  1
  H  452  1  0.15905800  0.00099000  0.47418800  1
  H  453  1  0.09862400  0.06424500  0.51494000  1
  H  454  1  0.06361700  0.09901300  0.51579400  1
  H  455  1  0.92336100  0.06427700  0.51509700  1
  H  456  1  0.95824900  0.09942100  0.51528400  1
  H  457  1  0.02133900  0.11293300  0.47603100  1
  H  458  1  0.02125000  0.15971300  0.47602100  1
  H  459  1  0.00051300  0.11290400  0.55574600  1
  H  460  1  0.00017200  0.15977300  0.55564600  1
  H  461  1  0.90911600  0.00129800  0.55379500  1
  H  462  1  0.86234700  0.00190000  0.55261300  1
  H  463  1  0.86455300  0.02291000  0.47299800  1
  H  464  1  0.91138800  0.02204300  0.47409200  1
  H  475  1  0.04305800  0.54863900  0.25114100  1
  H  478  1  0.98104500  0.46267900  0.28699800  1
  H  480  1  0.98508200  0.49816700  0.31943300  1
  H  482  1  0.03363700  0.54016800  0.20394200  1
  H  489  1  0.98328500  0.54649700  0.77058300  1
  H  492  1  0.06542200  0.47751300  0.74003800  1
  H  494  1  0.03797600  0.48952000  0.70326900  1
  H  496  1  0.99242600  0.53917400  0.81803200  1
  H  503  1  0.25138300  0.04319000  0.54845400  1
  H  506  1  0.28668700  0.98163900  0.46234500  1
  H  508  1  0.31965000  0.98517500  0.49782700  1
  H  510  1  0.20417400  0.03377600  0.54004100  1
  H  517  1  0.77076600  0.98321900  0.54654000  1
  H  520  1  0.74084800  0.06560700  0.47772600  1
  H  522  1  0.70356600  0.03789300  0.48942600  1
  H  524  1  0.81822100  0.99225800  0.53919300  1
  H  531  1  0.54865700  0.25133800  0.04297000  1
  H  534  1  0.46269700  0.28718500  0.98094900  1
  H  536  1  0.49819600  0.31961300  0.98495700  1
  H  538  1  0.54017200  0.20413300  0.03358200  1
  H  545  1  0.54653800  0.77076400  0.98335900  1
  H  548  1  0.47744500  0.74021300  0.06541200  1
  H  550  1  0.48919000  0.70349900  0.03773700  1
  H  552  1  0.53924600  0.81821700  0.99250600  1
  H  559  1  0.54866500  0.04290000  0.77183400  1
  H  562  1  0.46231000  0.98172700  0.73648500  1
  H  564  1  0.49775500  0.98519500  0.70350900  1
  H  566  1  0.54019100  0.03348800  0.81902800  1
  H  573  1  0.54641100  0.98326900  0.25240200  1
  H  576  1  0.47783000  0.06585900  0.28228400  1
  H  578  1  0.48989500  0.03846300  0.31965400  1
  H  580  1  0.53898200  0.99223700  0.20495300  1
  H  587  1  0.04337300  0.25059400  0.48062000  1
  H  590  1  0.96029900  0.28551900  0.54633500  1
  H  592  1  0.98981900  0.32095500  0.53497100  1
  H  594  1  0.03262400  0.20367200  0.48889700  1
  H  601  1  0.98366000  0.77167400  0.48154600  1
  H  604  1  0.06697700  0.73909800  0.54816300  1
  H  606  1  0.03882800  0.70281000  0.53617800  1
  H  608  1  0.99294400  0.81884800  0.48992600  1
  H  615  1  0.25241000  0.54637600  0.98312100  1
  H  618  1  0.28194200  0.47837800  0.06590600  1
  H  620  1  0.31963800  0.48991200  0.03840600  1
  H  622  1  0.20496500  0.53897500  0.99211000  1
  H  629  1  0.77186200  0.54869600  0.04278600  1
  H  632  1  0.73609900  0.46253900  0.98108200  1
  H  634  1  0.70352500  0.49808100  0.98494500  1
  H  636  1  0.81905300  0.54016000  0.03341400  1
  H  685  1  0.19332400  0.65840900  0.51933700  1
  H  686  1  0.19370600  0.65778200  0.56620800  1
  H  687  1  0.11282000  0.64080600  0.51994400  1
  H  688  1  0.11320300  0.64030400  0.56660000  1
  H  689  1  0.15301300  0.59631500  0.58019800  1
  H  690  1  0.15219900  0.56126500  0.61497100  1
  H  691  1  0.15375200  0.63216800  0.65140200  1
  H  692  1  0.15165800  0.66445700  0.68384200  1
  H  693  1  0.15356100  0.70162100  0.57975900  1
  H  694  1  0.15296500  0.73654800  0.61488500  1
  H  695  1  0.19113700  0.75000500  0.67843400  1
  H  696  1  0.19063200  0.79678900  0.67860000  1
  H  697  1  0.11163800  0.74924200  0.65677900  1
  H  698  1  0.11122200  0.79612100  0.65672800  1
  H  699  1  0.15083100  0.73540500  0.72021400  1
  H  700  1  0.15103400  0.70041000  0.75499700  1
  H  701  1  0.15248900  0.56011500  0.72036600  1
  H  702  1  0.15118100  0.59503600  0.75548500  1
  H  703  1  0.11064400  0.65841900  0.76806800  1
  H  704  1  0.10999000  0.65961600  0.81492900  1
  H  705  1  0.19050700  0.63822000  0.76973500  1
  H  706  1  0.18976600  0.63918900  0.81650100  1
  H  707  1  0.19239400  0.54669800  0.65703100  1
  H  708  1  0.19187000  0.49981000  0.65639800  1
  H  709  1  0.11208600  0.50049100  0.67682300  1
  H  710  1  0.11252300  0.54726300  0.67725500  1
  H  763  1  0.50008500  0.19323700  0.67778400  1
  H  764  1  0.54695200  0.19356800  0.67712400  1
  H  765  1  0.50058900  0.11266200  0.66053600  1
  H  766  1  0.54725300  0.11299200  0.65999300  1
  H  767  1  0.56094800  0.15238500  0.61579300  1
  H  768  1  0.59574300  0.15077600  0.58077600  1
  H  769  1  0.63213500  0.15272600  0.65167800  1
  H  770  1  0.66460400  0.15210800  0.68397300  1
  H  771  1  0.56050700  0.15364400  0.72113800  1
  H  772  1  0.59568200  0.15397900  0.75605300  1
  H  773  1  0.65784700  0.19349900  0.76918500  1
  H  774  1  0.65873300  0.19311000  0.81605800  1
  H  775  1  0.63986300  0.11310300  0.76889600  1
  H  776  1  0.64065200  0.11270900  0.81554400  1
  H  777  1  0.70096400  0.15312400  0.75492700  1
  H  778  1  0.73576500  0.15240000  0.71993500  1
  H  779  1  0.70114800  0.15070700  0.57967300  1
  H  780  1  0.73625500  0.15030100  0.61460800  1
  H  781  1  0.74877700  0.11086700  0.67860800  1
  H  782  1  0.79564000  0.11019700  0.67977200  1
  H  783  1  0.75048000  0.19041100  0.65717100  1
  H  784  1  0.79724400  0.18965900  0.65813200  1
  H  785  1  0.63839400  0.19037100  0.56580900  1
  H  786  1  0.63901300  0.18967200  0.51904600  1
  H  787  1  0.65951200  0.10990800  0.52039300  1
  H  788  1  0.65867100  0.11052700  0.56725600  1
  H  841  1  0.65823300  0.50005400  0.21273700  1
  H  842  1  0.65759100  0.54691900  0.21308300  1
  H  843  1  0.64098700  0.50059500  0.13215900  1
  H  844  1  0.64046400  0.54725500  0.13250700  1
  H  845  1  0.59627000  0.56093700  0.17190400  1
  H  846  1  0.56125500  0.59573500  0.17029500  1
  H  847  1  0.63216000  0.63211900  0.17226300  1
  H  848  1  0.66445700  0.66458600  0.17160300  1
  H  849  1  0.70161300  0.56048600  0.17313000  1
  H  850  1  0.73653200  0.59565700  0.17346100  1
  H  851  1  0.74969700  0.65774700  0.21302800  1
  H  852  1  0.79657000  0.65861600  0.21261100  1
  H  853  1  0.74934900  0.63989400  0.13260300  1
  H  854  1  0.79599400  0.64066100  0.13218100  1
  H  855  1  0.73541300  0.70094100  0.17275100  1
  H  856  1  0.70042500  0.73574300  0.17205400  1
  H  857  1  0.56016100  0.70114000  0.17020000  1
  H  858  1  0.59509900  0.73624300  0.16981000  1
  H  859  1  0.65918800  0.74878500  0.13048000  1
  H  860  1  0.66039500  0.79564800  0.12984900  1
  H  861  1  0.63757800  0.75044500  0.20997800  1
  H  862  1  0.63857400  0.79721200  0.20926000  1
  H  863  1  0.54626900  0.63839800  0.20987900  1
  H  864  1  0.49950500  0.63901100  0.20915000  1
  H  865  1  0.50090100  0.65949100  0.12938200  1
  H  866  1  0.54776500  0.65865700  0.13003100  1
  H  919  1  0.69058700  0.15877000  0.01902280  1
  H  920  1  0.69141300  0.15876100  0.06580780  1
  H  921  1  0.61100500  0.13756700  0.02035080  1
  H  922  1  0.61173500  0.13782800  0.06720480  1
  H  923  1  0.65207000  0.09592890  0.08057380  1
  H  924  1  0.65127900  0.06101190  0.11546200  1
  H  925  1  0.65200200  0.13204600  0.15164300  1
  H  926  1  0.65206600  0.16443200  0.18404600  1
  H  927  1  0.65176900  0.20132200  0.07984380  1
  H  928  1  0.65218100  0.23631400  0.11488400  1
  H  929  1  0.69126400  0.25021000  0.17823300  1
  H  930  1  0.69044600  0.29699900  0.17850800  1
  H  931  1  0.61162200  0.24895300  0.15716200  1
  H  932  1  0.61089900  0.29580600  0.15717000  1
  H  933  1  0.65143300  0.23546600  0.22024500  1
  H  934  1  0.65167900  0.20055900  0.25511600  1
  H  935  1  0.65128100  0.06019390  0.22084500  1
  H  936  1  0.65086300  0.09520290  0.25587500  1
  H  937  1  0.61084300  0.15885600  0.26798700  1
  H  938  1  0.60975700  0.15994700  0.31481700  1
  H  939  1  0.69049700  0.13792200  0.27034900  1
  H  940  1  0.68932100  0.13875400  0.31711900  1
  H  941  1  0.69049300  0.04583990  0.15796500  1
  H  942  1  0.68936200  0.99906200  0.15853500  1
  H  943  1  0.60967900  0.00116793  0.17929000  1
  H  944  1  0.61072000  0.04799990  0.17845000  1
  H  997  1  0.99950600  0.69057700  0.17815100  1
  H  998  1  0.04629090  0.69140700  0.17810900  1
  H  999  1  0.00082393  0.61098300  0.15699200  1
  H  1000  1  0.04767890  0.61171800  0.15722100  1
  H  1001  1  0.06104890  0.65204300  0.11529800  1
  H  1002  1  0.09592890  0.65124800  0.08037480  1
  H  1003  1  0.13212200  0.65201900  0.15140500  1
  H  1004  1  0.16452600  0.65203700  0.18379000  1
  H  1005  1  0.06032790  0.65177100  0.22069000  1
  H  1006  1  0.09537090  0.65219100  0.25567900  1
  H  1007  1  0.15871400  0.69127000  0.26956500  1
  H  1008  1  0.15899600  0.69045000  0.31635300  1
  H  1009  1  0.13766100  0.61162200  0.26830900  1
  H  1010  1  0.13767400  0.61089700  0.31516200  1
  H  1011  1  0.20073100  0.65145100  0.25482100  1
  H  1012  1  0.23559800  0.65168100  0.21991100  1
  H  1013  1  0.20131800  0.65126400  0.07954880  1
  H  1014  1  0.23634800  0.65084200  0.11455600  1
  H  1015  1  0.24846500  0.61083300  0.17823500  1
  H  1016  1  0.29529500  0.60975300  0.17934900  1
  H  1017  1  0.25082500  0.69047700  0.15726800  1
  H  1018  1  0.29759500  0.68931000  0.15812100  1
  H  1019  1  0.13839300  0.69046600  0.06517880  1
  H  1020  1  0.13895700  0.68932700  0.01840180  1
  H  1021  1  0.15977900  0.60966300  0.02051880  1
  H  1022  1  0.15894500  0.61071000  0.06734880  1
  H  1075  1  0.16049100  0.00049193  0.71302900  1
  H  1076  1  0.15933000  0.04734590  0.71286900  1
  H  1077  1  0.13979700  0.99975800  0.63330900  1
  H  1078  1  0.13888700  0.04652290  0.63306100  1
  H  1079  1  0.09621590  0.06082190  0.67237200  1
  H  1080  1  0.06119890  0.09559890  0.67097600  1
  H  1081  1  0.13211400  0.13200300  0.67209100  1
  H  1082  1  0.16440900  0.16453400  0.67208300  1
  H  1083  1  0.20160800  0.06044190  0.67243100  1
  H  1084  1  0.23649000  0.09559190  0.67221600  1
  H  1085  1  0.25028500  0.15899200  0.71079000  1
  H  1086  1  0.29706700  0.15922600  0.70991100  1
  H  1087  1  0.24890400  0.13772100  0.63120400  1
  H  1088  1  0.29576000  0.13769200  0.63041900  1
  H  1089  1  0.23532600  0.20094700  0.67117100  1
  H  1090  1  0.20031900  0.23571500  0.67202500  1
  H  1091  1  0.06006290  0.20097900  0.67132800  1
  H  1092  1  0.09495090  0.23612300  0.67151500  1
  H  1093  1  0.15804100  0.24963500  0.63226200  1
  H  1094  1  0.15795200  0.29641500  0.63225200  1
  H  1095  1  0.13721500  0.24960600  0.71197700  1
  H  1096  1  0.13687400  0.29647500  0.71187700  1
  H  1097  1  0.04581790  0.13800000  0.71002600  1
  H  1098  1  0.99904900  0.13860200  0.70884400  1
  H  1099  1  0.00125493  0.15961200  0.62922900  1
  H  1100  1  0.04808990  0.15874500  0.63032300  1
  H  1111  1  0.17976000  0.68534100  0.40737200  1
  H  1114  1  0.11774700  0.59938100  0.44322900  1
  H  1116  1  0.12178400  0.63486900  0.47566400  1
  H  1118  1  0.17033900  0.67687000  0.36017300  1
  H  1125  1  0.11998700  0.68319900  0.92681400  1
  H  1128  1  0.20212400  0.61421500  0.89626900  1
  H  1130  1  0.17467800  0.62622200  0.85950000  1
  H  1132  1  0.12912800  0.67587600  0.97426300  1
  H  1139  1  0.38808500  0.17989200  0.70468500  1
  H  1142  1  0.42338900  0.11834100  0.61857600  1
  H  1144  1  0.45635200  0.12187700  0.65405800  1
  H  1146  1  0.34087600  0.17047800  0.69627200  1
  H  1153  1  0.90746800  0.11992100  0.70277100  1
  H  1156  1  0.87755000  0.20230900  0.63395700  1
  H  1158  1  0.84026800  0.17459500  0.64565700  1
  H  1160  1  0.95492300  0.12896000  0.69542400  1
  H  1167  1  0.68535900  0.38804000  0.19920100  1
  H  1170  1  0.59939900  0.42388700  0.13718000  1
  H  1172  1  0.63489800  0.45631500  0.14118800  1
  H  1174  1  0.67687400  0.34083500  0.18981300  1
  H  1181  1  0.68324000  0.90746600  0.13959000  1
  H  1184  1  0.61414700  0.87691500  0.22164300  1
  H  1186  1  0.62589200  0.84020100  0.19396800  1
  H  1188  1  0.67594800  0.95491900  0.14873700  1
  H  1195  1  0.68536700  0.17960200  0.92806500  1
  H  1198  1  0.59901200  0.11842900  0.89271600  1
  H  1200  1  0.63445700  0.12189700  0.85974000  1
  H  1202  1  0.67689300  0.17019000  0.97525900  1
  H  1209  1  0.68311300  0.11997100  0.40863300  1
  H  1212  1  0.61453200  0.20256100  0.43851500  1
  H  1214  1  0.62659700  0.17516500  0.47588500  1
  H  1216  1  0.67568400  0.12893900  0.36118400  1
  H  1223  1  0.18007500  0.38729600  0.63685100  1
  H  1226  1  0.09700090  0.42222100  0.70256600  1
  H  1228  1  0.12652100  0.45765700  0.69120200  1
  H  1230  1  0.16932600  0.34037400  0.64512800  1
  H  1237  1  0.12036200  0.90837600  0.63777700  1
  H  1240  1  0.20367900  0.87580000  0.70439400  1
  H  1242  1  0.17553000  0.83951200  0.69240900  1
  H  1244  1  0.12964600  0.95555000  0.64615700  1
  H  1251  1  0.38911200  0.68307800  0.13935200  1
  H  1254  1  0.41864400  0.61508000  0.22213700  1
  H  1256  1  0.45634000  0.62661400  0.19463700  1
  H  1258  1  0.34166700  0.67567700  0.14834100  1
  H  1265  1  0.90856400  0.68539800  0.19901700  1
  H  1268  1  0.87280100  0.59924100  0.13731300  1
  H  1270  1  0.84022700  0.63478300  0.14117600  1
  H  1272  1  0.95575500  0.67686200  0.18964500  1
  C  1  1  0.01634100  0.46328300  0.44358400  1
  C  2  1  0.01595900  0.44414100  0.46258000  1
  C  3  1  0.01628300  0.45623500  0.48704900  1
  C  5  1  0.01656700  0.48764700  0.45588100  1
  C  6  1  0.01683300  0.51215800  0.44264900  1
  C  7  1  0.01658400  0.53684600  0.45540700  1
  C  9  1  0.01562700  0.56780300  0.48653600  1
  C  10  1  0.01619000  0.58021700  0.46225000  1
  C  11  1  0.01658400  0.56121000  0.44313300  1
  C  12  1  0.01503700  0.58041900  0.51129400  1
  C  13  1  0.01484700  0.56699800  0.53570500  1
  C  15  1  0.01452400  0.53560800  0.56689300  1
  C  16  1  0.01443500  0.55999300  0.57916100  1
  C  17  1  0.01438500  0.57912000  0.56015500  1
  C  18  1  0.01445200  0.51110700  0.58015900  1
  C  19  1  0.01495800  0.48641500  0.56739300  1
  C  21  1  0.01567800  0.45543800  0.53623300  1
  C  22  1  0.01556700  0.44303900  0.56053200  1
  C  23  1  0.01488000  0.46204700  0.57965100  1
  C  24  1  0.01605400  0.44280700  0.51146400  1
  C  25  1  0.01585100  0.41478300  0.51116200  1
  C  26  1  0.99273100  0.40076900  0.51679800  1
  C  27  1  0.99253200  0.37324100  0.51670400  1
  C  28  1  0.01542400  0.35885000  0.51088000  1
  C  29  1  0.03834500  0.37290100  0.50471700  1
  C  30  1  0.03866900  0.40044100  0.50510000  1
  C  31  1  0.01388400  0.51127700  0.60817500  1
  C  32  1  0.99069800  0.51744000  0.62186500  1
  C  33  1  0.99033100  0.51816700  0.64939100  1
  C  34  1  0.01291200  0.51225900  0.66408200  1
  C  35  1  0.03614600  0.50620100  0.65034600  1
  C  36  1  0.03663700  0.50576600  0.62282200  1
  C  37  1  0.01467500  0.60842900  0.51158700  1
  C  38  1  0.03740400  0.62281600  0.51783500  1
  C  39  1  0.03704400  0.65034200  0.51808100  1
  C  40  1  0.01397700  0.66433400  0.51197600  1
  C  41  1  0.99144400  0.64991200  0.50527800  1
  C  42  1  0.99167300  0.62237600  0.50531900  1
  C  43  1  0.01682800  0.51207500  0.41464600  1
  C  44  1  0.03987700  0.51733300  0.40037600  1
  C  45  1  0.99356100  0.50724200  0.40060700  1
  C  46  1  0.99340300  0.50746300  0.37308300  1
  C  47  1  0.01647500  0.51263800  0.35869600  1
  C  48  1  0.03961500  0.51772900  0.37283700  1
  C  79  1  0.44386100  0.01556100  0.46324600  1
  C  80  1  0.46286500  0.01473500  0.44411900  1
  C  81  1  0.48733000  0.01497400  0.45622300  1
  C  83  1  0.45614100  0.01598100  0.48761800  1
  C  84  1  0.44289500  0.01663700  0.51212000  1
  C  85  1  0.45566400  0.01684600  0.53680900  1
  C  87  1  0.48682300  0.01676400  0.56775400  1
  C  88  1  0.46254400  0.01709300  0.58018600  1
  C  89  1  0.44341000  0.01696500  0.56118700  1
  C  90  1  0.51159100  0.01669600  0.58035400  1
  C  91  1  0.53600600  0.01627200  0.56696500  1
  C  93  1  0.56718400  0.01516100  0.53561600  1
  C  94  1  0.57945600  0.01568700  0.55999100  1
  C  95  1  0.56044800  0.01614800  0.57910800  1
  C  96  1  0.58044200  0.01451100  0.51112400  1
  C  97  1  0.56767600  0.01442500  0.48643400  1
  C  99  1  0.53652200  0.01432300  0.45545900  1
  C  100  1  0.56082900  0.01409600  0.44306600  1
  C  101  1  0.57994800  0.01391400  0.46208000  1
  C  102  1  0.51175300  0.01435900  0.44282200  1
  C  103  1  0.51149700  0.01374800  0.41480600  1
  C  104  1  0.51755700  0.99057300  0.40104600  1
  C  105  1  0.51808600  0.99023300  0.37351400  1
  C  106  1  0.51209300  0.01282900  0.35888200  1
  C  107  1  0.50608400  0.03603600  0.37268600  1
  C  108  1  0.50584000  0.03650200  0.40021400  1
  C  109  1  0.60844400  0.01394300  0.51131000  1
  C  110  1  0.62211500  0.99084500  0.51783300  1
  C  111  1  0.64963900  0.99047300  0.51854700  1
  C  112  1  0.66433600  0.01294900  0.51226900  1
  C  113  1  0.65061300  0.03610300  0.50588300  1
  C  114  1  0.62309300  0.03660500  0.50544900  1
  C  115  1  0.51191100  0.01666600  0.60834500  1
  C  116  1  0.51739100  0.03968500  0.62257900  1
  C  117  1  0.51793400  0.03942000  0.65011500  1
  C  118  1  0.51274900  0.01631500  0.66428300  1
  C  119  1  0.50738900  0.99326600  0.64992600  1
  C  120  1  0.50701000  0.99342800  0.62240800  1
  C  121  1  0.41488600  0.01665000  0.51204200  1
  C  122  1  0.40063200  0.03973200  0.51721500  1
  C  123  1  0.40080800  0.99337900  0.50732200  1
  C  124  1  0.37328400  0.99325200  0.50756200  1
  C  125  1  0.35892100  0.01636300  0.51263200  1
  C  126  1  0.37309300  0.03950400  0.51763100  1
  C  157  1  0.46325300  0.44385000  0.01555900  1
  C  158  1  0.44412900  0.46285500  0.01473100  1
  C  159  1  0.45623500  0.48731900  0.01497800  1
  C  161  1  0.48762500  0.45612700  0.01598300  1
  C  162  1  0.51212800  0.44287900  0.01663700  1
  C  163  1  0.53681900  0.45564500  0.01683900  1
  C  165  1  0.56776400  0.48680100  0.01674500  1
  C  166  1  0.58019600  0.46252300  0.01705100  1
  C  167  1  0.56119200  0.44339100  0.01693300  1
  C  168  1  0.58036600  0.51157000  0.01670100  1
  C  169  1  0.56697900  0.53598500  0.01630200  1
  C  171  1  0.53563100  0.56716600  0.01521700  1
  C  172  1  0.56000900  0.57943600  0.01577800  1
  C  173  1  0.57912400  0.56042700  0.01622400  1
  C  174  1  0.51114200  0.58042600  0.01455200  1
  C  175  1  0.48645200  0.56766400  0.01444000  1
  C  177  1  0.45547300  0.53651200  0.01432200  1
  C  178  1  0.44308400  0.56081900  0.01407900  1
  C  179  1  0.46209700  0.57993600  0.01391600  1
  C  180  1  0.44283400  0.51174400  0.01435400  1
  C  181  1  0.41481800  0.51148800  0.01372700  1
  C  182  1  0.40107200  0.51754900  0.99054400  1
  C  183  1  0.37354200  0.51807300  0.99018400  1
  C  184  1  0.35889500  0.51206400  0.01276800  1
  C  185  1  0.37268400  0.50607800  0.03599000  1
  C  186  1  0.40021400  0.50583800  0.03647300  1
  C  187  1  0.51133300  0.60843100  0.01400100  1
  C  188  1  0.51791900  0.62211300  0.99092700  1
  C  189  1  0.51865500  0.64963500  0.99057700  1
  C  190  1  0.51233700  0.66431800  0.01305000  1
  C  191  1  0.50587500  0.65058800  0.03617700  1
  C  192  1  0.50542400  0.62306800  0.03665900  1
  C  193  1  0.60835700  0.51188600  0.01665300  1
  C  194  1  0.62260700  0.51732300  0.03967100  1
  C  195  1  0.65014400  0.51785200  0.03938900  1
  C  196  1  0.66429500  0.51270600  0.01626600  1
  C  197  1  0.64992000  0.50737900  0.99322100  1
  C  198  1  0.62240200  0.50701600  0.99339900  1
  C  199  1  0.51204800  0.41487100  0.01663700  1
  C  200  1  0.51721700  0.40060700  0.03971300  1
  C  201  1  0.50732600  0.40080400  0.99336200  1
  C  202  1  0.50756800  0.37327800  0.99322100  1
  C  203  1  0.51263000  0.35890300  0.01632700  1
  C  204  1  0.51762400  0.37306700  0.03947500  1
  C  235  1  0.51530400  0.96298100  0.94394200  1
  C  236  1  0.51491900  0.94390300  0.96300200  1
  C  237  1  0.51506500  0.95608300  0.98742900  1
  C  239  1  0.51528200  0.98739800  0.95614400  1
  C  240  1  0.51533700  0.01187000  0.94281100  1
  C  241  1  0.51545600  0.03659300  0.95553400  1
  C  243  1  0.51534300  0.06764600  0.98662400  1
  C  244  1  0.51543800  0.07999300  0.96229900  1
  C  245  1  0.51527000  0.06093900  0.94322300  1
  C  246  1  0.51524500  0.08034800  0.01135500  1
  C  247  1  0.51527800  0.06699200  0.03580700  1
  C  249  1  0.51499300  0.03568200  0.06708200  1
  C  250  1  0.51505400  0.06009600  0.07928800  1
  C  251  1  0.51498500  0.07917200  0.06023200  1
  C  252  1  0.51476500  0.01121900  0.08042100  1
  C  253  1  0.51484300  0.98649700  0.06770900  1
  C  255  1  0.51474500  0.95544700  0.03662200  1
  C  256  1  0.51464000  0.94310800  0.06095700  1
  C  257  1  0.51447200  0.96216400  0.08003100  1
  C  258  1  0.51470800  0.94274100  0.01188800  1
  C  259  1  0.51396000  0.91472300  0.01169600  1
  C  260  1  0.49067400  0.90117200  0.01778400  1
  C  261  1  0.49008200  0.87365400  0.01829100  1
  C  262  1  0.51253100  0.85881000  0.01225800  1
  C  263  1  0.53584400  0.87239000  0.00616100  1
  C  264  1  0.53656100  0.89992200  0.00594800  1
  C  265  1  0.51404200  0.01144100  0.10843600  1
  C  266  1  0.49077500  0.01773700  0.12192400  1
  C  267  1  0.49015400  0.01837200  0.14944100  1
  C  268  1  0.51254600  0.01226900  0.16434200  1
  C  269  1  0.53584200  0.00598100  0.15082000  1
  C  270  1  0.53659400  0.00564400  0.12329000  1
  C  271  1  0.51478200  0.10837100  0.01160300  1
  C  272  1  0.53744500  0.12291400  0.01774400  1
  C  273  1  0.53690600  0.15044800  0.01805400  1
  C  274  1  0.51371000  0.16429200  0.01211500  1
  C  275  1  0.49122500  0.14971400  0.00558700  1
  C  276  1  0.49163500  0.12218400  0.00557700  1
  C  277  1  0.51492500  0.01170600  0.91478600  1
  C  278  1  0.53759800  0.01772400  0.90019900  1
  C  279  1  0.49176700  0.00563000  0.90101200  1
  C  280  1  0.49135000  0.00549700  0.87348000  1
  C  281  1  0.51383500  0.01193300  0.85886300  1
  C  282  1  0.53704900  0.01789600  0.87266600  1
  C  313  1  0.94394600  0.51524700  0.96281900  1
  C  314  1  0.96300400  0.51487600  0.94373700  1
  C  315  1  0.98743100  0.51503800  0.95591100  1
  C  317  1  0.95615000  0.51525500  0.98723400  1
  C  318  1  0.94282100  0.51532300  0.01170700  1
  C  319  1  0.95554600  0.51544000  0.03642900  1
  C  321  1  0.98663600  0.51534100  0.06747900  1
  C  322  1  0.96231300  0.51544000  0.07982900  1
  C  323  1  0.94323500  0.51526800  0.06077600  1
  C  324  1  0.01136800  0.51524900  0.08017700  1
  C  325  1  0.03581900  0.51528600  0.06682000  1
  C  327  1  0.06709000  0.51498900  0.03550700  1
  C  328  1  0.07929900  0.51506700  0.05992100  1
  C  329  1  0.06024500  0.51499700  0.07899900  1
  C  330  1  0.08042600  0.51474300  0.01104300  1
  C  331  1  0.06771200  0.51483500  0.98632200  1
  C  333  1  0.03662300  0.51473500  0.95527100  1
  C  334  1  0.06095800  0.51463800  0.94293400  1
  C  335  1  0.08003300  0.51445600  0.96198900  1
  C  336  1  0.01188900  0.51469400  0.94256300  1
  C  337  1  0.01169300  0.51394400  0.91454300  1
  C  338  1  0.01779500  0.49066000  0.90099200  1
  C  339  1  0.01829700  0.49006500  0.87347200  1
  C  340  1  0.01225100  0.51250700  0.85862300  1
  C  341  1  0.00611800  0.53581100  0.87220300  1
  C  342  1  0.00592700  0.53653700  0.89973700  1
  C  343  1  0.10844200  0.51402400  0.01126800  1
  C  344  1  0.12193100  0.49076400  0.01758000  1
  C  345  1  0.14944800  0.49014700  0.01823300  1
  C  346  1  0.16434900  0.51254000  0.01213200  1
  C  347  1  0.15082500  0.53583200  0.00583700  1
  C  348  1  0.12329600  0.53657600  0.00547000  1
  C  349  1  0.01161900  0.51478400  0.10819900  1
  C  350  1  0.01776100  0.53744900  0.12274100  1
  C  351  1  0.01808200  0.53690600  0.15027400  1
  C  352  1  0.01214000  0.51371200  0.16411700  1
  C  353  1  0.00562000  0.49122300  0.14954000  1
  C  354  1  0.00559700  0.49163700  0.12201100  1
  C  355  1  0.91479500  0.51491300  0.01154800  1
  C  356  1  0.90021100  0.53758800  0.01756200  1
  C  357  1  0.90101800  0.49175200  0.00549500  1
  C  358  1  0.87348600  0.49133200  0.00538000  1
  C  359  1  0.85887100  0.51381600  0.01183200  1
  C  360  1  0.87267700  0.53703700  0.01775900  1
  C  391  1  0.96320700  0.94372900  0.51590300  1
  C  392  1  0.94407700  0.96273100  0.51516100  1
  C  393  1  0.95618100  0.98719500  0.51527400  1
  C  395  1  0.98758500  0.95600700  0.51602600  1
  C  396  1  0.01210000  0.94276500  0.51645600  1
  C  397  1  0.03677900  0.95557700  0.51630500  1
  C  399  1  0.06773400  0.98675900  0.51565900  1
  C  400  1  0.08015700  0.96247500  0.51596000  1
  C  401  1  0.06116400  0.94334100  0.51617700  1
  C  402  1  0.08036300  0.01152600  0.51534100  1
  C  403  1  0.06694100  0.03594200  0.51550100  1
  C  405  1  0.03553800  0.06712600  0.51573900  1
  C  406  1  0.05991500  0.07940500  0.51570600  1
  C  407  1  0.07904500  0.06040500  0.51526100  1
  C  408  1  0.01103200  0.08038200  0.51588400  1
  C  409  1  0.98635500  0.06757500  0.51571000  1
  C  411  1  0.95540600  0.03638800  0.51508300  1
  C  412  1  0.94298900  0.06068200  0.51517900  1
  C  413  1  0.96198100  0.07981800  0.51538600  1
  C  414  1  0.94277200  0.01161700  0.51481900  1
  C  415  1  0.91475800  0.01135900  0.51399700  1
  C  416  1  0.90123800  0.01753800  0.49071500  1
  C  417  1  0.87371800  0.01806800  0.49009400  1
  C  418  1  0.85884300  0.01199000  0.51251100  1
  C  419  1  0.87239400  0.00580000  0.53581700  1
  C  420  1  0.89992600  0.00556100  0.53656300  1
  C  421  1  0.01114700  0.10841000  0.51594200  1
  C  422  1  0.01708200  0.12260200  0.49300200  1
  C  423  1  0.01717600  0.15013900  0.49305200  1
  C  424  1  0.01119200  0.16435100  0.51601400  1
  C  425  1  0.00485100  0.15011700  0.53877500  1
  C  426  1  0.00505000  0.12258000  0.53885300  1
  C  427  1  0.10838300  0.01183900  0.51479800  1
  C  428  1  0.12296200  0.01801100  0.53743200  1
  C  429  1  0.15049400  0.01830300  0.53685600  1
  C  430  1  0.16430500  0.01229400  0.51365700  1
  C  431  1  0.14969200  0.00571200  0.49120900  1
  C  432  1  0.12216100  0.00572400  0.49165400  1
  C  433  1  0.01203500  0.91473900  0.51678000  1
  C  434  1  0.01823600  0.90079700  0.53980400  1
  C  435  1  0.00643100  0.90031900  0.49389800  1
  C  436  1  0.00683300  0.87278500  0.49409700  1
  C  437  1  0.01300100  0.85880400  0.51715300  1
  C  438  1  0.01894100  0.87326900  0.53987500  1
  C  469  1  0.00737600  0.50922000  0.28787100  1
  C  471  1  0.03014600  0.53393000  0.25507000  1
  C  472  1  0.01769700  0.51991000  0.23485400  1
  C  474  1  0.99491600  0.49464800  0.26766200  1
  C  476  1  0.97725200  0.47463900  0.27222400  1
  C  479  1  0.00195300  0.50625400  0.31439700  1
  C  481  1  0.02192600  0.52539600  0.20859300  1
  C  483  1  0.01982600  0.50678500  0.73495000  1
  C  485  1  0.99648800  0.53193600  0.76709100  1
  C  486  1  0.00871000  0.51831300  0.78770600  1
  C  488  1  0.03229000  0.49287500  0.75562400  1
  C  490  1  0.05052700  0.47330700  0.75170200  1
  C  493  1  0.02435700  0.50232300  0.70839900  1
  C  495  1  0.00394300  0.52412500  0.81380600  1
  C  497  1  0.28807600  0.00734300  0.50914400  1
  C  499  1  0.25529500  0.03020500  0.53380300  1
  C  500  1  0.23506300  0.01772400  0.51983600  1
  C  502  1  0.26785000  0.99483000  0.49463600  1
  C  504  1  0.27246100  0.97707900  0.47467600  1
  C  507  1  0.31461000  0.00194700  0.50611900  1
  C  509  1  0.20880400  0.02201100  0.52530400  1
  C  511  1  0.73520200  0.01973500  0.50674800  1
  C  513  1  0.76729800  0.99640100  0.53195400  1
  C  514  1  0.78792800  0.00856500  0.51831100  1
  C  516  1  0.75588700  0.03213400  0.49279900  1
  C  518  1  0.75186600  0.05035700  0.47320900  1
  C  521  1  0.70866500  0.02430800  0.50227800  1
  C  523  1  0.81401700  0.00376500  0.52412900  1
  C  525  1  0.50923600  0.28806000  0.00727400  1
  C  527  1  0.53394400  0.25526100  0.03005900  1
  C  528  1  0.51991600  0.23504100  0.01762700  1
  C  530  1  0.49465800  0.26784400  0.99483400  1
  C  532  1  0.47464300  0.27239800  0.97717400  1
  C  535  1  0.50627500  0.31458600  0.00183300  1
  C  537  1  0.52539800  0.20877900  0.02187100  1
  C  539  1  0.50675400  0.73516900  0.01985900  1
  C  541  1  0.53196800  0.76728400  0.99655700  1
  C  542  1  0.51835200  0.78790500  0.00877000  1
  C  544  1  0.49286100  0.75585000  0.03232600  1
  C  546  1  0.47328300  0.75194200  0.05055600  1
  C  549  1  0.50221700  0.70862500  0.02433300  1
  C  551  1  0.52417900  0.81399700  0.00400100  1
  C  553  1  0.50922200  0.00724100  0.73510300  1
  C  555  1  0.53397100  0.02997000  0.76790500  1
  C  556  1  0.51996900  0.01749800  0.78812000  1
  C  558  1  0.49467700  0.99474600  0.75531100  1
  C  560  1  0.47465000  0.97707500  0.75067300  1
  C  563  1  0.50616400  0.00190200  0.70856700  1
  C  565  1  0.52545700  0.02172700  0.81438000  1
  C  567  1  0.50674000  0.01988500  0.28800200  1
  C  569  1  0.53185600  0.99648300  0.25588200  1
  C  570  1  0.51823700  0.00869200  0.23526000  1
  C  572  1  0.49280100  0.03230800  0.26732600  1
  C  574  1  0.47324000  0.05055900  0.27136300  1
  C  577  1  0.50236400  0.02453200  0.31454700  1
  C  579  1  0.52402700  0.00388200  0.20916600  1
  C  581  1  0.00679800  0.28833400  0.51829900  1
  C  583  1  0.02984700  0.25485900  0.49467100  1
  C  584  1  0.01661900  0.23498300  0.50845100  1
  C  586  1  0.99329200  0.26840800  0.53233700  1
  C  588  1  0.97459500  0.27337800  0.55122300  1
  C  591  1  0.00305200  0.31511700  0.52206600  1
  C  593  1  0.02081400  0.20860900  0.50349600  1
  C  595  1  0.02091300  0.73499100  0.51960000  1
  C  597  1  0.99714500  0.76779600  0.49574900  1
  C  598  1  0.00963100  0.78803600  0.50969100  1
  C  600  1  0.03367300  0.75528200  0.53380500  1
  C  602  1  0.05228900  0.75082300  0.55289900  1
  C  605  1  0.02539400  0.70832300  0.52334200  1
  C  607  1  0.00473200  0.81427100  0.50466000  1
  C  609  1  0.28801100  0.50675800  0.01979000  1
  C  611  1  0.25589200  0.53184300  0.99635600  1
  C  612  1  0.23527000  0.51824100  0.00858800  1
  C  614  1  0.26733200  0.49284000  0.03222800  1
  C  616  1  0.27134000  0.47330100  0.05051500  1
  C  619  1  0.31454900  0.50236800  0.02445400  1
  C  621  1  0.20917300  0.52402500  0.00376300  1
  C  623  1  0.73511400  0.50926700  0.00713200  1
  C  625  1  0.76792700  0.53399300  0.02986800  1
  C  626  1  0.78813300  0.51996100  0.01741900  1
  C  628  1  0.75530700  0.49467700  0.99466400  1
  C  630  1  0.75062800  0.47465400  0.97700300  1
  C  633  1  0.70857900  0.50627700  0.00175700  1
  C  635  1  0.81439800  0.52543700  0.02164200  1
  C  637  1  0.15304300  0.59998500  0.59981500  1
  C  638  1  0.15266100  0.58084300  0.61881100  1
  C  639  1  0.15298500  0.59293700  0.64328000  1
  C  641  1  0.15326900  0.62434900  0.61211200  1
  C  642  1  0.15353500  0.64886000  0.59888000  1
  C  643  1  0.15328600  0.67354800  0.61163800  1
  C  645  1  0.15232900  0.70450500  0.64276700  1
  C  646  1  0.15289200  0.71691900  0.61848100  1
  C  647  1  0.15328600  0.69791200  0.59936400  1
  C  648  1  0.15173900  0.71712100  0.66752500  1
  C  649  1  0.15154900  0.70370000  0.69193600  1
  C  651  1  0.15122600  0.67231000  0.72312400  1
  C  652  1  0.15113700  0.69669500  0.73539200  1
  C  653  1  0.15108700  0.71582200  0.71638600  1
  C  654  1  0.15115400  0.64780900  0.73639000  1
  C  655  1  0.15166000  0.62311700  0.72362400  1
  C  657  1  0.15238000  0.59214000  0.69246400  1
  C  658  1  0.15226900  0.57974100  0.71676300  1
  C  659  1  0.15158200  0.59874900  0.73588200  1
  C  660  1  0.15275600  0.57950900  0.66769500  1
  C  661  1  0.15255300  0.55148500  0.66739300  1
  C  662  1  0.12943300  0.53747100  0.67302900  1
  C  663  1  0.12923400  0.50994300  0.67293500  1
  C  664  1  0.15212600  0.49555200  0.66711100  1
  C  665  1  0.17504700  0.50960300  0.66094800  1
  C  666  1  0.17537100  0.53714300  0.66133100  1
  C  667  1  0.15058600  0.64797900  0.76440600  1
  C  668  1  0.12740000  0.65414200  0.77809600  1
  C  669  1  0.12703300  0.65486900  0.80562200  1
  C  670  1  0.14961400  0.64896100  0.82031300  1
  C  671  1  0.17284800  0.64290300  0.80657700  1
  C  672  1  0.17333900  0.64246800  0.77905300  1
  C  673  1  0.15137700  0.74513100  0.66781800  1
  C  674  1  0.17410600  0.75951800  0.67406600  1
  C  675  1  0.17374600  0.78704400  0.67431200  1
  C  676  1  0.15067900  0.80103600  0.66820700  1
  C  677  1  0.12814600  0.78661400  0.66150900  1
  C  678  1  0.12837500  0.75907800  0.66155000  1
  C  679  1  0.15353000  0.64877700  0.57087700  1
  C  680  1  0.17657900  0.65403500  0.55660700  1
  C  681  1  0.13026300  0.64394400  0.55683800  1
  C  682  1  0.13010500  0.64416500  0.52931400  1
  C  683  1  0.15317700  0.64934000  0.51492700  1
  C  684  1  0.17631700  0.65443100  0.52906800  1
  C  715  1  0.58056300  0.15226300  0.61947700  1
  C  716  1  0.59956700  0.15143700  0.60035000  1
  C  717  1  0.62403200  0.15167600  0.61245400  1
  C  719  1  0.59284300  0.15268300  0.64384900  1
  C  720  1  0.57959700  0.15333900  0.66835100  1
  C  721  1  0.59236600  0.15354800  0.69304000  1
  C  723  1  0.62352500  0.15346600  0.72398500  1
  C  724  1  0.59924600  0.15379500  0.73641700  1
  C  725  1  0.58011200  0.15366700  0.71741800  1
  C  726  1  0.64829300  0.15339800  0.73658500  1
  C  727  1  0.67270800  0.15297400  0.72319600  1
  C  729  1  0.70388600  0.15186300  0.69184700  1
  C  730  1  0.71615800  0.15238900  0.71622200  1
  C  731  1  0.69715000  0.15285000  0.73533900  1
  C  732  1  0.71714400  0.15121300  0.66735500  1
  C  733  1  0.70437800  0.15112700  0.64266500  1
  C  735  1  0.67322400  0.15102500  0.61169000  1
  C  736  1  0.69753100  0.15079800  0.59929700  1
  C  737  1  0.71665000  0.15061600  0.61831100  1
  C  738  1  0.64845500  0.15106100  0.59905300  1
  C  739  1  0.64819900  0.15045000  0.57103700  1
  C  740  1  0.65425900  0.12727500  0.55727700  1
  C  741  1  0.65478800  0.12693500  0.52974500  1
  C  742  1  0.64879500  0.14953100  0.51511300  1
  C  743  1  0.64278600  0.17273800  0.52891700  1
  C  744  1  0.64254200  0.17320400  0.55644500  1
  C  745  1  0.74514600  0.15064500  0.66754100  1
  C  746  1  0.75881700  0.12754700  0.67406400  1
  C  747  1  0.78634100  0.12717500  0.67477800  1
  C  748  1  0.80103800  0.14965100  0.66850000  1
  C  749  1  0.78731500  0.17280500  0.66211400  1
  C  750  1  0.75979500  0.17330700  0.66168000  1
  C  751  1  0.64861300  0.15336800  0.76457600  1
  C  752  1  0.65409300  0.17638700  0.77881000  1
  C  753  1  0.65463600  0.17612200  0.80634600  1
  C  754  1  0.64945100  0.15301700  0.82051400  1
  C  755  1  0.64409100  0.12996800  0.80615700  1
  C  756  1  0.64371200  0.13013000  0.77863900  1
  C  757  1  0.55158800  0.15335200  0.66827300  1
  C  758  1  0.53733400  0.17643400  0.67344600  1
  C  759  1  0.53751000  0.13008100  0.66355300  1
  C  760  1  0.50998600  0.12995400  0.66379300  1
  C  761  1  0.49562300  0.15306500  0.66886300  1
  C  762  1  0.50979500  0.17620600  0.67386200  1
  C  793  1  0.59995500  0.58055200  0.17179000  1
  C  794  1  0.58083100  0.59955700  0.17096200  1
  C  795  1  0.59293700  0.62402100  0.17120900  1
  C  797  1  0.62432700  0.59282900  0.17221400  1
  C  798  1  0.64883000  0.57958100  0.17286800  1
  C  799  1  0.67352100  0.59234700  0.17307000  1
  C  801  1  0.70446600  0.62350300  0.17297600  1
  C  802  1  0.71689800  0.59922500  0.17328200  1
  C  803  1  0.69789400  0.58009300  0.17316400  1
  C  804  1  0.71706800  0.64827200  0.17293200  1
  C  805  1  0.70368100  0.67268700  0.17253300  1
  C  807  1  0.67233300  0.70386800  0.17144800  1
  C  808  1  0.69671100  0.71613800  0.17200900  1
  C  809  1  0.71582600  0.69712900  0.17245500  1
  C  810  1  0.64784400  0.71712800  0.17078300  1
  C  811  1  0.62315400  0.70436600  0.17067100  1
  C  813  1  0.59217500  0.67321400  0.17055300  1
  C  814  1  0.57978600  0.69752100  0.17031000  1
  C  815  1  0.59879900  0.71663800  0.17014700  1
  C  816  1  0.57953600  0.64844600  0.17058500  1
  C  817  1  0.55152000  0.64819000  0.16995800  1
  C  818  1  0.53777400  0.65425100  0.14677500  1
  C  819  1  0.51024400  0.65477500  0.14641500  1
  C  820  1  0.49559700  0.64876600  0.16899900  1
  C  821  1  0.50938600  0.64278000  0.19222100  1
  C  822  1  0.53691600  0.64254000  0.19270400  1
  C  823  1  0.64803500  0.74513300  0.17023200  1
  C  824  1  0.65462100  0.75881500  0.14715800  1
  C  825  1  0.65535700  0.78633700  0.14680800  1
  C  826  1  0.64903900  0.80102000  0.16928100  1
  C  827  1  0.64257700  0.78729000  0.19240800  1
  C  828  1  0.64212600  0.75977000  0.19289000  1
  C  829  1  0.74505900  0.64858800  0.17288400  1
  C  830  1  0.75930900  0.65402500  0.19590200  1
  C  831  1  0.78684600  0.65455400  0.19562000  1
  C  832  1  0.80099700  0.64940800  0.17249700  1
  C  833  1  0.78662200  0.64408100  0.14945200  1
  C  834  1  0.75910400  0.64371800  0.14963000  1
  C  835  1  0.64875000  0.55157300  0.17286800  1
  C  836  1  0.65391900  0.53730900  0.19594400  1
  C  837  1  0.64402800  0.53750600  0.14959300  1
  C  838  1  0.64427000  0.50998000  0.14945200  1
  C  839  1  0.64933200  0.49560500  0.17255800  1
  C  840  1  0.65432600  0.50976900  0.19570600  1
  C  871  1  0.65200600  0.09968290  0.10017300  1
  C  872  1  0.65162100  0.08060490  0.11923300  1
  C  873  1  0.65176700  0.09278490  0.14366000  1
  C  875  1  0.65198400  0.12410000  0.11237500  1
  C  876  1  0.65203900  0.14857200  0.09904180  1
  C  877  1  0.65215800  0.17329500  0.11176500  1
  C  879  1  0.65204500  0.20434800  0.14285500  1
  C  880  1  0.65214000  0.21669500  0.11853000  1
  C  881  1  0.65197200  0.19764100  0.09945380  1
  C  882  1  0.65194700  0.21705000  0.16758600  1
  C  883  1  0.65198000  0.20369400  0.19203800  1
  C  885  1  0.65169500  0.17238400  0.22331300  1
  C  886  1  0.65175600  0.19679800  0.23551900  1
  C  887  1  0.65168700  0.21587400  0.21646300  1
  C  888  1  0.65146700  0.14792100  0.23665200  1
  C  889  1  0.65154500  0.12319900  0.22394000  1
  C  891  1  0.65144700  0.09214890  0.19285300  1
  C  892  1  0.65134200  0.07980990  0.21718800  1
  C  893  1  0.65117400  0.09886590  0.23626200  1
  C  894  1  0.65141000  0.07944290  0.16811900  1
  C  895  1  0.65066200  0.05142490  0.16792700  1
  C  896  1  0.62737600  0.03787390  0.17401500  1
  C  897  1  0.62678400  0.01035590  0.17452200  1
  C  898  1  0.64923300  0.99551200  0.16848900  1
  C  899  1  0.67254600  0.00909193  0.16239200  1
  C  900  1  0.67326300  0.03662390  0.16217900  1
  C  901  1  0.65074400  0.14814300  0.26466700  1
  C  902  1  0.62747700  0.15443900  0.27815500  1
  C  903  1  0.62685600  0.15507400  0.30567200  1
  C  904  1  0.64924800  0.14897100  0.32057300  1
  C  905  1  0.67254400  0.14268300  0.30705100  1
  C  906  1  0.67329600  0.14234600  0.27952100  1
  C  907  1  0.65148400  0.24507300  0.16783400  1
  C  908  1  0.67414700  0.25961600  0.17397500  1
  C  909  1  0.67360800  0.28715000  0.17428500  1
  C  910  1  0.65041200  0.30099400  0.16834600  1
  C  911  1  0.62792700  0.28641600  0.16181800  1
  C  912  1  0.62833700  0.25888600  0.16180800  1
  C  913  1  0.65162700  0.14840800  0.07101680  1
  C  914  1  0.67430000  0.15442600  0.05642980  1
  C  915  1  0.62846900  0.14233200  0.05724280  1
  C  916  1  0.62805200  0.14219900  0.02971080  1
  C  917  1  0.65053700  0.14863500  0.01509380  1
  C  918  1  0.67375100  0.15459800  0.02889680  1
  C  949  1  0.08064790  0.65194900  0.11905000  1
  C  950  1  0.09970590  0.65157800  0.09996780  1
  C  951  1  0.12413300  0.65174000  0.11214200  1
  C  953  1  0.09285190  0.65195700  0.14346500  1
  C  954  1  0.07952290  0.65202500  0.16793800  1
  C  955  1  0.09224790  0.65214200  0.19266000  1
  C  957  1  0.12333800  0.65204300  0.22371000  1
  C  958  1  0.09901490  0.65214200  0.23606000  1
  C  959  1  0.07993690  0.65197000  0.21700700  1
  C  960  1  0.14807000  0.65195100  0.23640800  1
  C  961  1  0.17252100  0.65198800  0.22305100  1
  C  963  1  0.20379200  0.65169100  0.19173800  1
  C  964  1  0.21600100  0.65176900  0.21615200  1
  C  965  1  0.19694700  0.65169900  0.23523000  1
  C  966  1  0.21712800  0.65144500  0.16727400  1
  C  967  1  0.20441400  0.65153700  0.14255300  1
  C  969  1  0.17332500  0.65143700  0.11150200  1
  C  970  1  0.19766000  0.65134000  0.09916480  1
  C  971  1  0.21673500  0.65115800  0.11822000  1
  C  972  1  0.14859100  0.65139600  0.09879380  1
  C  973  1  0.14839500  0.65064600  0.07077380  1
  C  974  1  0.15449700  0.62736200  0.05722280  1
  C  975  1  0.15499900  0.62676700  0.02970280  1
  C  976  1  0.14895300  0.64920900  0.01485380  1
  C  977  1  0.14282000  0.67251300  0.02843380  1
  C  978  1  0.14262900  0.67323900  0.05596780  1
  C  979  1  0.24514400  0.65072600  0.16749900  1
  C  980  1  0.25863300  0.62746600  0.17381100  1
  C  981  1  0.28615000  0.62684900  0.17446400  1
  C  982  1  0.30105100  0.64924200  0.16836300  1
  C  983  1  0.28752700  0.67253400  0.16206800  1
  C  984  1  0.25999800  0.67327800  0.16170100  1
  C  985  1  0.14832100  0.65148600  0.26443000  1
  C  986  1  0.15446300  0.67415100  0.27897200  1
  C  987  1  0.15478400  0.67360800  0.30650500  1
  C  988  1  0.14884200  0.65041400  0.32034800  1
  C  989  1  0.14232200  0.62792500  0.30577100  1
  C  990  1  0.14229900  0.62833900  0.27824200  1
  C  991  1  0.05149690  0.65161500  0.16777900  1
  C  992  1  0.03691290  0.67429000  0.17379300  1
  C  993  1  0.03771990  0.62845400  0.16172600  1
  C  994  1  0.01018790  0.62803400  0.16161100  1
  C  995  1  0.99557300  0.65051800  0.16806300  1
  C  996  1  0.00937893  0.67373900  0.17399000  1
  C  1027  1  0.09990890  0.08043090  0.67213400  1
  C  1028  1  0.08077890  0.09943290  0.67139200  1
  C  1029  1  0.09288290  0.12389700  0.67150500  1
  C  1031  1  0.12428700  0.09270890  0.67225700  1
  C  1032  1  0.14880200  0.07946690  0.67268700  1
  C  1033  1  0.17348100  0.09227890  0.67253600  1
  C  1035  1  0.20443600  0.12346100  0.67189000  1
  C  1036  1  0.21685900  0.09917690  0.67219100  1
  C  1037  1  0.19786600  0.08004290  0.67240800  1
  C  1038  1  0.21706500  0.14822800  0.67157200  1
  C  1039  1  0.20364300  0.17264400  0.67173200  1
  C  1041  1  0.17224000  0.20382800  0.67197000  1
  C  1042  1  0.19661700  0.21610700  0.67193700  1
  C  1043  1  0.21574700  0.19710700  0.67149200  1
  C  1044  1  0.14773400  0.21708400  0.67211500  1
  C  1045  1  0.12305700  0.20427700  0.67194100  1
  C  1047  1  0.09210790  0.17309000  0.67131400  1
  C  1048  1  0.07969090  0.19738400  0.67141000  1
  C  1049  1  0.09868290  0.21652000  0.67161700  1
  C  1050  1  0.07947390  0.14831900  0.67105000  1
  C  1051  1  0.05145990  0.14806100  0.67022800  1
  C  1052  1  0.03793990  0.15424000  0.64694600  1
  C  1053  1  0.01041990  0.15477000  0.64632500  1
  C  1054  1  0.99554500  0.14869200  0.66874200  1
  C  1055  1  0.00909593  0.14250200  0.69204800  1
  C  1056  1  0.03662790  0.14226300  0.69279400  1
  C  1057  1  0.14784900  0.24511200  0.67217300  1
  C  1058  1  0.15378400  0.25930400  0.64923300  1
  C  1059  1  0.15387800  0.28684100  0.64928300  1
  C  1060  1  0.14789400  0.30105300  0.67224500  1
  C  1061  1  0.14155300  0.28681900  0.69500600  1
  C  1062  1  0.14175200  0.25928200  0.69508400  1
  C  1063  1  0.24508500  0.14854100  0.67102900  1
  C  1064  1  0.25966400  0.15471300  0.69366300  1
  C  1065  1  0.28719600  0.15500500  0.69308700  1
  C  1066  1  0.30100700  0.14899600  0.66988800  1
  C  1067  1  0.28639400  0.14241400  0.64744000  1
  C  1068  1  0.25886300  0.14242600  0.64788500  1
  C  1069  1  0.14873700  0.05144090  0.67301100  1
  C  1070  1  0.15493800  0.03749890  0.69603500  1
  C  1071  1  0.14313300  0.03702090  0.65012900  1
  C  1072  1  0.14353500  0.00948693  0.65032800  1
  C  1073  1  0.14970300  0.99550600  0.67338400  1
  C  1074  1  0.15564300  0.00997093  0.69610600  1
  C  1105  1  0.14407800  0.64592200  0.44410200  1
  C  1107  1  0.16684800  0.67063200  0.41130100  1
  C  1108  1  0.15439900  0.65661200  0.39108500  1
  C  1110  1  0.13161800  0.63135000  0.42389300  1
  C  1112  1  0.11395400  0.61134100  0.42845500  1
  C  1115  1  0.13865500  0.64295600  0.47062800  1
  C  1117  1  0.15862800  0.66209800  0.36482400  1
  C  1119  1  0.15652800  0.64348700  0.89118100  1
  C  1121  1  0.13319000  0.66863800  0.92332200  1
  C  1122  1  0.14541200  0.65501500  0.94393700  1
  C  1124  1  0.16899200  0.62957700  0.91185500  1
  C  1126  1  0.18722900  0.61000900  0.90793300  1
  C  1129  1  0.16105900  0.63902500  0.86463000  1
  C  1131  1  0.14064500  0.66082700  0.97003700  1
  C  1133  1  0.42477800  0.14404500  0.66537500  1
  C  1135  1  0.39199700  0.16690700  0.69003400  1
  C  1136  1  0.37176500  0.15442600  0.67606700  1
  C  1138  1  0.40455200  0.13153200  0.65086700  1
  C  1140  1  0.40916300  0.11378100  0.63090700  1
  C  1143  1  0.45131200  0.13864900  0.66235000  1
  C  1145  1  0.34550600  0.15871300  0.68153500  1
  C  1147  1  0.87190400  0.15643700  0.66297900  1
  C  1149  1  0.90400000  0.13310300  0.68818500  1
  C  1150  1  0.92463000  0.14526700  0.67454200  1
  C  1152  1  0.89258900  0.16883600  0.64903000  1
  C  1154  1  0.88856800  0.18705900  0.62944000  1
  C  1157  1  0.84536700  0.16101000  0.65850900  1
  C  1159  1  0.95071900  0.14046700  0.68036000  1
  C  1161  1  0.64593800  0.42476200  0.16350500  1
  C  1163  1  0.67064600  0.39196300  0.18629000  1
  C  1164  1  0.65661800  0.37174300  0.17385800  1
  C  1166  1  0.63136000  0.40454600  0.15106500  1
  C  1168  1  0.61134500  0.40910000  0.13340500  1
  C  1171  1  0.64297700  0.45128800  0.15806400  1
  C  1173  1  0.66210000  0.34548100  0.17810200  1
  C  1175  1  0.64345600  0.87187100  0.17609000  1
  C  1177  1  0.66867000  0.90398600  0.15278800  1
  C  1178  1  0.65505400  0.92460700  0.16500100  1
  C  1180  1  0.62956300  0.89255200  0.18855700  1
  C  1182  1  0.60998500  0.88864400  0.20678700  1
  C  1185  1  0.63891900  0.84532700  0.18056400  1
  C  1187  1  0.66088100  0.95069900  0.16023200  1
  C  1189  1  0.64592400  0.14394300  0.89133400  1
  C  1191  1  0.67067300  0.16667200  0.92413600  1
  C  1192  1  0.65667100  0.15420000  0.94435100  1
  C  1194  1  0.63137900  0.13144800  0.91154200  1
  C  1196  1  0.61135200  0.11377700  0.90690400  1
  C  1199  1  0.64286600  0.13860400  0.86479800  1
  C  1201  1  0.66215900  0.15842900  0.97061100  1
  C  1203  1  0.64344200  0.15658700  0.44423300  1
  C  1205  1  0.66855800  0.13318500  0.41211300  1
  C  1206  1  0.65493900  0.14539400  0.39149100  1
  C  1208  1  0.62950300  0.16901000  0.42355700  1
  C  1210  1  0.60994200  0.18726100  0.42759400  1
  C  1213  1  0.63906600  0.16123400  0.47077800  1
  C  1215  1  0.66072900  0.14058400  0.36539700  1
  C  1217  1  0.14350000  0.42503600  0.67453000  1
  C  1219  1  0.16654900  0.39156100  0.65090200  1
  C  1220  1  0.15332100  0.37168500  0.66468200  1
  C  1222  1  0.12999400  0.40511000  0.68856800  1
  C  1224  1  0.11129700  0.41008000  0.70745400  1
  C  1227  1  0.13975400  0.45181900  0.67829700  1
  C  1229  1  0.15751600  0.34531100  0.65972700  1
  C  1231  1  0.15761500  0.87169300  0.67583100  1
  C  1233  1  0.13384700  0.90449800  0.65198000  1
  C  1234  1  0.14633300  0.92473800  0.66592200  1
  C  1236  1  0.17037500  0.89198400  0.69003600  1
  C  1238  1  0.18899100  0.88752500  0.70913000  1
  C  1241  1  0.16209600  0.84502500  0.67957300  1
  C  1243  1  0.14143400  0.95097300  0.66089100  1
  C  1245  1  0.42471300  0.64346000  0.17602100  1
  C  1247  1  0.39259400  0.66854500  0.15258700  1
  C  1248  1  0.37197200  0.65494300  0.16481900  1
  C  1250  1  0.40403400  0.62954200  0.18845900  1
  C  1252  1  0.40804200  0.61000300  0.20674600  1
  C  1255  1  0.45125100  0.63907000  0.18068500  1
  C  1257  1  0.34587500  0.66072700  0.15999400  1
  C  1259  1  0.87181600  0.64596900  0.16336300  1
  C  1261  1  0.90462900  0.67069500  0.18609900  1
  C  1262  1  0.92483500  0.65666300  0.17365000  1
  C  1264  1  0.89200900  0.63137900  0.15089500  1
  C  1266  1  0.88733000  0.61135600  0.13323400  1
  C  1269  1  0.84528100  0.64297900  0.15798800  1
  C  1271  1  0.95110000  0.66213900  0.17787300  1
  N  4  1  0.01661400  0.48225900  0.48186600  1
  N  8  1  0.01596400  0.54187300  0.48135900  1
  N  14  1  0.01487700  0.54097400  0.54090800  1
  N  20  1  0.01538200  0.48137200  0.54143100  1
  N  75  1  0.01134100  0.51377100  0.69013800  1
  N  76  1  0.01250100  0.69042300  0.51120500  1
  N  77  1  0.01780500  0.51349700  0.33256200  1
  N  78  1  0.01635500  0.33272700  0.50993700  1
  N  82  1  0.48213000  0.01570300  0.48223900  1
  N  86  1  0.48162400  0.01668200  0.54182800  1
  N  92  1  0.54120100  0.01564500  0.54095500  1
  N  98  1  0.54171400  0.01460700  0.48138800  1
  N  153  1  0.69038700  0.01136300  0.51377600  1
  N  154  1  0.51367700  0.01764000  0.69041100  1
  N  155  1  0.33278700  0.01771100  0.51352800  1
  N  156  1  0.51350900  0.01127000  0.33281800  1
  N  160  1  0.48224900  0.48211600  0.01570700  1
  N  164  1  0.54183700  0.48160700  0.01668200  1
  N  170  1  0.54097000  0.54118100  0.01566000  1
  N  176  1  0.48140300  0.54170300  0.01462700  1
  N  231  1  0.51387800  0.69036800  0.01150400  1
  N  232  1  0.69042700  0.51360900  0.01758600  1
  N  233  1  0.51350100  0.33276800  0.01767800  1
  N  234  1  0.33283200  0.51349300  0.01119400  1
  N  238  1  0.51531700  0.98209200  0.98214800  1
  N  242  1  0.51545600  0.04169900  0.98148800  1
  N  248  1  0.51530800  0.04098100  0.04108000  1
  N  254  1  0.51497700  0.98139100  0.04175600  1
  N  309  1  0.51058300  0.01381900  0.19035500  1
  N  310  1  0.51195200  0.19035000  0.01123900  1
  N  311  1  0.51205200  0.01103900  0.83280700  1
  N  312  1  0.51060900  0.83279600  0.01378500  1
  N  316  1  0.98215400  0.51528600  0.98192200  1
  N  320  1  0.98149800  0.51544400  0.04153200  1
  N  326  1  0.04108900  0.51530800  0.04080900  1
  N  332  1  0.04175900  0.51496800  0.98121500  1
  N  387  1  0.19036100  0.51058200  0.01369600  1
  N  388  1  0.01128000  0.51195200  0.19017300  1
  N  389  1  0.83281500  0.51203400  0.01094000  1
  N  390  1  0.01376300  0.51057800  0.83260400  1
  N  394  1  0.98220300  0.98199600  0.51575300  1
  N  398  1  0.04180300  0.98154300  0.51594200  1
  N  404  1  0.04091600  0.04113800  0.51573100  1
  N  410  1  0.98133200  0.04160500  0.51547500  1
  N  465  1  0.01018200  0.19043900  0.51729400  1
  N  466  1  0.19036100  0.01136200  0.51189000  1
  N  467  1  0.01471300  0.83275700  0.51851800  1
  N  468  1  0.83283100  0.01354200  0.51057400  1
  N  470  1  0.02440500  0.52822400  0.28032700  1
  N  473  1  0.00071600  0.50094200  0.24241500  1
  N  484  1  0.00246200  0.52568500  0.74202400  1
  N  487  1  0.02603400  0.49944600  0.78069300  1
  N  498  1  0.28054500  0.02444500  0.52808900  1
  N  501  1  0.24260500  0.00067300  0.50092600  1
  N  512  1  0.74224000  0.00240200  0.52568900  1
  N  515  1  0.78094900  0.02586100  0.49940500  1
  N  526  1  0.52824300  0.28051800  0.02430400  1
  N  529  1  0.50094600  0.24259900  0.00064800  1
  N  540  1  0.52567700  0.74222300  0.00251300  1
  N  543  1  0.49946600  0.78091100  0.02608100  1
  N  554  1  0.52822800  0.02427000  0.74264900  1
  N  557  1  0.50099700  0.00052500  0.78056000  1
  N  568  1  0.52563200  0.00250500  0.28094600  1
  N  571  1  0.49937200  0.02602400  0.24225900  1
  N  582  1  0.02447900  0.28025300  0.50011400  1
  N  585  1  0.99897000  0.24299900  0.52660100  1
  N  596  1  0.00320200  0.74257200  0.50122700  1
  N  599  1  0.02731200  0.78052300  0.52802700  1
  N  610  1  0.28095800  0.52562700  0.00238400  1
  N  613  1  0.24226300  0.49939900  0.02594600  1
  N  624  1  0.74266800  0.52827700  0.02415100  1
  N  627  1  0.78056000  0.50098700  0.00045500  1
  N  640  1  0.15331600  0.61896100  0.63809700  1
  N  644  1  0.15266600  0.67857500  0.63759000  1
  N  650  1  0.15157900  0.67767600  0.69713900  1
  N  656  1  0.15208400  0.61807400  0.69766200  1
  N  711  1  0.14804300  0.65047300  0.84636900  1
  N  712  1  0.14920300  0.82712500  0.66743600  1
  N  713  1  0.15450700  0.65019900  0.48879300  1
  N  714  1  0.15305700  0.46942900  0.66616800  1
  N  718  1  0.61883200  0.15240500  0.63847000  1
  N  722  1  0.61832600  0.15338400  0.69805900  1
  N  728  1  0.67790300  0.15234700  0.69718600  1
  N  734  1  0.67841600  0.15130900  0.63761900  1
  N  789  1  0.82708900  0.14806500  0.67000700  1
  N  790  1  0.65037900  0.15434200  0.84664200  1
  N  791  1  0.46948900  0.15441300  0.66975900  1
  N  792  1  0.65021100  0.14797200  0.48904900  1
  N  796  1  0.61895100  0.61881800  0.17193800  1
  N  800  1  0.67853900  0.61830900  0.17291300  1
  N  806  1  0.67767200  0.67788300  0.17189100  1
  N  812  1  0.61810500  0.67840500  0.17085800  1
  N  867  1  0.65058000  0.82707000  0.16773500  1
  N  868  1  0.82712900  0.65031100  0.17381700  1
  N  869  1  0.65020300  0.46947000  0.17390900  1
  N  870  1  0.46953400  0.65019500  0.16742500  1
  N  874  1  0.65201900  0.11879400  0.13837900  1
  N  878  1  0.65215800  0.17840100  0.13771900  1
  N  884  1  0.65201000  0.17768300  0.19731100  1
  N  890  1  0.65167900  0.11809300  0.19798700  1
  N  945  1  0.64728500  0.15052100  0.34658600  1
  N  946  1  0.64865400  0.32705200  0.16747000  1
  N  947  1  0.64875400  0.14774100  0.98903800  1
  N  948  1  0.64731100  0.96949800  0.17001600  1
  N  952  1  0.11885600  0.65198800  0.13815300  1
  N  956  1  0.11820000  0.65214600  0.19776300  1
  N  962  1  0.17779100  0.65201000  0.19704000  1
  N  968  1  0.17846100  0.65167000  0.13744600  1
  N  1023  1  0.32706300  0.64728400  0.16992700  1
  N  1024  1  0.14798200  0.64865400  0.34640400  1
  N  1025  1  0.96951700  0.64873600  0.16717100  1
  N  1026  1  0.15046500  0.64728000  0.98883500  1
  N  1030  1  0.11890500  0.11869800  0.67198400  1
  N  1034  1  0.17850500  0.11824500  0.67217300  1
  N  1040  1  0.17761800  0.17784000  0.67196200  1
  N  1046  1  0.11803400  0.17830700  0.67170600  1
  N  1101  1  0.14688400  0.32714100  0.67352500  1
  N  1102  1  0.32706300  0.14806400  0.66812100  1
  N  1103  1  0.15141500  0.96945900  0.67474900  1
  N  1104  1  0.96953300  0.15024400  0.66680500  1
  N  1106  1  0.16110700  0.66492600  0.43655800  1
  N  1109  1  0.13741800  0.63764400  0.39864600  1
  N  1120  1  0.13916400  0.66238700  0.89825500  1
  N  1123  1  0.16273600  0.63614800  0.93692400  1
  N  1134  1  0.41724700  0.16114700  0.68432000  1
  N  1137  1  0.37930700  0.13737500  0.65715700  1
  N  1148  1  0.87894200  0.13910400  0.68192000  1
  N  1151  1  0.91765100  0.16256300  0.65563600  1
  N  1162  1  0.66494500  0.41722000  0.18053500  1
  N  1165  1  0.63764800  0.37930100  0.15687900  1
  N  1176  1  0.66237900  0.87892500  0.15874400  1
  N  1179  1  0.63616800  0.91761300  0.18231200  1
  N  1190  1  0.66493000  0.16097200  0.89888000  1
  N  1193  1  0.63769900  0.13722700  0.93679100  1
  N  1204  1  0.66233400  0.13920700  0.43717700  1
  N  1207  1  0.63607400  0.16272600  0.39849000  1
  N  1218  1  0.16118100  0.41695500  0.65634500  1
  N  1221  1  0.13567200  0.37970100  0.68283200  1
  N  1232  1  0.13990400  0.87927400  0.65745800  1
  N  1235  1  0.16401400  0.91722500  0.68425800  1
  N  1246  1  0.41766000  0.66232900  0.15861500  1
  N  1249  1  0.37896500  0.63610100  0.18217700  1
  N  1260  1  0.87937000  0.66497900  0.18038200  1
  N  1263  1  0.91726200  0.63768900  0.15668600  1
  O  477  1  0.96553500  0.46445200  0.25407800  1
  O  491  1  0.05584000  0.45813300  0.76936000  1
  O  505  1  0.25420700  0.96510200  0.46500700  1
  O  519  1  0.76966100  0.05519900  0.45802400  1
  O  533  1  0.46443500  0.25424200  0.96548800  1
  O  547  1  0.45816200  0.76963200  0.05592100  1
  O  561  1  0.46497600  0.96506500  0.76890100  1
  O  575  1  0.45798500  0.05533600  0.25360900  1
  O  589  1  0.96814000  0.25624000  0.56655100  1
  O  603  1  0.05808100  0.76812400  0.56830700  1
  O  617  1  0.25381000  0.45772700  0.05500600  1
  O  631  1  0.76901100  0.46447200  0.96563700  1
  O  1113  1  0.10223700  0.60115400  0.41030900  1
  O  1127  1  0.19254200  0.59483500  0.92559100  1
  O  1141  1  0.39090900  0.10180400  0.62123800  1
  O  1155  1  0.90636300  0.19190100  0.61425500  1
  O  1169  1  0.60113700  0.39094400  0.12171900  1
  O  1183  1  0.59486400  0.90633400  0.21215200  1
  O  1197  1  0.60167800  0.10176700  0.92513200  1
  O  1211  1  0.59468700  0.19203800  0.40984000  1
  O  1225  1  0.10484200  0.39294200  0.72278200  1
  O  1239  1  0.19478300  0.90482600  0.72453800  1
  O  1253  1  0.39051200  0.59442900  0.21123700  1
  O  1267  1  0.90571300  0.60117400  0.12186800  1
