# generated using pymatgen
data_H38C55N6
_symmetry_space_group_name_H-M   'P 1'
_cell_length_a   42.95730000
_cell_length_b   42.95730000
_cell_length_c   42.95730000
_cell_angle_alpha   90.00000000
_cell_angle_beta   90.00000000
_cell_angle_gamma   90.00000000
_symmetry_Int_Tables_number   1
_chemical_formula_structural   H38C55N6
_chemical_formula_sum   'H456 C660 N72'
_cell_volume   79270.37822656
_cell_formula_units_Z   12
loop_
 _symmetry_equiv_pos_site_id
 _symmetry_equiv_pos_as_xyz
  1  'x, y, z'
loop_
 _atom_site_type_symbol
 _atom_site_label
 _atom_site_symmetry_multiplicity
 _atom_site_fract_x
 _atom_site_fract_y
 _atom_site_fract_z
 _atom_site_occupancy
  H  25  1  0.07198300  0.60832500  0.50090900  1
  H  26  1  0.09693700  0.55900400  0.49845800  1
  H  27  1  0.09615200  0.44567000  0.49972200  1
  H  28  1  0.07045900  0.39669400  0.50187500  1
  H  29  1  0.98357600  0.44179000  0.50657700  1
  H  30  1  0.98463100  0.56462600  0.50711500  1
  H  31  1  0.02385400  0.50071300  0.56554100  1
  H  32  1  0.93706100  0.50537800  0.61081100  1
  H  33  1  0.91127400  0.50763000  0.56188600  1
  H  34  1  0.02256700  0.50017100  0.44272600  1
  H  35  1  0.91027600  0.50893800  0.44854800  1
  H  36  1  0.93513800  0.50641200  0.39918000  1
  H  39  1  0.08654900  0.50227300  0.47872200  1
  H  40  1  0.08977600  0.50249700  0.51990900  1
  H  42  1  0.91751600  0.48751200  0.50503900  1
  H  43  1  0.92079800  0.52869700  0.50526900  1
  H  72  1  0.50908700  0.07181800  0.61123500  1
  H  73  1  0.50887500  0.09717100  0.56200900  1
  H  74  1  0.51079300  0.09676300  0.44866600  1
  H  75  1  0.51056300  0.07113200  0.39964100  1
  H  76  1  0.50407500  0.98419300  0.44427800  1
  H  77  1  0.50516900  0.98455400  0.56694700  1
  H  78  1  0.56684200  0.02270900  0.50299700  1
  H  79  1  0.61010100  0.93495600  0.50766200  1
  H  80  1  0.56057500  0.91030600  0.51019700  1
  H  81  1  0.44402900  0.02441900  0.50234300  1
  H  82  1  0.44725600  0.91203800  0.51177300  1
  H  83  1  0.39849600  0.93797800  0.50899800  1
  H  86  1  0.48778900  0.08950200  0.50512700  1
  H  87  1  0.52906900  0.08783500  0.50552700  1
  H  89  1  0.50380500  0.91778600  0.49032900  1
  H  90  1  0.50419400  0.92134500  0.53149000  1
  H  119  1  0.61117700  0.50902900  0.07184300  1
  H  120  1  0.56193700  0.50882400  0.09717500  1
  H  121  1  0.44859700  0.51077500  0.09672100  1
  H  122  1  0.39958000  0.51056700  0.07107100  1
  H  123  1  0.44425300  0.50415900  0.98414200  1
  H  124  1  0.56692300  0.50522500  0.98455900  1
  H  125  1  0.50285300  0.56686500  0.02278300  1
  H  126  1  0.50764600  0.61028500  0.93511900  1
  H  127  1  0.51033200  0.56080800  0.91038500  1
  H  128  1  0.50213100  0.44407600  0.02427600  1
  H  129  1  0.51196600  0.44747400  0.91193600  1
  H  130  1  0.50901900  0.39867700  0.93778200  1
  H  133  1  0.50505500  0.48777500  0.08946600  1
  H  134  1  0.50546500  0.52905500  0.08782900  1
  H  136  1  0.49053300  0.50401400  0.91769700  1
  H  137  1  0.53168100  0.50441000  0.92140800  1
  H  166  1  0.56961900  0.10934400  0.00155500  1
  H  167  1  0.59517500  0.06021600  0.00044200  1
  H  168  1  0.59515600  0.94653000  0.00317700  1
  H  169  1  0.56947500  0.89749600  0.00608300  1
  H  170  1  0.48247700  0.94233800  0.00663100  1
  H  171  1  0.48255800  0.06472500  0.00471400  1
  H  172  1  0.52254700  0.00309800  0.06497400  1
  H  173  1  0.43580900  0.00429500  0.11034300  1
  H  174  1  0.40977400  0.00514200  0.06141800  1
  H  175  1  0.52156900  0.00165300  0.94250100  1
  H  176  1  0.40889400  0.00224600  0.94786200  1
  H  177  1  0.43408900  0.00010700  0.89861500  1
  H  180  1  0.58597200  0.00308000  0.98058000  1
  H  181  1  0.58779700  0.00368400  0.02184100  1
  H  183  1  0.41717500  0.98389500  0.00487900  1
  H  184  1  0.41808300  0.02519000  0.00420100  1
  H  213  1  0.00129900  0.56951200  0.10875600  1
  H  214  1  0.00047000  0.59505100  0.05960800  1
  H  215  1  0.00341700  0.59493500  0.94590700  1
  H  216  1  0.00641300  0.56920900  0.89690000  1
  H  217  1  0.00671500  0.48225100  0.94182100  1
  H  218  1  0.00438100  0.48242300  0.06418600  1
  H  219  1  0.06494600  0.52234400  0.00269800  1
  H  220  1  0.11025700  0.43557900  0.00404500  1
  H  221  1  0.06131500  0.40957400  0.00478300  1
  H  222  1  0.94248000  0.52145500  0.00108000  1
  H  223  1  0.94775300  0.40877300  0.00173900  1
  H  224  1  0.89852000  0.43401000  0.99962500  1
  H  227  1  0.98072200  0.58586500  0.00242800  1
  H  228  1  0.02198700  0.58757900  0.00311200  1
  H  230  1  0.00481500  0.41701200  0.98339700  1
  H  231  1  0.00406300  0.41792000  0.02469000  1
  H  260  1  0.10921200  0.00309800  0.57141400  1
  H  261  1  0.06003200  0.00187400  0.59687600  1
  H  262  1  0.94628100  0.00334000  0.59654100  1
  H  263  1  0.89730000  0.00574500  0.57071100  1
  H  264  1  0.94239100  0.00635500  0.48383800  1
  H  265  1  0.06475800  0.00560300  0.48425700  1
  H  266  1  0.00125200  0.06542200  0.52390600  1
  H  267  1  0.00148000  0.11061200  0.43708500  1
  H  268  1  0.00407200  0.06167200  0.41119900  1
  H  269  1  0.00253700  0.94307800  0.52335900  1
  H  270  1  0.00591300  0.94791300  0.41073600  1
  H  271  1  0.00491300  0.89870400  0.43616100  1
  H  274  1  0.00315200  0.98140000  0.58763700  1
  H  275  1  0.00322600  0.02267300  0.58925700  1
  H  277  1  0.98497600  0.00464900  0.41846200  1
  H  278  1  0.02625100  0.00486200  0.41998400  1
  H  289  1  0.02627700  0.53133200  0.28215900  1
  H  290  1  0.01665100  0.52742400  0.33661800  1
  H  297  1  0.96335400  0.49132700  0.22580500  1
  H  298  1  0.96937400  0.50242900  0.17161600  1
  H  299  1  0.06681400  0.50756000  0.18374900  1
  H  300  1  0.97731200  0.43866300  0.32337200  1
  H  301  1  0.06068400  0.49629000  0.23787300  1
  H  303  1  0.97612500  0.41646200  0.27326200  1
  H  304  1  0.98996400  0.43430600  0.24209600  1
  H  307  1  0.03935400  0.53187000  0.13833500  1
  H  308  1  0.96971900  0.46539000  0.37131700  1
  H  315  1  0.98166100  0.53241200  0.72840700  1
  H  316  1  0.98600000  0.53431900  0.67336400  1
  H  323  1  0.05472800  0.50700100  0.78002800  1
  H  324  1  0.04576400  0.51437600  0.83445400  1
  H  325  1  0.95066000  0.49310300  0.82156200  1
  H  326  1  0.04932300  0.45958000  0.67514200  1
  H  327  1  0.95978300  0.48542800  0.76727300  1
  H  329  1  0.06233500  0.43618900  0.72338800  1
  H  330  1  0.04708300  0.44742100  0.75692100  1
  H  333  1  0.97199100  0.52710200  0.86598500  1
  H  334  1  0.03852300  0.49065000  0.62520700  1
  H  341  1  0.28256400  0.02896000  0.53300600  1
  H  342  1  0.33709300  0.01974600  0.52910000  1
  H  349  1  0.22662100  0.96559800  0.49308000  1
  H  350  1  0.17239500  0.97126400  0.50426800  1
  H  351  1  0.18388800  0.06879600  0.50925200  1
  H  352  1  0.32413800  0.98030100  0.44034600  1
  H  353  1  0.23803400  0.06301300  0.49790400  1
  H  355  1  0.27401200  0.97860900  0.41819400  1
  H  356  1  0.24273600  0.99216400  0.43606100  1
  H  359  1  0.13870600  0.04110100  0.53368600  1
  H  360  1  0.37207200  0.97298200  0.46706600  1
  H  367  1  0.72923800  0.97970300  0.53376700  1
  H  368  1  0.67417600  0.98368800  0.53583200  1
  H  375  1  0.78025800  0.05328000  0.50856300  1
  H  376  1  0.83475200  0.04466300  0.51594200  1
  H  377  1  0.82251200  0.94953300  0.49439300  1
  H  378  1  0.67538000  0.04737300  0.46138100  1
  H  379  1  0.76817400  0.95830700  0.48670200  1
  H  381  1  0.72349500  0.06087200  0.43799100  1
  H  382  1  0.75715200  0.04578300  0.44906900  1
  H  385  1  0.86669800  0.97109900  0.52857800  1
  H  386  1  0.62570300  0.03627100  0.49260300  1
  H  393  1  0.53222100  0.28239000  0.02837600  1
  H  394  1  0.52863900  0.33695800  0.01927600  1
  H  401  1  0.49194900  0.22689300  0.96494200  1
  H  402  1  0.50278500  0.17258900  0.97043600  1
  H  403  1  0.50782000  0.18372300  0.06799400  1
  H  404  1  0.43975100  0.32463200  0.97993800  1
  H  405  1  0.49683300  0.23795900  0.06239200  1
  H  407  1  0.41727000  0.27466100  0.97823200  1
  H  408  1  0.43496000  0.24324600  0.99170800  1
  H  411  1  0.53203500  0.13853100  0.04010700  1
  H  412  1  0.46683300  0.37235600  0.97257000  1
  H  419  1  0.53309000  0.72941700  0.97995400  1
  H  420  1  0.53539200  0.67436000  0.98387000  1
  H  427  1  0.50796900  0.78025400  0.05361000  1
  H  428  1  0.51507600  0.83476800  0.04500400  1
  H  429  1  0.49310600  0.82252400  0.94996900  1
  H  430  1  0.46113000  0.67518200  0.04778500  1
  H  431  1  0.48569600  0.76813900  0.95874000  1
  H  433  1  0.43752500  0.72317800  0.06133600  1
  H  434  1  0.44842700  0.75689300  0.04624700  1
  H  437  1  0.52717200  0.86686100  0.97137800  1
  H  438  1  0.49252400  0.62564700  0.03650000  1
  H  445  1  0.54456200  0.02373100  0.72860500  1
  H  446  1  0.54557400  0.01950300  0.67337300  1
  H  453  1  0.51186200  0.95384500  0.78347800  1
  H  454  1  0.50516200  0.96351500  0.83793000  1
  H  455  1  0.48990300  0.05878100  0.81877800  1
  H  456  1  0.46739700  0.96059300  0.67582900  1
  H  457  1  0.49592000  0.04887600  0.76460300  1
  H  459  1  0.44324000  0.94944500  0.72387400  1
  H  460  1  0.45535900  0.96389600  0.75738900  1
  H  463  1  0.47341700  0.03567200  0.86792900  1
  H  464  1  0.50014800  0.96944800  0.62562600  1
  H  471  1  0.54189100  0.98172300  0.28407000  1
  H  472  1  0.53614400  0.99134900  0.33852700  1
  H  479  1  0.50544100  0.04173800  0.22696900  1
  H  480  1  0.50314400  0.03514000  0.17188100  1
  H  481  1  0.49536400  0.93784000  0.18417700  1
  H  482  1  0.44554700  0.02543400  0.32304200  1
  H  483  1  0.49738900  0.94466800  0.23922800  1
  H  485  1  0.42470300  0.02576800  0.27240100  1
  H  486  1  0.44420800  0.01346300  0.24159800  1
  H  489  1  0.47777700  0.96344700  0.13627600  1
  H  490  1  0.47098400  0.03522100  0.37122700  1
  H  497  1  0.02605200  0.27908900  0.47437800  1
  H  498  1  0.02162200  0.33413200  0.47268300  1
  H  505  1  0.95307400  0.22726200  0.49972600  1
  H  506  1  0.96209700  0.17286300  0.49215400  1
  H  507  1  0.05722100  0.18581200  0.51322600  1
  H  508  1  0.95839600  0.33197100  0.54749200  1
  H  509  1  0.04805700  0.24006200  0.52110600  1
  H  511  1  0.94546400  0.28361600  0.57069900  1
  H  512  1  0.96075600  0.25014800  0.55933000  1
  H  515  1  0.03582200  0.14154800  0.47902400  1
  H  516  1  0.96903600  0.38203300  0.51654500  1
  H  523  1  0.98058300  0.72501300  0.47530900  1
  H  524  1  0.99026400  0.67058900  0.47953900  1
  H  531  1  0.04349100  0.78173400  0.51500700  1
  H  532  1  0.03738000  0.83583900  0.50355600  1
  H  533  1  0.93996300  0.82348300  0.49839700  1
  H  534  1  0.02972000  0.68441400  0.56815700  1
  H  535  1  0.94618800  0.76944300  0.51002300  1
  H  537  1  0.03079400  0.73464300  0.59009300  1
  H  538  1  0.01689200  0.76568100  0.57207300  1
  H  541  1  0.96732100  0.86887900  0.47392900  1
  H  542  1  0.03730000  0.63629900  0.54174500  1
  H  549  1  0.28407000  0.54175400  0.98144400  1
  H  550  1  0.33853600  0.53603200  0.99107200  1
  H  557  1  0.22692000  0.50552000  0.04157700  1
  H  558  1  0.17182600  0.50316500  0.03492800  1
  H  559  1  0.18423800  0.49500500  0.93767300  1
  H  560  1  0.32303000  0.44557000  0.02552300  1
  H  561  1  0.23929300  0.49709100  0.94456100  1
  H  563  1  0.27238700  0.42473800  0.02594400  1
  H  564  1  0.24158600  0.44420100  0.01357400  1
  H  567  1  0.13630600  0.47752100  0.96324700  1
  H  568  1  0.37126900  0.47091200  0.03506100  1
  H  575  1  0.72859500  0.54452000  0.02372500  1
  H  576  1  0.67335700  0.54552500  0.01957900  1
  H  583  1  0.78337100  0.51197600  0.95364700  1
  H  584  1  0.83782900  0.50521300  0.96319600  1
  H  585  1  0.81885900  0.48981200  0.05847500  1
  H  586  1  0.67575900  0.46749200  0.96047200  1
  H  587  1  0.76467500  0.49588500  0.04869200  1
  H  589  1  0.72378600  0.44335600  0.94923100  1
  H  590  1  0.75732200  0.45545900  0.96365200  1
  H  593  1  0.86796200  0.47339600  0.03527500  1
  H  594  1  0.62554700  0.50038700  0.96942500  1
  H  619  1  0.25821400  0.79455600  0.68714000  1
  H  620  1  0.28316800  0.74523500  0.68468900  1
  H  621  1  0.28238300  0.63190100  0.68595300  1
  H  622  1  0.25669000  0.58292500  0.68810600  1
  H  623  1  0.16980700  0.62802100  0.69280800  1
  H  624  1  0.17086200  0.75085700  0.69334600  1
  H  625  1  0.21008500  0.68694400  0.75177200  1
  H  626  1  0.12329200  0.69160900  0.79704200  1
  H  627  1  0.09750540  0.69386100  0.74811700  1
  H  628  1  0.20879800  0.68640200  0.62895700  1
  H  629  1  0.09650740  0.69516900  0.63477900  1
  H  630  1  0.12136900  0.69264300  0.58541100  1
  H  633  1  0.27278000  0.68850400  0.66495300  1
  H  634  1  0.27600700  0.68872800  0.70614000  1
  H  636  1  0.10374700  0.67374300  0.69127000  1
  H  637  1  0.10702900  0.71492800  0.69150000  1
  H  666  1  0.69531800  0.25804900  0.79746600  1
  H  667  1  0.69510600  0.28340200  0.74824000  1
  H  668  1  0.69702400  0.28299400  0.63489700  1
  H  669  1  0.69679400  0.25736300  0.58587200  1
  H  670  1  0.69030600  0.17042400  0.63050900  1
  H  671  1  0.69140000  0.17078500  0.75317800  1
  H  672  1  0.75307300  0.20894000  0.68922800  1
  H  673  1  0.79633200  0.12118700  0.69389300  1
  H  674  1  0.74680600  0.09653740  0.69642800  1
  H  675  1  0.63026000  0.21065000  0.68857400  1
  H  676  1  0.63348700  0.09826940  0.69800400  1
  H  677  1  0.58472700  0.12420900  0.69522900  1
  H  680  1  0.67402000  0.27573300  0.69135800  1
  H  681  1  0.71530000  0.27406600  0.69175800  1
  H  683  1  0.69003600  0.10401700  0.67656000  1
  H  684  1  0.69042500  0.10757600  0.71772100  1
  H  713  1  0.79740800  0.69526000  0.25807400  1
  H  714  1  0.74816800  0.69505500  0.28340600  1
  H  715  1  0.63482800  0.69700600  0.28295200  1
  H  716  1  0.58581100  0.69679800  0.25730200  1
  H  717  1  0.63048400  0.69039000  0.17037300  1
  H  718  1  0.75315400  0.69145600  0.17079000  1
  H  719  1  0.68908400  0.75309600  0.20901400  1
  H  720  1  0.69387700  0.79651600  0.12135000  1
  H  721  1  0.69656300  0.74703900  0.09661640  1
  H  722  1  0.68836200  0.63030700  0.21050700  1
  H  723  1  0.69819700  0.63370500  0.09816740  1
  H  724  1  0.69525000  0.58490800  0.12401300  1
  H  727  1  0.69128600  0.67400600  0.27569700  1
  H  728  1  0.69169600  0.71528600  0.27406000  1
  H  730  1  0.67676400  0.69024500  0.10392800  1
  H  731  1  0.71791200  0.69064100  0.10763900  1
  H  760  1  0.75585000  0.29557500  0.18778600  1
  H  761  1  0.78140600  0.24644700  0.18667300  1
  H  762  1  0.78138700  0.13276100  0.18940800  1
  H  763  1  0.75570600  0.08372740  0.19231400  1
  H  764  1  0.66870800  0.12856900  0.19286200  1
  H  765  1  0.66878900  0.25095600  0.19094500  1
  H  766  1  0.70877800  0.18932900  0.25120500  1
  H  767  1  0.62204000  0.19052600  0.29657400  1
  H  768  1  0.59600500  0.19137300  0.24764900  1
  H  769  1  0.70780000  0.18788400  0.12873200  1
  H  770  1  0.59512500  0.18847700  0.13409300  1
  H  771  1  0.62032000  0.18633800  0.08484640  1
  H  774  1  0.77220300  0.18931100  0.16681100  1
  H  775  1  0.77402800  0.18991500  0.20807200  1
  H  777  1  0.60340600  0.17012600  0.19111000  1
  H  778  1  0.60431400  0.21142100  0.19043200  1
  H  807  1  0.18753000  0.75574300  0.29498700  1
  H  808  1  0.18670100  0.78128200  0.24583900  1
  H  809  1  0.18964800  0.78116600  0.13213800  1
  H  810  1  0.19264400  0.75544000  0.08313140  1
  H  811  1  0.19294600  0.66848200  0.12805200  1
  H  812  1  0.19061200  0.66865400  0.25041700  1
  H  813  1  0.25117700  0.70857500  0.18892900  1
  H  814  1  0.29648800  0.62181000  0.19027600  1
  H  815  1  0.24754600  0.59580500  0.19101400  1
  H  816  1  0.12871100  0.70768600  0.18731100  1
  H  817  1  0.13398400  0.59500400  0.18797000  1
  H  818  1  0.08475140  0.62024100  0.18585600  1
  H  821  1  0.16695300  0.77209600  0.18865900  1
  H  822  1  0.20821800  0.77381000  0.18934300  1
  H  824  1  0.19104600  0.60324300  0.16962800  1
  H  825  1  0.19029400  0.60415100  0.21092100  1
  H  854  1  0.29544300  0.18932900  0.75764500  1
  H  855  1  0.24626300  0.18810500  0.78310700  1
  H  856  1  0.13251200  0.18957100  0.78277200  1
  H  857  1  0.08353140  0.19197600  0.75694200  1
  H  858  1  0.12862200  0.19258600  0.67006900  1
  H  859  1  0.25098900  0.19183400  0.67048800  1
  H  860  1  0.18748300  0.25165300  0.71013700  1
  H  861  1  0.18771100  0.29684300  0.62331600  1
  H  862  1  0.19030300  0.24790300  0.59743000  1
  H  863  1  0.18876800  0.12930900  0.70959000  1
  H  864  1  0.19214400  0.13414400  0.59696700  1
  H  865  1  0.19114400  0.08493540  0.62239200  1
  H  868  1  0.18938300  0.16763100  0.77386800  1
  H  869  1  0.18945700  0.20890400  0.77548800  1
  H  871  1  0.17120700  0.19088000  0.60469300  1
  H  872  1  0.21248200  0.19109300  0.60621500  1
  H  883  1  0.21250800  0.71756300  0.46839000  1
  H  884  1  0.20288200  0.71365500  0.52284900  1
  H  891  1  0.14958500  0.67755800  0.41203600  1
  H  892  1  0.15560500  0.68866000  0.35784700  1
  H  893  1  0.25304500  0.69379100  0.36998000  1
  H  894  1  0.16354300  0.62489400  0.50960300  1
  H  895  1  0.24691500  0.68252100  0.42410400  1
  H  897  1  0.16235600  0.60269300  0.45949300  1
  H  898  1  0.17619500  0.62053700  0.42832700  1
  H  901  1  0.22558500  0.71810100  0.32456600  1
  H  902  1  0.15595000  0.65162100  0.55754800  1
  H  909  1  0.16789200  0.71864300  0.91463800  1
  H  910  1  0.17223100  0.72055000  0.85959500  1
  H  917  1  0.24095900  0.69323200  0.96625900  1
  H  918  1  0.23199500  0.70060700  0.02068540  1
  H  919  1  0.13689100  0.67933400  0.00779344  1
  H  920  1  0.23555400  0.64581100  0.86137300  1
  H  921  1  0.14601400  0.67165900  0.95350400  1
  H  923  1  0.24856600  0.62242000  0.90961900  1
  H  924  1  0.23331400  0.63365200  0.94315200  1
  H  927  1  0.15822200  0.71333300  0.05221640  1
  H  928  1  0.22475400  0.67688100  0.81143800  1
  H  935  1  0.46879500  0.21519100  0.71923700  1
  H  936  1  0.52332400  0.20597700  0.71533100  1
  H  943  1  0.41285200  0.15182900  0.67931100  1
  H  944  1  0.35862600  0.15749500  0.69049900  1
  H  945  1  0.37011900  0.25502700  0.69548300  1
  H  946  1  0.51036900  0.16653200  0.62657700  1
  H  947  1  0.42426500  0.24924400  0.68413500  1
  H  949  1  0.46024300  0.16484000  0.60442500  1
  H  950  1  0.42896700  0.17839500  0.62229200  1
  H  953  1  0.32493700  0.22733200  0.71991700  1
  H  954  1  0.55830300  0.15921300  0.65329700  1
  H  961  1  0.91546900  0.16593400  0.71999800  1
  H  962  1  0.86040700  0.16991900  0.72206300  1
  H  969  1  0.96648900  0.23951100  0.69479400  1
  H  970  1  0.02098340  0.23089400  0.70217300  1
  H  971  1  0.00874344  0.13576400  0.68062400  1
  H  972  1  0.86161100  0.23360400  0.64761200  1
  H  973  1  0.95440500  0.14453800  0.67293300  1
  H  975  1  0.90972600  0.24710300  0.62422200  1
  H  976  1  0.94338300  0.23201400  0.63530000  1
  H  979  1  0.05292940  0.15733000  0.71480900  1
  H  980  1  0.81193400  0.22250200  0.67883400  1
  H  987  1  0.71845200  0.46862100  0.21460700  1
  H  988  1  0.71487000  0.52318900  0.20550700  1
  H  995  1  0.67818000  0.41312400  0.15117300  1
  H  996  1  0.68901600  0.35882000  0.15666700  1
  H  997  1  0.69405100  0.36995400  0.25422500  1
  H  998  1  0.62598200  0.51086300  0.16616900  1
  H  999  1  0.68306400  0.42419000  0.24862300  1
  H  1001  1  0.60350100  0.46089200  0.16446300  1
  H  1002  1  0.62119100  0.42947700  0.17793900  1
  H  1005  1  0.71826600  0.32476200  0.22633800  1
  H  1006  1  0.65306400  0.55858700  0.15880100  1
  H  1013  1  0.71932100  0.91564800  0.16618500  1
  H  1014  1  0.72162300  0.86059100  0.17010100  1
  H  1021  1  0.69420000  0.96648500  0.23984100  1
  H  1022  1  0.70130700  0.02099940  0.23123500  1
  H  1023  1  0.67933700  0.00875544  0.13620000  1
  H  1024  1  0.64736100  0.86141300  0.23401600  1
  H  1025  1  0.67192700  0.95437000  0.14497100  1
  H  1027  1  0.62375600  0.90940900  0.24756700  1
  H  1028  1  0.63465800  0.94312400  0.23247800  1
  H  1031  1  0.71340300  0.05309240  0.15760900  1
  H  1032  1  0.67875500  0.81187800  0.22273100  1
  H  1039  1  0.73079300  0.20996200  0.91483600  1
  H  1040  1  0.73180500  0.20573400  0.85960400  1
  H  1047  1  0.69809300  0.14007600  0.96970900  1
  H  1048  1  0.69139300  0.14974600  0.02416140  1
  H  1049  1  0.67613400  0.24501200  0.00500944  1
  H  1050  1  0.65362800  0.14682400  0.86206000  1
  H  1051  1  0.68215100  0.23510700  0.95083400  1
  H  1053  1  0.62947100  0.13567600  0.91010500  1
  H  1054  1  0.64159000  0.15012700  0.94362000  1
  H  1057  1  0.65964800  0.22190300  0.05416040  1
  H  1058  1  0.68637900  0.15567900  0.81185700  1
  H  1065  1  0.72812200  0.16795400  0.47030100  1
  H  1066  1  0.72237500  0.17758000  0.52475800  1
  H  1073  1  0.69167200  0.22796900  0.41320000  1
  H  1074  1  0.68937500  0.22137100  0.35811200  1
  H  1075  1  0.68159500  0.12407100  0.37040800  1
  H  1076  1  0.63177800  0.21166500  0.50927300  1
  H  1077  1  0.68362000  0.13089900  0.42545900  1
  H  1079  1  0.61093400  0.21199900  0.45863200  1
  H  1080  1  0.63043900  0.19969400  0.42782900  1
  H  1083  1  0.66400800  0.14967800  0.32250700  1
  H  1084  1  0.65721500  0.22145200  0.55745800  1
  H  1091  1  0.21228300  0.46532000  0.66060900  1
  H  1092  1  0.20785300  0.52036300  0.65891400  1
  H  1099  1  0.13930500  0.41349300  0.68595700  1
  H  1100  1  0.14832800  0.35909400  0.67838500  1
  H  1101  1  0.24345200  0.37204300  0.69945700  1
  H  1102  1  0.14462700  0.51820200  0.73372300  1
  H  1103  1  0.23428800  0.42629300  0.70733700  1
  H  1105  1  0.13169500  0.46984700  0.75693000  1
  H  1106  1  0.14698700  0.43637900  0.74556100  1
  H  1109  1  0.22205300  0.32777900  0.66525500  1
  H  1110  1  0.15526700  0.56826400  0.70277600  1
  H  1117  1  0.16681400  0.91124400  0.66154000  1
  H  1118  1  0.17649500  0.85682000  0.66577000  1
  H  1125  1  0.22972200  0.96796500  0.70123800  1
  H  1126  1  0.22361100  0.02207040  0.68978700  1
  H  1127  1  0.12619400  0.00971444  0.68462800  1
  H  1128  1  0.21595100  0.87064500  0.75438800  1
  H  1129  1  0.13241900  0.95567400  0.69625400  1
  H  1131  1  0.21702500  0.92087400  0.77632400  1
  H  1132  1  0.20312300  0.95191200  0.75830400  1
  H  1135  1  0.15355200  0.05511040  0.66016000  1
  H  1136  1  0.22353100  0.82253000  0.72797600  1
  H  1143  1  0.47030100  0.72798500  0.16767500  1
  H  1144  1  0.52476700  0.72226300  0.17730300  1
  H  1151  1  0.41315100  0.69175100  0.22780800  1
  H  1152  1  0.35805700  0.68939600  0.22115900  1
  H  1153  1  0.37046900  0.68123600  0.12390400  1
  H  1154  1  0.50926100  0.63180100  0.21175400  1
  H  1155  1  0.42552400  0.68332200  0.13079200  1
  H  1157  1  0.45861800  0.61096900  0.21217500  1
  H  1158  1  0.42781700  0.63043200  0.19980500  1
  H  1161  1  0.32253700  0.66375200  0.14947800  1
  H  1162  1  0.55750000  0.65714300  0.22129200  1
  H  1169  1  0.91482600  0.73075100  0.20995600  1
  H  1170  1  0.85958800  0.73175600  0.20581000  1
  H  1177  1  0.96960200  0.69820700  0.13987800  1
  H  1178  1  0.02406040  0.69144400  0.14942700  1
  H  1179  1  0.00509044  0.67604300  0.24470600  1
  H  1180  1  0.86199000  0.65372300  0.14670300  1
  H  1181  1  0.95090600  0.68211600  0.23492300  1
  H  1183  1  0.91001700  0.62958700  0.13546200  1
  H  1184  1  0.94355300  0.64169000  0.14988300  1
  H  1187  1  0.05419340  0.65962700  0.22150600  1
  H  1188  1  0.81177800  0.68661800  0.15565600  1
  C  1  1  0.98460800  0.50336300  0.47443100  1
  C  2  1  0.95162800  0.50559700  0.47552800  1
  C  3  1  0.95218700  0.50526200  0.53413500  1
  C  4  1  0.98521300  0.50328600  0.53461200  1
  C  5  1  0.00011600  0.50197700  0.56433200  1
  C  6  1  0.98282200  0.50252400  0.59243000  1
  C  7  1  0.95022200  0.50477300  0.59091200  1
  C  8  1  0.93506800  0.50606300  0.56216500  1
  C  9  1  0.93402300  0.50690800  0.44782600  1
  C  10  1  0.94861900  0.50530600  0.41880400  1
  C  11  1  0.98118300  0.50181200  0.41655300  1
  C  12  1  0.99887800  0.50185900  0.44439000  1
  C  13  1  0.02265000  0.53298500  0.50399300  1
  C  14  1  0.05563200  0.53194900  0.50178200  1
  C  15  1  0.05518400  0.47334000  0.50210100  1
  C  16  1  0.02215600  0.47279500  0.50405900  1
  C  17  1  0.07235800  0.44534400  0.50127400  1
  C  18  1  0.05725800  0.41656500  0.50251100  1
  C  19  1  0.02465900  0.41498200  0.50472900  1
  C  20  1  0.00731100  0.44304700  0.50532700  1
  C  21  1  0.00832400  0.56300300  0.50545300  1
  C  22  1  0.02596400  0.59087500  0.50550900  1
  C  23  1  0.05853700  0.58868000  0.50203600  1
  C  24  1  0.07318700  0.55968400  0.50047600  1
  C  37  1  0.00365700  0.50304100  0.50433600  1
  C  38  1  0.07328200  0.50250400  0.50047800  1
  C  41  1  0.93403400  0.50692200  0.50500800  1
  C  48  1  0.47481800  0.98574800  0.50582100  1
  C  49  1  0.47516700  0.95275100  0.50821400  1
  C  50  1  0.53376700  0.95184000  0.50778100  1
  C  51  1  0.53500100  0.98482900  0.50569300  1
  C  52  1  0.56506800  0.99901500  0.50429100  1
  C  53  1  0.59276500  0.98110900  0.50475500  1
  C  54  1  0.59050300  0.94856000  0.50710100  1
  C  55  1  0.56140600  0.93408100  0.50855400  1
  C  56  1  0.44708100  0.93578700  0.50961100  1
  C  57  1  0.41841300  0.95102300  0.50786700  1
  C  58  1  0.41688800  0.98360700  0.50411700  1
  C  59  1  0.44512100  0.00070500  0.50416800  1
  C  60  1  0.50569500  0.02288400  0.53555300  1
  C  61  1  0.50689200  0.05593000  0.53471700  1
  C  62  1  0.50739200  0.05572700  0.47612200  1
  C  63  1  0.50572800  0.02269200  0.47540700  1
  C  64  1  0.50915000  0.07297700  0.44823100  1
  C  65  1  0.50893500  0.05792600  0.41941600  1
  C  66  1  0.50613000  0.02526300  0.41755900  1
  C  67  1  0.50529500  0.00794100  0.44560100  1
  C  68  1  0.50567200  0.00829400  0.56546400  1
  C  69  1  0.50696100  0.02582300  0.59338900  1
  C  70  1  0.50803000  0.05846100  0.59149000  1
  C  71  1  0.50786000  0.07335400  0.56256300  1
  C  84  1  0.50520600  0.00404000  0.50553900  1
  C  85  1  0.50782000  0.07375500  0.50536900  1
  C  88  1  0.50421200  0.93443500  0.50962500  1
  C  95  1  0.50579700  0.47492300  0.98566900  1
  C  96  1  0.50829800  0.47532300  0.95268100  1
  C  97  1  0.50784600  0.53392300  0.95186600  1
  C  98  1  0.50567900  0.53509900  0.98485200  1
  C  99  1  0.50421000  0.56513500  0.99909000  1
  C  100  1  0.50466600  0.59286100  0.98123200  1
  C  101  1  0.50708900  0.59066300  0.94868400  1
  C  102  1  0.50863100  0.56159200  0.93415800  1
  C  103  1  0.50972700  0.44726300  0.93567500  1
  C  104  1  0.50789700  0.41857400  0.95085800  1
  C  105  1  0.50401200  0.41700500  0.98342300  1
  C  106  1  0.50406100  0.44520500  0.00057000  1
  C  107  1  0.53551300  0.50573000  0.02287400  1
  C  108  1  0.53466300  0.50689600  0.05592000  1
  C  109  1  0.47606800  0.50740800  0.05569300  1
  C  110  1  0.47536500  0.50577700  0.02265600  1
  C  111  1  0.44817100  0.50915700  0.07293400  1
  C  112  1  0.41936300  0.50896600  0.05787000  1
  C  113  1  0.41751900  0.50618400  0.02520600  1
  C  114  1  0.44556600  0.50535800  0.00789100  1
  C  115  1  0.56542900  0.50569700  0.00829800  1
  C  116  1  0.59335000  0.50696800  0.02583800  1
  C  117  1  0.59143600  0.50800700  0.05847600  1
  C  118  1  0.56250300  0.50783700  0.07335700  1
  C  131  1  0.50550700  0.50527400  0.00401500  1
  C  132  1  0.50530600  0.50781800  0.07373300  1
  C  135  1  0.50976900  0.50439800  0.93441600  1
  C  142  1  0.48332900  0.00301400  0.97398100  1
  C  143  1  0.45027000  0.00331000  0.97498400  1
  C  144  1  0.45070800  0.00419600  0.03361600  1
  C  145  1  0.48377800  0.00376400  0.03411100  1
  C  146  1  0.49876300  0.00339400  0.06379200  1
  C  147  1  0.48161300  0.00258100  0.09190100  1
  C  148  1  0.44886700  0.00391000  0.09040100  1
  C  149  1  0.43361000  0.00455200  0.06167200  1
  C  150  1  0.43273000  0.00242100  0.94721900  1
  C  151  1  0.44752300  0.00130300  0.91826700  1
  C  152  1  0.48027700  0.00176200  0.91612600  1
  C  153  1  0.49781000  0.00203000  0.94404200  1
  C  154  1  0.52101000  0.03352100  0.00341500  1
  C  155  1  0.55405700  0.03274900  0.00233700  1
  C  156  1  0.55404800  0.97407600  0.00312600  1
  C  157  1  0.52100100  0.97338500  0.00415100  1
  C  158  1  0.57132100  0.94612300  0.00357500  1
  C  159  1  0.55626200  0.91730800  0.00513400  1
  C  160  1  0.52349600  0.91557200  0.00566500  1
  C  161  1  0.50623500  0.94362800  0.00562600  1
  C  162  1  0.50632100  0.06336800  0.00400300  1
  C  163  1  0.52366200  0.09141100  0.00439600  1
  C  164  1  0.55637100  0.08955000  0.00238800  1
  C  165  1  0.57136000  0.06067400  0.00156400  1
  C  178  1  0.50228200  0.00345400  0.00390900  1
  C  179  1  0.57197200  0.00339600  0.00186700  1
  C  182  1  0.43255000  0.00421700  0.00443000  1
  C  189  1  0.97393000  0.48318700  0.00243700  1
  C  190  1  0.97490700  0.45012800  0.00276100  1
  C  191  1  0.03354000  0.45052400  0.00375500  1
  C  192  1  0.03405800  0.48359400  0.00331200  1
  C  193  1  0.06374900  0.49856000  0.00300500  1
  C  194  1  0.09184900  0.48139400  0.00226900  1
  C  195  1  0.09032500  0.44865000  0.00361300  1
  C  196  1  0.06158500  0.43340900  0.00418700  1
  C  197  1  0.94712900  0.43260900  0.00187400  1
  C  198  1  0.91818600  0.44742600  0.00078200  1
  C  199  1  0.91607500  0.48018400  0.00123100  1
  C  200  1  0.94400500  0.49769400  0.00145000  1
  C  201  1  0.00332600  0.52086800  0.03296300  1
  C  202  1  0.00233200  0.55391500  0.03216800  1
  C  203  1  0.00323300  0.55385400  0.97349200  1
  C  204  1  0.00419500  0.52080500  0.97282600  1
  C  205  1  0.00378100  0.57110000  0.94552000  1
  C  206  1  0.00537500  0.55601000  0.91671900  1
  C  207  1  0.00587200  0.52324500  0.91500600  1
  C  208  1  0.00572900  0.50601400  0.94308500  1
  C  209  1  0.00375600  0.50618900  0.06281500  1
  C  210  1  0.00405200  0.52353800  0.09085000  1
  C  211  1  0.00218800  0.55625500  0.08897100  1
  C  212  1  0.00152700  0.57123500  0.06008300  1
  C  225  1  0.00387000  0.50211500  0.00291400  1
  C  226  1  0.00197100  0.57180700  0.00279600  1
  C  229  1  0.00434000  0.43238700  0.00371800  1
  C  236  1  0.00357300  0.97439100  0.48498800  1
  C  237  1  0.00444500  0.97526600  0.45194200  1
  C  238  1  0.00423300  0.03395700  0.45219100  1
  C  239  1  0.00344500  0.03453300  0.48524700  1
  C  240  1  0.00218800  0.06423500  0.50013800  1
  C  241  1  0.00211100  0.09236900  0.48299600  1
  C  242  1  0.00249800  0.09075100  0.45022100  1
  C  243  1  0.00385300  0.06198800  0.43503700  1
  C  244  1  0.00493300  0.94738500  0.43455200  1
  C  245  1  0.00417000  0.91846100  0.44946700  1
  C  246  1  0.00248800  0.91651000  0.48219000  1
  C  247  1  0.00301200  0.94450500  0.49959400  1
  C  248  1  0.03347900  0.00435400  0.52265100  1
  C  249  1  0.03263800  0.00338400  0.55569800  1
  C  250  1  0.97395100  0.00339600  0.55551700  1
  C  251  1  0.97333600  0.00425200  0.52246300  1
  C  252  1  0.94593900  0.00362400  0.57270300  1
  C  253  1  0.91715500  0.00487800  0.55755400  1
  C  254  1  0.91550200  0.00530600  0.52478400  1
  C  255  1  0.94361400  0.00539600  0.50760400  1
  C  256  1  0.06335200  0.00505600  0.50802300  1
  C  257  1  0.09136100  0.00559900  0.52540500  1
  C  258  1  0.08944200  0.00381300  0.55812400  1
  C  259  1  0.06053500  0.00292400  0.57306200  1
  C  272  1  0.00346400  0.00438300  0.50383700  1
  C  273  1  0.00323800  0.00261900  0.57353000  1
  C  276  1  0.00506800  0.00469100  0.43414300  1
  C  283  1  0.99640100  0.48233200  0.33551000  1
  C  284  1  0.98818800  0.45806400  0.31471700  1
  C  285  1  0.99359600  0.45984000  0.28219600  1
  C  286  1  0.00765100  0.48720500  0.26975600  1
  C  287  1  0.01668400  0.51117300  0.29053000  1
  C  288  1  0.01110400  0.50885400  0.32275800  1
  C  291  1  0.01146900  0.49217900  0.23705900  1
  C  292  1  0.98536700  0.49379300  0.21701200  1
  C  293  1  0.98895400  0.50007300  0.18499300  1
  C  294  1  0.01880800  0.50499000  0.17191000  1
  C  295  1  0.04487300  0.50328600  0.19205000  1
  C  296  1  0.04129800  0.49693500  0.22403000  1
  C  305  1  0.02259500  0.51615400  0.14169800  1
  C  306  1  0.98629300  0.48091500  0.36642400  1
  C  309  1  0.01819800  0.49699100  0.66887600  1
  C  310  1  0.03539800  0.47520400  0.68659100  1
  C  311  1  0.03289200  0.47337500  0.71954700  1
  C  312  1  0.01267500  0.49444200  0.73540500  1
  C  313  1  0.99606800  0.51671100  0.71769400  1
  C  314  1  0.99875400  0.51797900  0.68514300  1
  C  317  1  0.00832400  0.49468900  0.76841900  1
  C  318  1  0.03300400  0.50255000  0.78875300  1
  C  319  1  0.02771700  0.50673800  0.82088700  1
  C  320  1  0.99754400  0.50322100  0.83370700  1
  C  321  1  0.97301000  0.49478700  0.81341900  1
  C  322  1  0.97833200  0.49047300  0.78136400  1
  C  331  1  0.99070000  0.51355900  0.86359000  1
  C  332  1  0.01922100  0.49672600  0.63640400  1
  C  335  1  0.33614500  0.99946000  0.48402500  1
  C  336  1  0.31540800  0.99112600  0.45974200  1
  C  337  1  0.28283700  0.99625000  0.46153500  1
  C  338  1  0.27028700  0.01019800  0.48890200  1
  C  339  1  0.29100100  0.01940500  0.51285800  1
  C  340  1  0.32327200  0.01406300  0.51054400  1
  C  343  1  0.23755400  0.01378700  0.49387900  1
  C  344  1  0.21768600  0.98755000  0.49556600  1
  C  345  1  0.18565500  0.99092600  0.50192400  1
  C  346  1  0.17238800  0.02069900  0.50682900  1
  C  347  1  0.19233400  0.04690400  0.50501500  1
  C  348  1  0.22432400  0.04353400  0.49860200  1
  C  357  1  0.14216000  0.02431000  0.51802100  1
  C  358  1  0.36712500  0.98948900  0.48264900  1
  C  361  1  0.66940200  0.01602600  0.49866200  1
  C  362  1  0.68695200  0.03343100  0.47690100  1
  C  363  1  0.71991500  0.03114000  0.47497600  1
  C  364  1  0.73594200  0.01092600  0.49591300  1
  C  365  1  0.71839500  0.99410100  0.51814900  1
  C  366  1  0.68583200  0.99657800  0.51951100  1
  C  369  1  0.76898400  0.00683100  0.49610600  1
  C  370  1  0.78913200  0.03162200  0.50408200  1
  C  371  1  0.82131100  0.02656500  0.50820700  1
  C  372  1  0.83431900  0.99648500  0.50462400  1
  C  373  1  0.81422700  0.97183200  0.49606500  1
  C  374  1  0.78213700  0.97694700  0.49176300  1
  C  383  1  0.86421800  0.98976400  0.51499000  1
  C  384  1  0.63693700  0.01694600  0.49854100  1
  C  387  1  0.48350300  0.33634300  0.99911300  1
  C  388  1  0.45910200  0.31576500  0.99072800  1
  C  389  1  0.46069900  0.28317400  0.99578600  1
  C  390  1  0.48800500  0.27043100  0.00968100  1
  C  391  1  0.51209900  0.29097700  0.01890100  1
  C  392  1  0.50996700  0.32327400  0.01364400  1
  C  395  1  0.49279200  0.23766200  0.01316600  1
  C  396  1  0.49433300  0.21786700  0.98686800  1
  C  397  1  0.50045500  0.18578000  0.99014300  1
  C  398  1  0.50526400  0.17237200  0.01987100  1
  C  399  1  0.50361400  0.19226100  0.04613300  1
  C  400  1  0.49743100  0.22430800  0.04286900  1
  C  409  1  0.51633400  0.14208800  0.02337600  1
  C  410  1  0.48232300  0.36732500  0.98913500  1
  C  413  1  0.49833200  0.66939700  0.01630800  1
  C  414  1  0.47656100  0.68683500  0.03381200  1
  C  415  1  0.47449700  0.71979100  0.03156700  1
  C  416  1  0.49530300  0.73592400  0.01130300  1
  C  417  1  0.51756500  0.71849200  0.99439200  1
  C  418  1  0.51906200  0.68593400  0.99682000  1
  C  421  1  0.49532400  0.76896100  0.00721600  1
  C  422  1  0.50330000  0.78913000  0.03199400  1
  C  423  1  0.50733200  0.82131500  0.02691800  1
  C  424  1  0.50353900  0.83434000  0.99686900  1
  C  425  1  0.49497500  0.81421800  0.97224400  1
  C  426  1  0.49081800  0.78211100  0.97735600  1
  C  435  1  0.51377500  0.86428400  0.99017100  1
  C  436  1  0.49832000  0.63693500  0.01716100  1
  C  439  1  0.50660500  0.98931900  0.66936500  1
  C  440  1  0.48411100  0.97325900  0.68721200  1
  C  441  1  0.48264700  0.97591800  0.72015900  1
  C  442  1  0.50523900  0.99458000  0.73590000  1
  C  443  1  0.52823600  0.00995300  0.71800800  1
  C  444  1  0.52891600  0.00741300  0.68539700  1
  C  447  1  0.50451900  0.00037500  0.76869300  1
  C  448  1  0.50800000  0.97619200  0.79078000  1
  C  449  1  0.50436600  0.98199600  0.82291900  1
  C  450  1  0.49759200  0.01229100  0.83408600  1
  C  451  1  0.49551100  0.03663700  0.81192500  1
  C  452  1  0.49904000  0.03084000  0.77987200  1
  C  461  1  0.48801000  0.01789700  0.86463000  1
  C  462  1  0.50539700  0.98891000  0.63696500  1
  C  465  1  0.48997200  0.00893500  0.33621800  1
  C  466  1  0.46577200  0.01573200  0.31487500  1
  C  467  1  0.46870000  0.01052000  0.28244800  1
  C  468  1  0.49721500  0.99817700  0.27079900  1
  C  469  1  0.52116400  0.99041800  0.29201300  1
  C  470  1  0.51767900  0.99586300  0.32416800  1
  C  473  1  0.50234800  0.99378000  0.23833700  1
  C  474  1  0.50489900  0.01961700  0.21811000  1
  C  475  1  0.50375400  0.01564600  0.18556400  1
  C  476  1  0.49999600  0.98569500  0.17224000  1
  C  477  1  0.49916100  0.95979000  0.19268400  1
  C  478  1  0.50035700  0.96372200  0.22521800  1
  C  487  1  0.49124400  0.98172600  0.14119600  1
  C  488  1  0.48714400  0.01907000  0.36697400  1
  C  491  1  0.98946100  0.33843100  0.51006200  1
  C  492  1  0.97232100  0.32060700  0.53180700  1
  C  493  1  0.97489100  0.28764600  0.53351800  1
  C  494  1  0.99510000  0.27189600  0.51236200  1
  C  495  1  0.01165000  0.28972000  0.49013800  1
  C  496  1  0.00890600  0.32227100  0.48899200  1
  C  499  1  0.99949000  0.23888600  0.51197100  1
  C  500  1  0.97481400  0.21854800  0.50411200  1
  C  501  1  0.98012900  0.18642900  0.49982200  1
  C  502  1  0.01032100  0.17362700  0.50323000  1
  C  503  1  0.03485400  0.19392900  0.51165400  1
  C  504  1  0.02950300  0.22596300  0.51610100  1
  C  513  1  0.01722700  0.14380800  0.49274500  1
  C  514  1  0.98836300  0.37090100  0.51043200  1
  C  517  1  0.01059800  0.67199300  0.52458100  1
  C  518  1  0.01881800  0.69294100  0.54871500  1
  C  519  1  0.01337000  0.72544600  0.54675200  1
  C  520  1  0.99927800  0.73770900  0.51932500  1
  C  521  1  0.99023400  0.71677900  0.49549700  1
  C  522  1  0.99586500  0.68457500  0.49799400  1
  C  525  1  0.99540000  0.77037600  0.51416900  1
  C  526  1  0.02146400  0.79046400  0.51245100  1
  C  527  1  0.01782300  0.82243300  0.50594400  1
  C  528  1  0.98794600  0.83541300  0.50088800  1
  C  529  1  0.96191800  0.81524700  0.50272200  1
  C  530  1  0.96554900  0.78331700  0.50928700  1
  C  539  1  0.98413300  0.86557800  0.48960000  1
  C  540  1  0.02073800  0.64109500  0.52617600  1
  C  543  1  0.33620400  0.48995200  0.00889400  1
  C  544  1  0.31486600  0.46576500  0.01575900  1
  C  545  1  0.28243600  0.46868400  0.01054500  1
  C  546  1  0.27079200  0.49715400  0.99809800  1
  C  547  1  0.29201100  0.52107100  0.99024100  1
  C  548  1  0.32416100  0.51760900  0.99571400  1
  C  551  1  0.23833200  0.50225200  0.99364500  1
  C  552  1  0.21807600  0.50489700  0.01945300  1
  C  553  1  0.18554000  0.50361400  0.01544900  1
  C  554  1  0.17224400  0.49976800  0.98550200  1
  C  555  1  0.19272400  0.49881600  0.95962900  1
  C  556  1  0.22525100  0.50014500  0.96357500  1
  C  565  1  0.14121500  0.49096600  0.98155100  1
  C  566  1  0.36699000  0.48709800  0.01894500  1
  C  569  1  0.66932000  0.50664500  0.98928400  1
  C  570  1  0.68715000  0.48417100  0.97317800  1
  C  571  1  0.72010300  0.48272100  0.97577100  1
  C  572  1  0.73586500  0.50527800  0.99445700  1
  C  573  1  0.71798300  0.52822700  0.00991900  1
  C  574  1  0.68536900  0.52890900  0.00741700  1
  C  577  1  0.76866800  0.50456100  0.00019500  1
  C  578  1  0.79071300  0.50807000  0.97597600  1
  C  579  1  0.82286600  0.50446400  0.98171600  1
  C  580  1  0.83408200  0.49759900  0.01197300  1
  C  581  1  0.81197400  0.49552200  0.03636800  1
  C  582  1  0.77990700  0.49902300  0.03062700  1
  C  591  1  0.86463000  0.48798000  0.01749900  1
  C  592  1  0.63692500  0.50540400  0.98892600  1
  C  595  1  0.17083900  0.68959400  0.66066200  1
  C  596  1  0.13785900  0.69182800  0.66175900  1
  C  597  1  0.13841800  0.69149300  0.72036600  1
  C  598  1  0.17144400  0.68951700  0.72084300  1
  C  599  1  0.18634700  0.68820800  0.75056300  1
  C  600  1  0.16905300  0.68875500  0.77866100  1
  C  601  1  0.13645300  0.69100400  0.77714300  1
  C  602  1  0.12129900  0.69229400  0.74839600  1
  C  603  1  0.12025400  0.69313900  0.63405700  1
  C  604  1  0.13485000  0.69153700  0.60503500  1
  C  605  1  0.16741400  0.68804300  0.60278400  1
  C  606  1  0.18510900  0.68809000  0.63062100  1
  C  607  1  0.20888100  0.71921600  0.69022400  1
  C  608  1  0.24186300  0.71818000  0.68801300  1
  C  609  1  0.24141500  0.65957100  0.68833200  1
  C  610  1  0.20838700  0.65902600  0.69029000  1
  C  611  1  0.25858900  0.63157500  0.68750500  1
  C  612  1  0.24348900  0.60279600  0.68874200  1
  C  613  1  0.21089000  0.60121300  0.69096000  1
  C  614  1  0.19354200  0.62927800  0.69155800  1
  C  615  1  0.19455500  0.74923400  0.69168400  1
  C  616  1  0.21219500  0.77710600  0.69174000  1
  C  617  1  0.24476800  0.77491100  0.68826700  1
  C  618  1  0.25941800  0.74591500  0.68670700  1
  C  631  1  0.18988800  0.68927200  0.69056700  1
  C  632  1  0.25951300  0.68873500  0.68670900  1
  C  635  1  0.12026500  0.69315300  0.69123900  1
  C  642  1  0.66104900  0.17197900  0.69205200  1
  C  643  1  0.66139800  0.13898200  0.69444500  1
  C  644  1  0.71999800  0.13807100  0.69401200  1
  C  645  1  0.72123200  0.17106000  0.69192400  1
  C  646  1  0.75129900  0.18524600  0.69052200  1
  C  647  1  0.77899600  0.16734000  0.69098600  1
  C  648  1  0.77673400  0.13479100  0.69333200  1
  C  649  1  0.74763700  0.12031200  0.69478500  1
  C  650  1  0.63331200  0.12201800  0.69584200  1
  C  651  1  0.60464400  0.13725400  0.69409800  1
  C  652  1  0.60311900  0.16983800  0.69034800  1
  C  653  1  0.63135200  0.18693600  0.69039900  1
  C  654  1  0.69192600  0.20911500  0.72178400  1
  C  655  1  0.69312300  0.24216100  0.72094800  1
  C  656  1  0.69362300  0.24195800  0.66235300  1
  C  657  1  0.69195900  0.20892300  0.66163800  1
  C  658  1  0.69538100  0.25920800  0.63446200  1
  C  659  1  0.69516600  0.24415700  0.60564700  1
  C  660  1  0.69236100  0.21149400  0.60379000  1
  C  661  1  0.69152600  0.19417200  0.63183200  1
  C  662  1  0.69190300  0.19452500  0.75169500  1
  C  663  1  0.69319200  0.21205400  0.77962000  1
  C  664  1  0.69426100  0.24469200  0.77772100  1
  C  665  1  0.69409100  0.25958500  0.74879400  1
  C  678  1  0.69143700  0.19027100  0.69177000  1
  C  679  1  0.69405100  0.25998600  0.69160000  1
  C  682  1  0.69044300  0.12066600  0.69585600  1
  C  689  1  0.69202800  0.66115400  0.17190000  1
  C  690  1  0.69452900  0.66155400  0.13891200  1
  C  691  1  0.69407700  0.72015400  0.13809700  1
  C  692  1  0.69191000  0.72133000  0.17108300  1
  C  693  1  0.69044100  0.75136600  0.18532100  1
  C  694  1  0.69089700  0.77909200  0.16746300  1
  C  695  1  0.69332000  0.77689400  0.13491500  1
  C  696  1  0.69486200  0.74782300  0.12038900  1
  C  697  1  0.69595800  0.63349400  0.12190600  1
  C  698  1  0.69412800  0.60480500  0.13708900  1
  C  699  1  0.69024300  0.60323600  0.16965400  1
  C  700  1  0.69029200  0.63143600  0.18680100  1
  C  701  1  0.72174400  0.69196100  0.20910500  1
  C  702  1  0.72089400  0.69312700  0.24215100  1
  C  703  1  0.66229900  0.69363900  0.24192400  1
  C  704  1  0.66159600  0.69200800  0.20888700  1
  C  705  1  0.63440200  0.69538800  0.25916500  1
  C  706  1  0.60559400  0.69519700  0.24410100  1
  C  707  1  0.60375000  0.69241500  0.21143700  1
  C  708  1  0.63179700  0.69158900  0.19412200  1
  C  709  1  0.75166000  0.69192800  0.19452900  1
  C  710  1  0.77958100  0.69319900  0.21206900  1
  C  711  1  0.77766700  0.69423800  0.24470700  1
  C  712  1  0.74873400  0.69406800  0.25958800  1
  C  725  1  0.69173800  0.69150500  0.19024600  1
  C  726  1  0.69153700  0.69404900  0.25996400  1
  C  729  1  0.69600000  0.69062900  0.12064700  1
  C  736  1  0.66956000  0.18924500  0.16021200  1
  C  737  1  0.63650100  0.18954100  0.16121500  1
  C  738  1  0.63693900  0.19042700  0.21984700  1
  C  739  1  0.67000900  0.18999500  0.22034200  1
  C  740  1  0.68499400  0.18962500  0.25002300  1
  C  741  1  0.66784400  0.18881200  0.27813200  1
  C  742  1  0.63509800  0.19014100  0.27663200  1
  C  743  1  0.61984100  0.19078300  0.24790300  1
  C  744  1  0.61896100  0.18865200  0.13345000  1
  C  745  1  0.63375400  0.18753400  0.10449800  1
  C  746  1  0.66650800  0.18799300  0.10235700  1
  C  747  1  0.68404100  0.18826100  0.13027300  1
  C  748  1  0.70724100  0.21975200  0.18964600  1
  C  749  1  0.74028800  0.21898000  0.18856800  1
  C  750  1  0.74027900  0.16030700  0.18935700  1
  C  751  1  0.70723200  0.15961600  0.19038200  1
  C  752  1  0.75755200  0.13235400  0.18980600  1
  C  753  1  0.74249300  0.10353900  0.19136500  1
  C  754  1  0.70972700  0.10180300  0.19189600  1
  C  755  1  0.69246600  0.12985900  0.19185700  1
  C  756  1  0.69255200  0.24959900  0.19023400  1
  C  757  1  0.70989300  0.27764200  0.19062700  1
  C  758  1  0.74260200  0.27578100  0.18861900  1
  C  759  1  0.75759100  0.24690500  0.18779500  1
  C  772  1  0.68851300  0.18968500  0.19014000  1
  C  773  1  0.75820300  0.18962700  0.18809800  1
  C  776  1  0.61878100  0.19044800  0.19066100  1
  C  783  1  0.16016100  0.66941800  0.18866800  1
  C  784  1  0.16113800  0.63635900  0.18899200  1
  C  785  1  0.21977100  0.63675500  0.18998600  1
  C  786  1  0.22028900  0.66982500  0.18954300  1
  C  787  1  0.24998000  0.68479100  0.18923600  1
  C  788  1  0.27808000  0.66762500  0.18850000  1
  C  789  1  0.27655600  0.63488100  0.18984400  1
  C  790  1  0.24781600  0.61964000  0.19041800  1
  C  791  1  0.13336000  0.61884000  0.18810500  1
  C  792  1  0.10441700  0.63365700  0.18701300  1
  C  793  1  0.10230600  0.66641500  0.18746200  1
  C  794  1  0.13023600  0.68392500  0.18768100  1
  C  795  1  0.18955700  0.70709900  0.21919400  1
  C  796  1  0.18856300  0.74014600  0.21839900  1
  C  797  1  0.18946400  0.74008500  0.15972300  1
  C  798  1  0.19042600  0.70703600  0.15905700  1
  C  799  1  0.19001200  0.75733100  0.13175100  1
  C  800  1  0.19160600  0.74224100  0.10295000  1
  C  801  1  0.19210300  0.70947600  0.10123700  1
  C  802  1  0.19196000  0.69224500  0.12931600  1
  C  803  1  0.18998700  0.69242000  0.24904600  1
  C  804  1  0.19028300  0.70976900  0.27708100  1
  C  805  1  0.18841900  0.74248600  0.27520200  1
  C  806  1  0.18775800  0.75746600  0.24631400  1
  C  819  1  0.19010100  0.68834600  0.18914500  1
  C  820  1  0.18820200  0.75803800  0.18902700  1
  C  823  1  0.19057100  0.61861800  0.18994900  1
  C  830  1  0.18980400  0.16062200  0.67121900  1
  C  831  1  0.19067600  0.16149700  0.63817300  1
  C  832  1  0.19046400  0.22018800  0.63842200  1
  C  833  1  0.18967600  0.22076400  0.67147800  1
  C  834  1  0.18841900  0.25046600  0.68636900  1
  C  835  1  0.18834200  0.27860000  0.66922700  1
  C  836  1  0.18872900  0.27698200  0.63645200  1
  C  837  1  0.19008400  0.24821900  0.62126800  1
  C  838  1  0.19116400  0.13361600  0.62078300  1
  C  839  1  0.19040100  0.10469200  0.63569800  1
  C  840  1  0.18871900  0.10274100  0.66842100  1
  C  841  1  0.18924300  0.13073600  0.68582500  1
  C  842  1  0.21971000  0.19058500  0.70888200  1
  C  843  1  0.21886900  0.18961500  0.74192900  1
  C  844  1  0.16018200  0.18962700  0.74174800  1
  C  845  1  0.15956700  0.19048300  0.70869400  1
  C  846  1  0.13217000  0.18985500  0.75893400  1
  C  847  1  0.10338600  0.19110900  0.74378500  1
  C  848  1  0.10173300  0.19153700  0.71101500  1
  C  849  1  0.12984500  0.19162700  0.69383500  1
  C  850  1  0.24958300  0.19128700  0.69425400  1
  C  851  1  0.27759200  0.19183000  0.71163600  1
  C  852  1  0.27567300  0.19004400  0.74435500  1
  C  853  1  0.24676600  0.18915500  0.75929300  1
  C  866  1  0.18969500  0.19061400  0.69006800  1
  C  867  1  0.18946900  0.18885000  0.75976100  1
  C  870  1  0.19129900  0.19092200  0.62037400  1
  C  877  1  0.18263200  0.66856300  0.52174100  1
  C  878  1  0.17441900  0.64429500  0.50094800  1
  C  879  1  0.17982700  0.64607100  0.46842700  1
  C  880  1  0.19388200  0.67343600  0.45598700  1
  C  881  1  0.20291500  0.69740400  0.47676100  1
  C  882  1  0.19733500  0.69508500  0.50898900  1
  C  885  1  0.19770000  0.67841000  0.42329000  1
  C  886  1  0.17159800  0.68002400  0.40324300  1
  C  887  1  0.17518500  0.68630400  0.37122400  1
  C  888  1  0.20503900  0.69122100  0.35814100  1
  C  889  1  0.23110400  0.68951700  0.37828100  1
  C  890  1  0.22752900  0.68316600  0.41026100  1
  C  899  1  0.20882600  0.70238500  0.32792900  1
  C  900  1  0.17252400  0.66714600  0.55265500  1
  C  903  1  0.20442900  0.68322200  0.85510700  1
  C  904  1  0.22162900  0.66143500  0.87282200  1
  C  905  1  0.21912300  0.65960600  0.90577800  1
  C  906  1  0.19890600  0.68067300  0.92163600  1
  C  907  1  0.18229900  0.70294200  0.90392500  1
  C  908  1  0.18498500  0.70421000  0.87137400  1
  C  911  1  0.19455500  0.68092000  0.95465000  1
  C  912  1  0.21923500  0.68878100  0.97498400  1
  C  913  1  0.21394800  0.69296900  0.00711844  1
  C  914  1  0.18377500  0.68945200  0.01993840  1
  C  915  1  0.15924100  0.68101800  0.99965000  1
  C  916  1  0.16456300  0.67670400  0.96759500  1
  C  925  1  0.17693100  0.69979000  0.04982140  1
  C  926  1  0.20545200  0.68295700  0.82263500  1
  C  929  1  0.52237600  0.18569100  0.67025600  1
  C  930  1  0.50163900  0.17735700  0.64597300  1
  C  931  1  0.46906800  0.18248100  0.64776600  1
  C  932  1  0.45651800  0.19642900  0.67513300  1
  C  933  1  0.47723200  0.20563600  0.69908900  1
  C  934  1  0.50950300  0.20029400  0.69677500  1
  C  937  1  0.42378500  0.20001800  0.68011000  1
  C  938  1  0.40391700  0.17378100  0.68179700  1
  C  939  1  0.37188600  0.17715700  0.68815500  1
  C  940  1  0.35861900  0.20693000  0.69306000  1
  C  941  1  0.37856500  0.23313500  0.69124600  1
  C  942  1  0.41055500  0.22976500  0.68483300  1
  C  951  1  0.32839100  0.21054100  0.70425200  1
  C  952  1  0.55335600  0.17572000  0.66888000  1
  C  955  1  0.85563300  0.20225700  0.68489300  1
  C  956  1  0.87318300  0.21966200  0.66313200  1
  C  957  1  0.90614600  0.21737100  0.66120700  1
  C  958  1  0.92217300  0.19715700  0.68214400  1
  C  959  1  0.90462600  0.18033200  0.70438000  1
  C  960  1  0.87206300  0.18280900  0.70574200  1
  C  963  1  0.95521500  0.19306200  0.68233700  1
  C  964  1  0.97536300  0.21785300  0.69031300  1
  C  965  1  0.00754244  0.21279600  0.69443800  1
  C  966  1  0.02055040  0.18271600  0.69085500  1
  C  967  1  0.00045844  0.15806300  0.68229600  1
  C  968  1  0.96836800  0.16317800  0.67799400  1
  C  977  1  0.05044940  0.17599500  0.70122100  1
  C  978  1  0.82316800  0.20317700  0.68477200  1
  C  981  1  0.66973400  0.52257400  0.18534400  1
  C  982  1  0.64533300  0.50199600  0.17695900  1
  C  983  1  0.64693000  0.46940500  0.18201700  1
  C  984  1  0.67423600  0.45666200  0.19591200  1
  C  985  1  0.69833000  0.47720800  0.20513200  1
  C  986  1  0.69619800  0.50950500  0.19987500  1
  C  989  1  0.67902300  0.42389300  0.19939700  1
  C  990  1  0.68056400  0.40409800  0.17309900  1
  C  991  1  0.68668600  0.37201100  0.17637400  1
  C  992  1  0.69149500  0.35860300  0.20610200  1
  C  993  1  0.68984500  0.37849200  0.23236400  1
  C  994  1  0.68366200  0.41053900  0.22910000  1
  C  1003  1  0.70256500  0.32831900  0.20960700  1
  C  1004  1  0.66855400  0.55355600  0.17536600  1
  C  1007  1  0.68456300  0.85562800  0.20253900  1
  C  1008  1  0.66279200  0.87306600  0.22004300  1
  C  1009  1  0.66072800  0.90602200  0.21779800  1
  C  1010  1  0.68153400  0.92215500  0.19753400  1
  C  1011  1  0.70379600  0.90472300  0.18062300  1
  C  1012  1  0.70529300  0.87216500  0.18305100  1
  C  1015  1  0.68155500  0.95519200  0.19344700  1
  C  1016  1  0.68953100  0.97536100  0.21822500  1
  C  1017  1  0.69356300  0.00754644  0.21314900  1
  C  1018  1  0.68977000  0.02057140  0.18310000  1
  C  1019  1  0.68120600  0.00044944  0.15847500  1
  C  1020  1  0.67704900  0.96834200  0.16358700  1
  C  1029  1  0.70000600  0.05051540  0.17640200  1
  C  1030  1  0.68455100  0.82316600  0.20339200  1
  C  1033  1  0.69283600  0.17555000  0.85559600  1
  C  1034  1  0.67034200  0.15949000  0.87344300  1
  C  1035  1  0.66887800  0.16214900  0.90639000  1
  C  1036  1  0.69147000  0.18081100  0.92213100  1
  C  1037  1  0.71446700  0.19618400  0.90423900  1
  C  1038  1  0.71514700  0.19364400  0.87162800  1
  C  1041  1  0.69075000  0.18660600  0.95492400  1
  C  1042  1  0.69423100  0.16242300  0.97701100  1
  C  1043  1  0.69059700  0.16822700  0.00915044  1
  C  1044  1  0.68382300  0.19852200  0.02031740  1
  C  1045  1  0.68174200  0.22286800  0.99815600  1
  C  1046  1  0.68527100  0.21707100  0.96610300  1
  C  1055  1  0.67424100  0.20412800  0.05086140  1
  C  1056  1  0.69162800  0.17514100  0.82319600  1
  C  1059  1  0.67620300  0.19516600  0.52244900  1
  C  1060  1  0.65200300  0.20196300  0.50110600  1
  C  1061  1  0.65493100  0.19675100  0.46867900  1
  C  1062  1  0.68344600  0.18440800  0.45703000  1
  C  1063  1  0.70739500  0.17664900  0.47824400  1
  C  1064  1  0.70391000  0.18209400  0.51039900  1
  C  1067  1  0.68857900  0.18001100  0.42456800  1
  C  1068  1  0.69113000  0.20584800  0.40434100  1
  C  1069  1  0.68998500  0.20187700  0.37179500  1
  C  1070  1  0.68622700  0.17192600  0.35847100  1
  C  1071  1  0.68539200  0.14602100  0.37891500  1
  C  1072  1  0.68658800  0.14995300  0.41144900  1
  C  1081  1  0.67747500  0.16795700  0.32742700  1
  C  1082  1  0.67337500  0.20530100  0.55320500  1
  C  1085  1  0.17569200  0.52466200  0.69629300  1
  C  1086  1  0.15855200  0.50683800  0.71803800  1
  C  1087  1  0.16112200  0.47387700  0.71974900  1
  C  1088  1  0.18133100  0.45812700  0.69859300  1
  C  1089  1  0.19788100  0.47595100  0.67636900  1
  C  1090  1  0.19513700  0.50850200  0.67522300  1
  C  1093  1  0.18572100  0.42511700  0.69820200  1
  C  1094  1  0.16104500  0.40477900  0.69034300  1
  C  1095  1  0.16636000  0.37266000  0.68605300  1
  C  1096  1  0.19655200  0.35985800  0.68946100  1
  C  1097  1  0.22108500  0.38016000  0.69788500  1
  C  1098  1  0.21573400  0.41219400  0.70233200  1
  C  1107  1  0.20345800  0.33003900  0.67897600  1
  C  1108  1  0.17459400  0.55713200  0.69666300  1
  C  1111  1  0.19682900  0.85822400  0.71081200  1
  C  1112  1  0.20504900  0.87917200  0.73494600  1
  C  1113  1  0.19960100  0.91167700  0.73298300  1
  C  1114  1  0.18550900  0.92394000  0.70555600  1
  C  1115  1  0.17646500  0.90301000  0.68172800  1
  C  1116  1  0.18209600  0.87080600  0.68422500  1
  C  1119  1  0.18163100  0.95660700  0.70040000  1
  C  1120  1  0.20769500  0.97669500  0.69868200  1
  C  1121  1  0.20405400  0.00866444  0.69217500  1
  C  1122  1  0.17417700  0.02164440  0.68711900  1
  C  1123  1  0.14814900  0.00147844  0.68895300  1
  C  1124  1  0.15178000  0.96954800  0.69551800  1
  C  1133  1  0.17036400  0.05180940  0.67583100  1
  C  1134  1  0.20696900  0.82732600  0.71240700  1
  C  1137  1  0.52243500  0.67618300  0.19512500  1
  C  1138  1  0.50109700  0.65199600  0.20199000  1
  C  1139  1  0.46866700  0.65491500  0.19677600  1
  C  1140  1  0.45702300  0.68338500  0.18432900  1
  C  1141  1  0.47824200  0.70730200  0.17647200  1
  C  1142  1  0.51039200  0.70384000  0.18194500  1
  C  1145  1  0.42456300  0.68848300  0.17987600  1
  C  1146  1  0.40430700  0.69112800  0.20568400  1
  C  1147  1  0.37177100  0.68984500  0.20168000  1
  C  1148  1  0.35847500  0.68599900  0.17173300  1
  C  1149  1  0.37895500  0.68504700  0.14586000  1
  C  1150  1  0.41148200  0.68637600  0.14980600  1
  C  1159  1  0.32744600  0.67719700  0.16778200  1
  C  1160  1  0.55322100  0.67332900  0.20517600  1
  C  1163  1  0.85555100  0.69287600  0.17551500  1
  C  1164  1  0.87338100  0.67040200  0.15940900  1
  C  1165  1  0.90633400  0.66895200  0.16200200  1
  C  1166  1  0.92209600  0.69150900  0.18068800  1
  C  1167  1  0.90421400  0.71445800  0.19615000  1
  C  1168  1  0.87160000  0.71514000  0.19364800  1
  C  1171  1  0.95489900  0.69079200  0.18642600  1
  C  1172  1  0.97694400  0.69430100  0.16220700  1
  C  1173  1  0.00909744  0.69069500  0.16794700  1
  C  1174  1  0.02031340  0.68383000  0.19820400  1
  C  1175  1  0.99820500  0.68175300  0.22259900  1
  C  1176  1  0.96613800  0.68525400  0.21685800  1
  C  1185  1  0.05086140  0.67421100  0.20373000  1
  C  1186  1  0.82315600  0.69163500  0.17515700  1
  N  44  1  0.01352800  0.38624200  0.50563900  1
  N  45  1  0.99411300  0.50017600  0.38819000  1
  N  46  1  0.99401500  0.50154900  0.62114200  1
  N  47  1  0.01298500  0.61922400  0.50700100  1
  N  91  1  0.50592300  0.01196600  0.38936800  1
  N  92  1  0.38870400  0.99692500  0.50228500  1
  N  93  1  0.62168200  0.99177300  0.50360000  1
  N  94  1  0.50792100  0.01473200  0.62218000  1
  N  138  1  0.38932800  0.50597000  0.01191100  1
  N  139  1  0.50201500  0.38881200  0.99669400  1
  N  140  1  0.50339500  0.62175000  0.99194800  1
  N  141  1  0.62214800  0.50787600  0.01475900  1
  N  185  1  0.51011800  0.88765800  0.00867200  1
  N  186  1  0.49334800  0.99962700  0.88791200  1
  N  187  1  0.49491000  0.00270700  0.11998800  1
  N  188  1  0.51019700  0.11951800  0.00446900  1
  N  232  1  0.00899000  0.50981800  0.88712000  1
  N  233  1  0.88786500  0.49328000  0.99916200  1
  N  234  1  0.11994300  0.49467700  0.00245800  1
  N  235  1  0.00390400  0.51005300  0.11894300  1
  N  279  1  0.88762800  0.00821200  0.51129400  1
  N  280  1  0.00272800  0.88841500  0.49567100  1
  N  281  1  0.99903800  0.12021000  0.49653000  1
  N  282  1  0.11946800  0.00553800  0.51193800  1
  N  302  1  0.98528300  0.43510200  0.26418800  1
  N  328  1  0.04913800  0.45075400  0.73466400  1
  N  354  1  0.26489100  0.98778100  0.43680300  1
  N  380  1  0.73487100  0.04758500  0.45239600  1
  N  406  1  0.43586300  0.26538900  0.98728700  1
  N  432  1  0.45191400  0.73464300  0.04810700  1
  N  458  1  0.45871400  0.96153800  0.73518600  1
  N  484  1  0.44400600  0.01756000  0.26381800  1
  N  510  1  0.95870100  0.27242200  0.55610600  1
  N  536  1  0.02168700  0.74360800  0.57137900  1
  N  562  1  0.26380600  0.44401300  0.01766800  1
  N  588  1  0.73511100  0.45881400  0.96133100  1
  N  638  1  0.19975900  0.57247300  0.69187000  1
  N  639  1  0.18034400  0.68640700  0.57442100  1
  N  640  1  0.18024600  0.68778000  0.80737300  1
  N  641  1  0.19921600  0.80545500  0.69323200  1
  N  685  1  0.69215400  0.19819700  0.57559900  1
  N  686  1  0.57493500  0.18315600  0.68851600  1
  N  687  1  0.80791300  0.17800400  0.68983100  1
  N  688  1  0.69415200  0.20096300  0.80841100  1
  N  732  1  0.57555900  0.69220100  0.19814200  1
  N  733  1  0.68824600  0.57504300  0.18292500  1
  N  734  1  0.68962600  0.80798100  0.17817900  1
  N  735  1  0.80837900  0.69410700  0.20099000  1
  N  779  1  0.69634900  0.07388940  0.19490300  1
  N  780  1  0.67957900  0.18585800  0.07414340  1
  N  781  1  0.68114100  0.18893800  0.30621900  1
  N  782  1  0.69642800  0.30574900  0.19070000  1
  N  826  1  0.19522100  0.69604900  0.07335140  1
  N  827  1  0.07409640  0.67951100  0.18539300  1
  N  828  1  0.30617400  0.68090800  0.18868900  1
  N  829  1  0.19013500  0.69628400  0.30517400  1
  N  873  1  0.07385940  0.19444300  0.69752500  1
  N  874  1  0.18895900  0.07464640  0.68190200  1
  N  875  1  0.18526900  0.30644100  0.68276100  1
  N  876  1  0.30569900  0.19176900  0.69816900  1
  N  896  1  0.17151400  0.62133300  0.45041900  1
  N  922  1  0.23536900  0.63698500  0.92089500  1
  N  948  1  0.45112200  0.17401200  0.62303400  1
  N  974  1  0.92110200  0.23381600  0.63862700  1
  N  1000  1  0.62209400  0.45162000  0.17351800  1
  N  1026  1  0.63814500  0.92087400  0.23433800  1
  N  1052  1  0.64494500  0.14776900  0.92141700  1
  N  1078  1  0.63023700  0.20379100  0.45004900  1
  N  1104  1  0.14493200  0.45865300  0.74233700  1
  N  1130  1  0.20791800  0.92983900  0.75761000  1
  N  1156  1  0.45003700  0.63024400  0.20389900  1
  N  1182  1  0.92134200  0.64504500  0.14756200  1
