# generated using pymatgen
data_H29C45N6O
_symmetry_space_group_name_H-M   'P 1'
_cell_length_a   68.80020000
_cell_length_b   68.80020000
_cell_length_c   68.80020000
_cell_angle_alpha   90.00000000
_cell_angle_beta   90.00000000
_cell_angle_gamma   90.00000000
_symmetry_Int_Tables_number   1
_chemical_formula_structural   H29C45N6O
_chemical_formula_sum   'H348 C540 N72 O12'
_cell_volume   325663.51207226
_cell_formula_units_Z   12
loop_
 _symmetry_equiv_pos_site_id
 _symmetry_equiv_pos_as_xyz
  1  'x, y, z'
loop_
 _atom_site_type_symbol
 _atom_site_label
 _atom_site_symmetry_multiplicity
 _atom_site_fract_x
 _atom_site_fract_y
 _atom_site_fract_z
 _atom_site_occupancy
  H  73  1  0.04190500  0.48809600  0.34019400  1
  H  74  1  0.03854500  0.48750300  0.37450300  1
  H  75  1  0.99771000  0.53042400  0.33638400  1
  H  76  1  0.99481800  0.53042600  0.37099000  1
  H  77  1  0.98516800  0.51309300  0.40057900  1
  H  78  1  0.98443800  0.51416000  0.43531700  1
  H  79  1  0.04622800  0.50692700  0.40231400  1
  H  80  1  0.04530600  0.50736700  0.43691300  1
  H  81  1  0.01446600  0.47182800  0.44684600  1
  H  82  1  0.01462200  0.44596900  0.47308000  1
  H  83  1  0.01437400  0.49908100  0.49957000  1
  H  84  1  0.01524200  0.52336200  0.52354200  1
  H  85  1  0.01460500  0.55018300  0.44571100  1
  H  86  1  0.01481500  0.57649900  0.47163400  1
  H  87  1  0.98598200  0.58757800  0.51831700  1
  H  88  1  0.98676700  0.62232800  0.51777400  1
  H  89  1  0.04548400  0.58591800  0.50375300  1
  H  90  1  0.04641100  0.62060500  0.50340500  1
  H  91  1  0.01526400  0.57643000  0.55010100  1
  H  92  1  0.01492800  0.55061600  0.57625700  1
  H  93  1  0.01586800  0.44592700  0.55138300  1
  H  94  1  0.01644300  0.47216000  0.57733700  1
  H  95  1  0.04530100  0.51990400  0.58626000  1
  H  96  1  0.04610000  0.52078900  0.62095000  1
  H  97  1  0.98631800  0.50335000  0.58797600  1
  H  98  1  0.98699800  0.50434300  0.62271600  1
  H  99  1  0.00082200  0.48861600  0.65279900  1
  H  100  1  0.99979200  0.49282500  0.68731900  1
  H  101  1  0.03158400  0.54498200  0.68174300  1
  H  102  1  0.03231900  0.54099700  0.64747300  1
  H  103  1  0.98453700  0.43514700  0.50927900  1
  H  104  1  0.98513800  0.40041400  0.51041200  1
  H  105  1  0.03870300  0.37423100  0.53542400  1
  H  106  1  0.04188000  0.33987200  0.53495300  1
  H  107  1  0.99715900  0.33611400  0.49318300  1
  H  108  1  0.99445300  0.37073600  0.49303300  1
  H  109  1  0.04629100  0.40189000  0.51567600  1
  H  110  1  0.04551100  0.43650000  0.51515500  1
  H  111  1  0.03377500  0.64749200  0.48331200  1
  H  112  1  0.03344600  0.68180000  0.47984600  1
  H  113  1  0.99982700  0.65221300  0.53419700  1
  H  114  1  0.99916800  0.68679300  0.53046800  1
  H  119  1  0.03715800  0.31071400  0.51102200  1
  H  120  1  0.03762000  0.51047200  0.31082600  1
  H  121  1  0.01488900  0.71198300  0.48746800  1
  H  122  1  0.01241400  0.53687900  0.71180300  1
  H  195  1  0.33985200  0.04207300  0.48814900  1
  H  196  1  0.37416400  0.03872000  0.48761300  1
  H  197  1  0.33595700  0.99759400  0.53018300  1
  H  198  1  0.37056100  0.99470300  0.53023700  1
  H  199  1  0.40012700  0.98514300  0.51275600  1
  H  200  1  0.43486300  0.98436600  0.51380900  1
  H  201  1  0.40192000  0.04626900  0.50724700  1
  H  202  1  0.43652500  0.04530900  0.50768700  1
  H  203  1  0.44641300  0.01585200  0.47185200  1
  H  204  1  0.47258100  0.01648600  0.44601200  1
  H  205  1  0.49913500  0.01356900  0.49902000  1
  H  206  1  0.52308800  0.01558700  0.52334700  1
  H  207  1  0.44523200  0.01474500  0.55014500  1
  H  208  1  0.47118200  0.01479300  0.57647500  1
  H  209  1  0.51153700  0.98422900  0.58742100  1
  H  210  1  0.51069000  0.98507800  0.62217200  1
  H  211  1  0.50935600  0.04543700  0.58577000  1
  H  212  1  0.50916200  0.04642800  0.62037000  1
  H  213  1  0.54948800  0.01337700  0.57645600  1
  H  214  1  0.57574100  0.01354300  0.55065500  1
  H  215  1  0.55103600  0.01540700  0.44594900  1
  H  216  1  0.57692100  0.01583800  0.47220300  1
  H  217  1  0.58577900  0.04500400  0.52025500  1
  H  218  1  0.62046200  0.04584500  0.52115700  1
  H  219  1  0.58757600  0.98617100  0.50320000  1
  H  220  1  0.62231500  0.98688800  0.50422200  1
  H  221  1  0.65237000  0.00083200  0.48859700  1
  H  222  1  0.68690200  0.99987600  0.49272200  1
  H  223  1  0.68135500  0.03137600  0.54505600  1
  H  224  1  0.64707600  0.03203200  0.54115700  1
  H  225  1  0.50361700  0.98617700  0.43482800  1
  H  226  1  0.50444600  0.98687500  0.40008600  1
  H  227  1  0.54077900  0.03240000  0.37530100  1
  H  228  1  0.54479600  0.03164400  0.34103500  1
  H  229  1  0.49283300  0.99953100  0.33546100  1
  H  230  1  0.48859100  0.00057900  0.36998000  1
  H  231  1  0.52045800  0.04609600  0.40179100  1
  H  232  1  0.51973900  0.04528100  0.43648400  1
  H  233  1  0.48913300  0.04020300  0.64812700  1
  H  234  1  0.48984900  0.04353100  0.68242400  1
  H  235  1  0.52873100  0.99345900  0.65179400  1
  H  236  1  0.52883800  0.99637000  0.68640000  1
  H  241  1  0.53682500  0.01232500  0.31100600  1
  H  242  1  0.31038800  0.03759700  0.51025800  1
  H  243  1  0.51095300  0.03763500  0.71201400  1
  H  244  1  0.71144100  0.01233300  0.53680800  1
  H  317  1  0.48818100  0.33985200  0.04214900  1
  H  318  1  0.48763800  0.37416200  0.03878400  1
  H  319  1  0.53020900  0.33594400  0.99766800  1
  H  320  1  0.53025400  0.37055300  0.99476300  1
  H  321  1  0.51276600  0.40010900  0.98519000  1
  H  322  1  0.51381200  0.43484600  0.98439600  1
  H  323  1  0.50725700  0.40193300  0.04631300  1
  H  324  1  0.50768700  0.43653600  0.04533700  1
  H  325  1  0.47184900  0.44641600  0.01584500  1
  H  326  1  0.44601200  0.47258800  0.01647300  1
  H  327  1  0.49902300  0.49913800  0.01360000  1
  H  328  1  0.52334700  0.52309600  0.01562000  1
  H  329  1  0.55014600  0.44523500  0.01477800  1
  H  330  1  0.57647300  0.47118400  0.01481900  1
  H  331  1  0.58740800  0.51164200  0.98423400  1
  H  332  1  0.62215900  0.51079600  0.98506800  1
  H  333  1  0.58577700  0.50925600  0.04543300  1
  H  334  1  0.62037700  0.50905900  0.04641300  1
  H  335  1  0.57645400  0.54949100  0.01335500  1
  H  336  1  0.55065500  0.57574500  0.01351300  1
  H  337  1  0.44595200  0.55104000  0.01540800  1
  H  338  1  0.47220500  0.57692800  0.01583500  1
  H  339  1  0.52025800  0.58579700  0.04499500  1
  H  340  1  0.52116700  0.62048000  0.04582400  1
  H  341  1  0.50320300  0.58757900  0.98616200  1
  H  342  1  0.50423500  0.62231800  0.98686600  1
  H  343  1  0.48864100  0.65239000  0.00078100  1
  H  344  1  0.49278600  0.68691800  0.99980500  1
  H  345  1  0.54508700  0.68136100  0.03135800  1
  H  346  1  0.54116700  0.64708500  0.03203100  1
  H  347  1  0.43483700  0.50365400  0.98617100  1
  H  348  1  0.40009500  0.50447500  0.98686700  1
  H  349  1  0.37529100  0.54072800  0.03246400  1
  H  350  1  0.34102200  0.54473400  0.03170700  1
  H  351  1  0.33547700  0.49284700  0.99946900  1
  H  352  1  0.36999600  0.48861500  0.00051800  1
  H  353  1  0.40179500  0.52041000  0.04611100  1
  H  354  1  0.43648700  0.51970500  0.04529400  1
  H  355  1  0.64814200  0.48906100  0.04011000  1
  H  356  1  0.68243800  0.48979800  0.04343900  1
  H  357  1  0.65177000  0.52884000  0.99351500  1
  H  358  1  0.68637800  0.52896900  0.99643100  1
  H  363  1  0.31103100  0.53680000  0.01224000  1
  H  364  1  0.51028500  0.31039600  0.03769800  1
  H  365  1  0.71196300  0.51111200  0.03764300  1
  H  366  1  0.53687200  0.71143700  0.01227200  1
  H  439  1  0.53423800  0.98026400  0.84105500  1
  H  440  1  0.53361400  0.98327100  0.87533300  1
  H  441  1  0.49886600  0.03015300  0.83587100  1
  H  442  1  0.49868100  0.03346600  0.87043900  1
  H  443  1  0.48602700  0.01722000  0.90049500  1
  H  444  1  0.48545800  0.01807300  0.93525100  1
  H  445  1  0.54585700  0.00354900  0.90200100  1
  H  446  1  0.54512700  0.00414000  0.93667000  1
  H  447  1  0.51506200  0.97203600  0.94654300  1
  H  448  1  0.51562800  0.94608800  0.97259300  1
  H  449  1  0.51481200  0.99903700  0.99939000  1
  H  450  1  0.51527100  0.02319700  0.02345600  1
  H  451  1  0.51542600  0.05046200  0.94579200  1
  H  452  1  0.51519400  0.07659700  0.97185400  1
  H  453  1  0.48519200  0.08716800  0.01703000  1
  H  454  1  0.48578000  0.12193300  0.01633800  1
  H  455  1  0.54536400  0.08582800  0.00542500  1
  H  456  1  0.54611700  0.12049800  0.00505900  1
  H  457  1  0.51464900  0.07617500  0.05022100  1
  H  458  1  0.51459700  0.05024300  0.07628700  1
  H  459  1  0.51557500  0.94568000  0.05104600  1
  H  460  1  0.51589400  0.97182500  0.07706400  1
  H  461  1  0.54540900  0.01910900  0.08606400  1
  H  462  1  0.54610000  0.02026800  0.12074900  1
  H  463  1  0.48612200  0.00361700  0.08768600  1
  H  464  1  0.48668400  0.00492500  0.12242200  1
  H  465  1  0.50019600  0.98911700  0.15256200  1
  H  466  1  0.49935700  0.99338300  0.18704700  1
  H  467  1  0.53207800  0.04497300  0.18132600  1
  H  468  1  0.53258400  0.04094600  0.14704600  1
  H  469  1  0.48611900  0.93493400  0.00432800  1
  H  470  1  0.48664100  0.90019000  0.00540200  1
  H  471  1  0.53283100  0.87537500  0.04091600  1
  H  472  1  0.53226000  0.84109200  0.04492200  1
  H  473  1  0.49901700  0.83550900  0.99365600  1
  H  474  1  0.49990700  0.87000300  0.98941700  1
  H  475  1  0.54620700  0.90167600  0.02015400  1
  H  476  1  0.54556200  0.93636600  0.01921200  1
  H  477  1  0.53471600  0.14716400  0.98438500  1
  H  478  1  0.53538200  0.18144300  0.98140800  1
  H  479  1  0.49768100  0.15196300  0.03306800  1
  H  480  1  0.49790800  0.18653100  0.02975100  1
  H  485  1  0.51375000  0.81069300  0.03715100  1
  H  486  1  0.52136700  0.98914600  0.80979700  1
  H  487  1  0.52167400  0.21261600  0.98957200  1
  H  488  1  0.51391700  0.03703800  0.21180600  1
  H  561  1  0.84110500  0.53421300  0.98039800  1
  H  562  1  0.87537800  0.53359700  0.98345900  1
  H  563  1  0.83584600  0.49886500  0.03029500  1
  H  564  1  0.87041000  0.49868600  0.03366200  1
  H  565  1  0.90049300  0.48602700  0.01747000  1
  H  566  1  0.93524700  0.48546200  0.01837700  1
  H  567  1  0.90201100  0.54585400  0.00378100  1
  H  568  1  0.93667700  0.54512900  0.00442800  1
  H  569  1  0.94654000  0.51503200  0.97234700  1
  H  570  1  0.97259000  0.51559300  0.94639900  1
  H  571  1  0.99938800  0.51484700  0.99935000  1
  H  572  1  0.02345300  0.51525000  0.02350800  1
  H  573  1  0.94579200  0.51543000  0.05077300  1
  H  574  1  0.97185400  0.51519200  0.07691000  1
  H  575  1  0.01709400  0.48520800  0.08749100  1
  H  576  1  0.01639800  0.48579600  0.12225600  1
  H  577  1  0.00536600  0.54535600  0.08614900  1
  H  578  1  0.00499200  0.54610600  0.12081800  1
  H  579  1  0.05022600  0.51467100  0.07648200  1
  H  580  1  0.07628800  0.51461000  0.05054600  1
  H  581  1  0.05103800  0.51560900  0.94598700  1
  H  582  1  0.07705800  0.51591500  0.97212900  1
  H  583  1  0.08606300  0.54540500  0.01939200  1
  H  584  1  0.12075000  0.54610600  0.02049300  1
  H  585  1  0.08767500  0.48611600  0.00390600  1
  H  586  1  0.12241200  0.48668600  0.00515800  1
  H  587  1  0.15252300  0.50019600  0.98930600  1
  H  588  1  0.18701700  0.49936300  0.99352000  1
  H  589  1  0.18137000  0.53210300  0.04510600  1
  H  590  1  0.14708400  0.53260300  0.04113100  1
  H  591  1  0.00437700  0.48610400  0.93525800  1
  H  592  1  0.00546300  0.48661800  0.90051600  1
  H  593  1  0.04091200  0.53283200  0.87570800  1
  H  594  1  0.04492300  0.53226600  0.84142400  1
  H  595  1  0.99368100  0.49898500  0.83583400  1
  H  596  1  0.98943700  0.49987000  0.87033000  1
  H  597  1  0.02010700  0.54621200  0.90198800  1
  H  598  1  0.01915500  0.54557500  0.93667800  1
  H  599  1  0.98435400  0.53467700  0.14748900  1
  H  600  1  0.98137700  0.53534700  0.18176800  1
  H  601  1  0.03311100  0.49774200  0.15229700  1
  H  602  1  0.02979700  0.49797400  0.18686600  1
  H  607  1  0.03717400  0.51372500  0.81103600  1
  H  608  1  0.80983200  0.52135000  0.98924200  1
  H  609  1  0.98958400  0.52170300  0.21295100  1
  H  610  1  0.21183500  0.51394000  0.03713600  1
  H  683  1  0.98632800  0.84046700  0.54043400  1
  H  684  1  0.98684100  0.87476900  0.53755300  1
  H  685  1  0.03093300  0.83610800  0.49852600  1
  H  686  1  0.03184900  0.87071500  0.49604000  1
  H  687  1  0.01426000  0.90022400  0.48531500  1
  H  688  1  0.01496100  0.93498100  0.48434400  1
  H  689  1  0.00683800  0.90231700  0.54622900  1
  H  690  1  0.00704000  0.93693700  0.54508400  1
  H  691  1  0.97195200  0.94653700  0.51572800  1
  H  692  1  0.94603500  0.97265200  0.51629200  1
  H  693  1  0.99898100  0.99931500  0.51331400  1
  H  694  1  0.02325900  0.02331200  0.51347200  1
  H  695  1  0.05027500  0.94559100  0.51371600  1
  H  696  1  0.07651300  0.97158800  0.51362200  1
  H  697  1  0.08729200  0.01732900  0.48478200  1
  H  698  1  0.12204900  0.01660300  0.48547100  1
  H  699  1  0.08574400  0.00461900  0.54472600  1
  H  700  1  0.12040800  0.00426400  0.54559600  1
  H  701  1  0.07626900  0.04995200  0.51567000  1
  H  702  1  0.05035500  0.07608100  0.51561900  1
  H  703  1  0.94578900  0.05110500  0.51384000  1
  H  704  1  0.97206200  0.07705800  0.51392400  1
  H  705  1  0.01460800  0.08556900  0.54557800  1
  H  706  1  0.01531900  0.12017400  0.54676600  1
  H  707  1  0.00842500  0.08767400  0.48464200  1
  H  708  1  0.00972500  0.12239400  0.48565200  1
  H  709  1  0.99232500  0.15190900  0.49556100  1
  H  710  1  0.99289300  0.18650100  0.49837000  1
  H  711  1  0.03530600  0.18214900  0.54246200  1
  H  712  1  0.03531700  0.14779200  0.53918400  1
  H  713  1  0.93480900  0.00381600  0.48572900  1
  H  714  1  0.90007100  0.00494000  0.48635700  1
  H  715  1  0.87542600  0.04121900  0.53213900  1
  H  716  1  0.84115000  0.04521800  0.53167100  1
  H  717  1  0.83542000  0.99355900  0.49907000  1
  H  718  1  0.86991100  0.98931500  0.49987900  1
  H  719  1  0.90179300  0.02077900  0.54563800  1
  H  720  1  0.93647600  0.01983600  0.54486700  1
  H  721  1  0.14713800  0.98388800  0.53405500  1
  H  722  1  0.18141200  0.98093000  0.53481600  1
  H  723  1  0.15204200  0.03304300  0.49766000  1
  H  724  1  0.18660400  0.02974000  0.49796200  1
  H  729  1  0.81065700  0.03724300  0.51354500  1
  H  730  1  0.00336700  0.80975000  0.53543100  1
  H  731  1  0.21265600  0.98937500  0.52152600  1
  H  732  1  0.01338200  0.21208200  0.53787300  1
  H  743  1  0.95736700  0.47806500  0.24057900  1
  H  744  1  0.03833800  0.52624500  0.27965700  1
  H  745  1  0.03984800  0.52633100  0.24496400  1
  H  748  1  0.94277400  0.44887300  0.28956700  1
  H  749  1  0.96827300  0.45182700  0.29037700  1
  H  750  1  0.95631900  0.44687600  0.26785200  1
  H  763  1  0.04786300  0.45896100  0.78410900  1
  H  764  1  0.99611600  0.53635400  0.74254000  1
  H  765  1  0.99429200  0.53784400  0.77717000  1
  H  768  1  0.08008000  0.44443900  0.73768200  1
  H  769  1  0.07993100  0.45668300  0.76024700  1
  H  770  1  0.07782800  0.47002500  0.73806900  1
  H  783  1  0.24039900  0.95718000  0.47791400  1
  H  784  1  0.27925500  0.03823600  0.52613800  1
  H  785  1  0.24455700  0.03968400  0.52617000  1
  H  788  1  0.28947700  0.94268100  0.44880700  1
  H  789  1  0.29025800  0.96818000  0.45177900  1
  H  790  1  0.26775600  0.95621000  0.44676000  1
  H  803  1  0.78364700  0.04798000  0.45885600  1
  H  804  1  0.74220500  0.99612600  0.53624200  1
  H  805  1  0.77683900  0.99432400  0.53768600  1
  H  808  1  0.73722900  0.08019300  0.44439100  1
  H  809  1  0.75984300  0.08000800  0.45654600  1
  H  810  1  0.73771300  0.07796800  0.46997800  1
  H  823  1  0.47804900  0.24026800  0.95737300  1
  H  824  1  0.52623800  0.27928800  0.03837000  1
  H  825  1  0.52632100  0.24459400  0.03986000  1
  H  828  1  0.44888400  0.28929700  0.94281200  1
  H  829  1  0.45185500  0.29011200  0.96831100  1
  H  830  1  0.44686200  0.26759100  0.95636900  1
  H  843  1  0.45900300  0.78375700  0.04787500  1
  H  844  1  0.53634800  0.74219200  0.99606100  1
  H  845  1  0.53784100  0.77682100  0.99424700  1
  H  848  1  0.44445300  0.73737200  0.08009400  1
  H  849  1  0.45663500  0.75997100  0.07990600  1
  H  850  1  0.47004300  0.73782500  0.07788600  1
  H  863  1  0.47767100  0.95740700  0.78195700  1
  H  864  1  0.52653300  0.03810000  0.74316300  1
  H  865  1  0.52664500  0.03948400  0.77785500  1
  H  868  1  0.44837500  0.94312600  0.73298700  1
  H  869  1  0.45139400  0.96862500  0.73237400  1
  H  870  1  0.44651700  0.95649800  0.75482200  1
  H  883  1  0.45904900  0.04777900  0.23857800  1
  H  884  1  0.53630000  0.99594100  0.28029800  1
  H  885  1  0.53784400  0.99410300  0.24566800  1
  H  888  1  0.44444800  0.08007700  0.28485900  1
  H  889  1  0.45660000  0.07981100  0.26224600  1
  H  890  1  0.47003900  0.07788900  0.28438400  1
  H  903  1  0.95856400  0.24012600  0.54870500  1
  H  904  1  0.03604500  0.27949800  0.49539700  1
  H  905  1  0.03692800  0.24480700  0.49415100  1
  H  908  1  0.94483300  0.28715600  0.58017200  1
  H  909  1  0.97040500  0.28590500  0.57807500  1
  H  910  1  0.95631400  0.26419400  0.58016500  1
  H  923  1  0.04717400  0.78206900  0.56811100  1
  H  924  1  0.99963000  0.74310500  0.48671600  1
  H  925  1  0.99953300  0.77778100  0.48527200  1
  H  928  1  0.07637600  0.73311200  0.58279500  1
  H  929  1  0.07841600  0.75487200  0.56932900  1
  H  930  1  0.07361300  0.73237200  0.55727100  1
  H  943  1  0.23858900  0.45904200  0.04783400  1
  H  944  1  0.28028400  0.53630900  0.99599900  1
  H  945  1  0.24565300  0.53785100  0.99417700  1
  H  948  1  0.28491500  0.44443500  0.08009800  1
  H  949  1  0.26232800  0.45663800  0.07988000  1
  H  950  1  0.28449000  0.47002500  0.07789600  1
  H  963  1  0.78200600  0.47766400  0.95748100  1
  H  964  1  0.74315300  0.52652100  0.03814900  1
  H  965  1  0.77783900  0.52663500  0.03955700  1
  H  968  1  0.73306300  0.44835000  0.94317400  1
  H  969  1  0.73244100  0.45137100  0.96867300  1
  H  970  1  0.75489600  0.44651000  0.95655200  1
  C  1  1  0.01445000  0.47470500  0.46144000  1
  C  2  1  0.01450700  0.46060600  0.47573800  1
  C  3  1  0.01445400  0.46981100  0.49384000  1
  C  5  1  0.01444800  0.49294600  0.47038100  1
  C  6  1  0.01444400  0.51109100  0.46033100  1
  C  7  1  0.01460200  0.52956100  0.46966600  1
  C  9  1  0.01500400  0.55287300  0.49264500  1
  C  10  1  0.01485800  0.56189600  0.47445600  1
  C  11  1  0.01470800  0.54759800  0.46036200  1
  C  12  1  0.01515500  0.56247200  0.51099700  1
  C  13  1  0.01507400  0.55263200  0.52926700  1
  C  15  1  0.01513800  0.52946500  0.55274200  1
  C  16  1  0.01501000  0.54770900  0.56167200  1
  C  17  1  0.01515700  0.56180600  0.54738600  1
  C  18  1  0.01526300  0.51132400  0.56283200  1
  C  19  1  0.01518600  0.49286600  0.55346500  1
  C  21  1  0.01491800  0.46960900  0.53045700  1
  C  22  1  0.01551000  0.46053600  0.54860600  1
  C  23  1  0.01579900  0.47480400  0.56271500  1
  C  24  1  0.01462700  0.46002500  0.51211900  1
  C  25  1  0.01495600  0.43917100  0.51213900  1
  C  26  1  0.03267800  0.42901500  0.51407200  1
  C  27  1  0.03303100  0.40854200  0.51459300  1
  C  28  1  0.01576100  0.39730500  0.51330600  1
  C  29  1  0.99808200  0.40770600  0.51111900  1
  C  30  1  0.99765100  0.42821700  0.51059700  1
  C  31  1  0.01633400  0.37633200  0.51415100  1
  C  32  1  0.00410100  0.36448600  0.50248500  1
  C  33  1  0.00568100  0.34399900  0.50251000  1
  C  34  1  0.01957000  0.33449000  0.51430800  1
  C  35  1  0.03148700  0.34614400  0.52631500  1
  C  36  1  0.02974200  0.36654200  0.52637600  1
  C  37  1  0.01571900  0.51159400  0.58372000  1
  C  38  1  0.03292000  0.51651700  0.59381000  1
  C  39  1  0.03331000  0.51712200  0.61429000  1
  C  40  1  0.01663800  0.51262500  0.62556000  1
  C  41  1  0.99955500  0.50733800  0.61531300  1
  C  42  1  0.99905600  0.50692700  0.59481200  1
  C  43  1  0.01683200  0.51426400  0.64643500  1
  C  44  1  0.02585200  0.53034600  0.65560700  1
  C  45  1  0.02530100  0.53279200  0.67592400  1
  C  46  1  0.01590200  0.51913600  0.68809500  1
  C  47  1  0.00711300  0.50285400  0.67910200  1
  C  48  1  0.00751400  0.50054000  0.65869000  1
  C  49  1  0.01563700  0.58335700  0.51104000  1
  C  50  1  0.99884800  0.59442800  0.51526900  1
  C  51  1  0.99941100  0.61493500  0.51514500  1
  C  52  1  0.01668800  0.62521400  0.51058400  1
  C  53  1  0.03347600  0.61394400  0.50652200  1
  C  54  1  0.03301200  0.59346000  0.50681400  1
  C  55  1  0.01699700  0.64612100  0.50924100  1
  C  56  1  0.02682700  0.65549200  0.49375800  1
  C  57  1  0.02650000  0.67584400  0.49160300  1
  C  58  1  0.01648600  0.68787300  0.50494700  1
  C  59  1  0.00688300  0.67868400  0.52065100  1
  C  60  1  0.00708500  0.65823300  0.52267800  1
  C  61  1  0.01478300  0.51076700  0.43947400  1
  C  62  1  0.99755200  0.51259300  0.42844000  1
  C  63  1  0.03251300  0.50859000  0.42938100  1
  C  64  1  0.03294900  0.50813200  0.40890700  1
  C  65  1  0.01575700  0.50974400  0.39758900  1
  C  66  1  0.99806500  0.51212300  0.40792700  1
  C  67  1  0.01643400  0.50904200  0.37660600  1
  C  68  1  0.00440600  0.52090800  0.36474600  1
  C  69  1  0.00609400  0.52097100  0.34426200  1
  C  70  1  0.01993800  0.50910600  0.33475900  1
  C  71  1  0.03161200  0.49687500  0.34643800  1
  C  72  1  0.02975400  0.49672100  0.36682100  1
  C  115  1  0.02337300  0.31467500  0.51280900  1
  C  116  1  0.01415100  0.52306400  0.70791900  1
  C  117  1  0.01523600  0.70780100  0.50129900  1
  C  118  1  0.02375200  0.51038900  0.31490200  1
  C  123  1  0.46100000  0.01534600  0.47471100  1
  C  124  1  0.47528600  0.01567600  0.46061500  1
  C  125  1  0.49340400  0.01493000  0.46977200  1
  C  127  1  0.46995500  0.01461100  0.49292400  1
  C  128  1  0.45988900  0.01434300  0.51105600  1
  C  129  1  0.46919500  0.01428500  0.52953200  1
  C  131  1  0.49214800  0.01443200  0.55281900  1
  C  132  1  0.47397500  0.01460700  0.56186400  1
  C  133  1  0.45988200  0.01454600  0.54756600  1
  C  134  1  0.51048800  0.01437900  0.56239600  1
  C  135  1  0.52876700  0.01439200  0.55260300  1
  C  137  1  0.55227400  0.01475600  0.52948800  1
  C  138  1  0.56116500  0.01402800  0.54774400  1
  C  139  1  0.54685100  0.01391200  0.56182400  1
  C  140  1  0.56237600  0.01506700  0.51135600  1
  C  141  1  0.55300800  0.01513600  0.49288800  1
  C  143  1  0.53001100  0.01511400  0.46957100  1
  C  144  1  0.54819700  0.01531100  0.46054800  1
  C  145  1  0.56228600  0.01552300  0.47483700  1
  C  146  1  0.51167300  0.01510900  0.45994300  1
  C  147  1  0.51163500  0.01564500  0.43905400  1
  C  148  1  0.51636500  0.03289000  0.42894500  1
  C  149  1  0.51688000  0.03328800  0.40846400  1
  C  150  1  0.51248400  0.01657800  0.39721100  1
  C  151  1  0.50734100  0.99946200  0.40747700  1
  C  152  1  0.50701700  0.99895700  0.42798100  1
  C  153  1  0.51413600  0.01675600  0.37633900  1
  C  154  1  0.50047800  0.00733700  0.36408700  1
  C  155  1  0.50281400  0.00691800  0.34367900  1
  C  156  1  0.51904900  0.01579400  0.33469100  1
  C  157  1  0.53263300  0.02530500  0.34685300  1
  C  158  1  0.53016400  0.02587200  0.36716600  1
  C  159  1  0.58327100  0.01549900  0.51167000  1
  C  160  1  0.59334400  0.03265800  0.51677600  1
  C  161  1  0.61382300  0.03307500  0.51738200  1
  C  162  1  0.62512700  0.01646400  0.51273800  1
  C  163  1  0.61489800  0.99941500  0.50730100  1
  C  164  1  0.59439200  0.99888800  0.50688800  1
  C  165  1  0.64601100  0.01669000  0.51434300  1
  C  166  1  0.65520300  0.02566600  0.53044000  1
  C  167  1  0.67552700  0.02513900  0.53284700  1
  C  168  1  0.68769700  0.01584800  0.51911400  1
  C  169  1  0.67868800  0.00711600  0.50281400  1
  C  170  1  0.65826700  0.00747600  0.50054600  1
  C  171  1  0.51047200  0.01474200  0.58324900  1
  C  172  1  0.51104000  0.99743100  0.59429000  1
  C  173  1  0.51070200  0.99800100  0.61480600  1
  C  174  1  0.50969300  0.01583600  0.62512300  1
  C  175  1  0.50936300  0.03309000  0.61379000  1
  C  176  1  0.50969000  0.03259900  0.59331800  1
  C  177  1  0.50902900  0.01659500  0.64610200  1
  C  178  1  0.49768700  0.03078800  0.65583900  1
  C  179  1  0.49791000  0.03264200  0.67622000  1
  C  180  1  0.50923500  0.02013500  0.68795700  1
  C  181  1  0.52006800  0.00544000  0.67849200  1
  C  182  1  0.51994400  0.00374100  0.65800600  1
  C  183  1  0.43904100  0.01474500  0.51074000  1
  C  184  1  0.42799900  0.99750400  0.51239100  1
  C  185  1  0.42897700  0.03251400  0.50877300  1
  C  186  1  0.40850600  0.03297500  0.50832100  1
  C  187  1  0.39718200  0.01577100  0.50973400  1
  C  188  1  0.40749000  0.99804000  0.51191800  1
  C  189  1  0.37620900  0.01646900  0.50901300  1
  C  190  1  0.36433500  0.00436400  0.52078200  1
  C  191  1  0.34385300  0.00606100  0.52081900  1
  C  192  1  0.33437800  0.01998100  0.50902200  1
  C  193  1  0.34607900  0.03173400  0.49688800  1
  C  194  1  0.36645900  0.02987900  0.49676600  1
  C  237  1  0.52300300  0.01404400  0.31487400  1
  C  238  1  0.70753700  0.01413000  0.52300500  1
  C  239  1  0.51059000  0.02379600  0.70785400  1
  C  240  1  0.31451200  0.02374200  0.51024200  1
  C  245  1  0.47471100  0.46100400  0.01536300  1
  C  246  1  0.46061600  0.47529100  0.01567800  1
  C  247  1  0.46977500  0.49340800  0.01494100  1
  C  249  1  0.49292600  0.46995600  0.01462900  1
  C  250  1  0.51105500  0.45988800  0.01436000  1
  C  251  1  0.52953000  0.46919600  0.01430300  1
  C  253  1  0.55281600  0.49215200  0.01445000  1
  C  254  1  0.56186300  0.47397800  0.01463000  1
  C  255  1  0.54756500  0.45988500  0.01456200  1
  C  256  1  0.56239300  0.51049200  0.01438500  1
  C  257  1  0.55260100  0.52877100  0.01438400  1
  C  259  1  0.52948900  0.55228000  0.01475000  1
  C  260  1  0.54774400  0.56117000  0.01401800  1
  C  261  1  0.56182400  0.54685400  0.01388700  1
  C  262  1  0.51135700  0.56238500  0.01506700  1
  C  263  1  0.49289100  0.55301700  0.01513700  1
  C  265  1  0.46957400  0.53001900  0.01511800  1
  C  266  1  0.46054900  0.54820300  0.01531700  1
  C  267  1  0.47483800  0.56229300  0.01552300  1
  C  268  1  0.45994800  0.51167800  0.01511300  1
  C  269  1  0.43906000  0.51164100  0.01564700  1
  C  270  1  0.42894900  0.51634900  0.03289800  1
  C  271  1  0.40846800  0.51685700  0.03329600  1
  C  272  1  0.39721700  0.51248100  0.01658000  1
  C  273  1  0.40748400  0.50736600  0.99945600  1
  C  274  1  0.42798800  0.50704500  0.99895200  1
  C  275  1  0.37634200  0.51411700  0.01676700  1
  C  276  1  0.36409900  0.50047900  0.00730900  1
  C  277  1  0.34368900  0.50281100  0.00688800  1
  C  278  1  0.33469100  0.51901600  0.01581000  1
  C  279  1  0.34684900  0.53259000  0.02533900  1
  C  280  1  0.36716200  0.53012300  0.02591400  1
  C  281  1  0.51167300  0.58328000  0.01549100  1
  C  282  1  0.51678200  0.59336000  0.03264600  1
  C  283  1  0.51739600  0.61383900  0.03305400  1
  C  284  1  0.51275700  0.62513900  0.01644000  1
  C  285  1  0.50732100  0.61490300  0.99939300  1
  C  286  1  0.50689700  0.59439900  0.99887600  1
  C  287  1  0.51437300  0.64602400  0.01665600  1
  C  288  1  0.53046900  0.65521300  0.02563600  1
  C  289  1  0.53287800  0.67553700  0.02511600  1
  C  290  1  0.51916400  0.68771100  0.01580500  1
  C  291  1  0.50285400  0.67870600  0.00707800  1
  C  292  1  0.50058500  0.65828400  0.00743400  1
  C  293  1  0.58324700  0.51047500  0.01474300  1
  C  294  1  0.59428100  0.51110100  0.99743000  1
  C  295  1  0.61479700  0.51075800  0.99799400  1
  C  296  1  0.62512000  0.50969400  0.01582100  1
  C  297  1  0.61379300  0.50930600  0.03307800  1
  C  298  1  0.59332100  0.50963300  0.03259400  1
  C  299  1  0.64610000  0.50903300  0.01656800  1
  C  300  1  0.65584800  0.49764700  0.03071800  1
  C  301  1  0.67622700  0.49787900  0.03257000  1
  C  302  1  0.68795300  0.50926000  0.02010400  1
  C  303  1  0.67847400  0.52016200  0.00546900  1
  C  304  1  0.65799000  0.52001600  0.00376000  1
  C  305  1  0.51074000  0.43903900  0.01477200  1
  C  306  1  0.51239400  0.42798800  0.99753700  1
  C  307  1  0.50877300  0.42898300  0.03254600  1
  C  308  1  0.50831900  0.40851200  0.03301500  1
  C  309  1  0.50974400  0.39717700  0.01581900  1
  C  310  1  0.51193900  0.40748000  0.99808500  1
  C  311  1  0.50903300  0.37620400  0.01652800  1
  C  312  1  0.52079900  0.36432400  0.00442200  1
  C  313  1  0.52085600  0.34384600  0.00614300  1
  C  314  1  0.50905200  0.33437100  0.02005800  1
  C  315  1  0.49691800  0.34607600  0.03180800  1
  C  316  1  0.49679200  0.36645700  0.02994400  1
  C  359  1  0.31488300  0.52298200  0.01403100  1
  C  360  1  0.52306700  0.70754700  0.01407300  1
  C  361  1  0.70783800  0.51066400  0.02379700  1
  C  362  1  0.51028000  0.31450600  0.02383800  1
  C  367  1  0.51506900  0.97486300  0.96114500  1
  C  368  1  0.51533300  0.96069900  0.97536400  1
  C  369  1  0.51513900  0.96979600  0.99352100  1
  C  371  1  0.51496200  0.99306100  0.97017000  1
  C  372  1  0.51486700  0.01125200  0.96019100  1
  C  373  1  0.51484900  0.02967200  0.96961600  1
  C  375  1  0.51492100  0.05282800  0.99270900  1
  C  376  1  0.51507800  0.06197700  0.97458700  1
  C  377  1  0.51516000  0.04776700  0.96041800  1
  C  378  1  0.51485100  0.06231200  0.01110100  1
  C  379  1  0.51479900  0.05243200  0.02932400  1
  C  381  1  0.51506900  0.02920000  0.05267200  1
  C  382  1  0.51475000  0.04740200  0.06169000  1
  C  383  1  0.51474000  0.06155700  0.04746700  1
  C  384  1  0.51528300  0.01101500  0.06265100  1
  C  385  1  0.51531700  0.99259500  0.05322400  1
  C  387  1  0.51537500  0.96940900  0.03013700  1
  C  388  1  0.51551600  0.96029300  0.04827900  1
  C  389  1  0.51564800  0.97451300  0.06243500  1
  C  390  1  0.51534100  0.95989500  0.01174700  1
  C  391  1  0.51578600  0.93902300  0.01165600  1
  C  392  1  0.53307100  0.92886700  0.01612200  1
  C  393  1  0.53336400  0.90839700  0.01678900  1
  C  394  1  0.51649200  0.89722200  0.01285200  1
  C  395  1  0.49932500  0.90753300  0.00797500  1
  C  396  1  0.49893100  0.92803300  0.00748900  1
  C  397  1  0.51661300  0.87637200  0.01461600  1
  C  398  1  0.50689200  0.86412600  0.00117800  1
  C  399  1  0.50657100  0.84372500  0.00351400  1
  C  400  1  0.51584600  0.83474000  0.01953000  1
  C  401  1  0.52558800  0.84691100  0.03293900  1
  C  402  1  0.52604300  0.86722700  0.03047700  1
  C  403  1  0.51570200  0.01124700  0.08351300  1
  C  404  1  0.53295300  0.01597600  0.09360200  1
  C  405  1  0.53327600  0.01675800  0.11406700  1
  C  406  1  0.51646800  0.01268400  0.12528800  1
  C  407  1  0.49932500  0.00759700  0.11503900  1
  C  408  1  0.49890200  0.00698600  0.09454900  1
  C  409  1  0.51662200  0.01448700  0.14612600  1
  C  410  1  0.52592700  0.03044700  0.15522500  1
  C  411  1  0.52550500  0.03292200  0.17553600  1
  C  412  1  0.51593700  0.01942100  0.18774500  1
  C  413  1  0.50679300  0.00330500  0.17880300  1
  C  414  1  0.50707800  0.00095600  0.15840600  1
  C  415  1  0.51520200  0.08315900  0.01122800  1
  C  416  1  0.49814500  0.09410100  0.01460100  1
  C  417  1  0.49857800  0.11460400  0.01436200  1
  C  418  1  0.51600700  0.12494900  0.01060400  1
  C  419  1  0.53306800  0.11378200  0.00751100  1
  C  420  1  0.53271800  0.09331200  0.00784700  1
  C  421  1  0.51632800  0.14583200  0.00920400  1
  C  422  1  0.52719400  0.15517000  0.99442100  1
  C  423  1  0.52743600  0.17553600  0.99254000  1
  C  424  1  0.51687900  0.18765200  0.00539800  1
  C  425  1  0.50597800  0.17842100  0.02022700  1
  C  426  1  0.50568000  0.15796000  0.02203500  1
  C  427  1  0.51520500  0.01107900  0.93932500  1
  C  428  1  0.49830200  0.01507200  0.92834300  1
  C  429  1  0.53257400  0.00698200  0.92917700  1
  C  430  1  0.53291200  0.00653000  0.90870500  1
  C  431  1  0.51599800  0.01027100  0.89751000  1
  C  432  1  0.49873500  0.01476200  0.90783700  1
  C  433  1  0.51627900  0.00883400  0.87662300  1
  C  434  1  0.50620900  0.02209600  0.86446200  1
  C  435  1  0.50648800  0.02028300  0.84399900  1
  C  436  1  0.51677700  0.00501000  0.83478300  1
  C  437  1  0.52674100  0.99171600  0.84693900  1
  C  438  1  0.52653000  0.99360600  0.86730700  1
  C  481  1  0.51446500  0.81486300  0.02330200  1
  C  482  1  0.51457500  0.02319000  0.20762000  1
  C  483  1  0.51699100  0.20777000  0.00239000  1
  C  484  1  0.51687500  0.00202900  0.81465000  1
  C  489  1  0.96114200  0.51502400  0.97517400  1
  C  490  1  0.97536000  0.51529800  0.96101100  1
  C  491  1  0.99351700  0.51512000  0.97010900  1
  C  493  1  0.97016800  0.51494600  0.99337200  1
  C  494  1  0.96019100  0.51487000  0.01156500  1
  C  495  1  0.96961600  0.51485700  0.02998400  1
  C  497  1  0.99270900  0.51492400  0.05314300  1
  C  498  1  0.97458700  0.51508400  0.06228900  1
  C  499  1  0.96041800  0.51516700  0.04807800  1
  C  500  1  0.01110100  0.51485000  0.06262800  1
  C  501  1  0.02932400  0.51480200  0.05274400  1
  C  503  1  0.05267000  0.51506200  0.02950700  1
  C  504  1  0.06169000  0.51475700  0.04770700  1
  C  505  1  0.04746900  0.51474500  0.06186500  1
  C  506  1  0.06264600  0.51527900  0.01132100  1
  C  507  1  0.05322000  0.51531800  0.99290100  1
  C  509  1  0.03013200  0.51538500  0.96972100  1
  C  510  1  0.04827300  0.51553300  0.96060000  1
  C  511  1  0.06243000  0.51566700  0.97481800  1
  C  512  1  0.01174200  0.51534600  0.96020900  1
  C  513  1  0.01164800  0.51578600  0.93933800  1
  C  514  1  0.01609000  0.53307700  0.92918300  1
  C  515  1  0.01675900  0.53336700  0.90871200  1
  C  516  1  0.01285000  0.51648500  0.89754300  1
  C  517  1  0.00798500  0.49931500  0.90785600  1
  C  518  1  0.00751500  0.49892000  0.92835300  1
  C  519  1  0.01462100  0.51660100  0.87669800  1
  C  520  1  0.00119100  0.50686700  0.86445300  1
  C  521  1  0.00353600  0.50653800  0.84405500  1
  C  522  1  0.01953800  0.51583800  0.83507300  1
  C  523  1  0.03294500  0.52558400  0.84724400  1
  C  524  1  0.03046800  0.52605800  0.86755500  1
  C  525  1  0.08350800  0.51569600  0.01154600  1
  C  526  1  0.09360000  0.53295200  0.01624800  1
  C  527  1  0.11406600  0.53327900  0.01700200  1
  C  528  1  0.12528400  0.51647100  0.01291400  1
  C  529  1  0.11503200  0.49932500  0.00785000  1
  C  530  1  0.09454000  0.49889500  0.00727400  1
  C  531  1  0.14612600  0.51663500  0.01467700  1
  C  532  1  0.15524700  0.52594300  0.03062200  1
  C  533  1  0.17556200  0.52552400  0.03306700  1
  C  534  1  0.18775100  0.51595000  0.01955200  1
  C  535  1  0.17878400  0.50679200  0.00345700  1
  C  536  1  0.15838600  0.50708100  0.00113500  1
  C  537  1  0.01123200  0.51520500  0.08347700  1
  C  538  1  0.01463900  0.49815700  0.09442300  1
  C  539  1  0.01441800  0.49859300  0.11492800  1
  C  540  1  0.01060700  0.51601000  0.12527300  1
  C  541  1  0.00747600  0.53306400  0.11410300  1
  C  542  1  0.00781300  0.53271300  0.09363200  1
  C  543  1  0.00920100  0.51632700  0.14615800  1
  C  544  1  0.99439300  0.52716100  0.15549700  1
  C  545  1  0.99252000  0.52741200  0.17586300  1
  C  546  1  0.00539500  0.51688000  0.18798500  1
  C  547  1  0.02024800  0.50601100  0.17875200  1
  C  548  1  0.02205300  0.50570900  0.15829200  1
  C  549  1  0.93932700  0.51521000  0.01138600  1
  C  550  1  0.92834000  0.49830600  0.01536500  1
  C  551  1  0.92918100  0.53257700  0.00726500  1
  C  552  1  0.90871100  0.53291200  0.00678000  1
  C  553  1  0.89751300  0.51599500  0.01050200  1
  C  554  1  0.90783600  0.49873500  0.01501500  1
  C  555  1  0.87662900  0.51627300  0.00903300  1
  C  556  1  0.86445100  0.50620600  0.02227900  1
  C  557  1  0.84399000  0.50648400  0.02043400  1
  C  558  1  0.83479700  0.51676400  0.00514200  1
  C  559  1  0.84697100  0.52672300  0.99186300  1
  C  560  1  0.86733600  0.52651600  0.99378400  1
  C  603  1  0.02332300  0.51444700  0.81520200  1
  C  604  1  0.20763200  0.51459300  0.02329400  1
  C  605  1  0.00239800  0.51700800  0.20810700  1
  C  606  1  0.81466700  0.51686000  0.00213200  1
  C  611  1  0.97477400  0.96113500  0.51528300  1
  C  612  1  0.96063800  0.97538300  0.51556900  1
  C  613  1  0.96975100  0.99351700  0.51474500  1
  C  615  1  0.99296600  0.97013300  0.51450000  1
  C  616  1  0.01113500  0.96013800  0.51411300  1
  C  617  1  0.02958000  0.96949700  0.51389400  1
  C  619  1  0.05280800  0.99250800  0.51402100  1
  C  620  1  0.06189900  0.97435900  0.51374500  1
  C  621  1  0.04764200  0.96023200  0.51376700  1
  C  622  1  0.06234000  0.01087400  0.51423100  1
  C  623  1  0.05250300  0.02911600  0.51445300  1
  C  625  1  0.02932000  0.05248600  0.51461200  1
  C  626  1  0.04752000  0.06148500  0.51519300  1
  C  627  1  0.06165200  0.04723500  0.51518900  1
  C  628  1  0.01115500  0.06247100  0.51445800  1
  C  629  1  0.99270600  0.05312200  0.51430900  1
  C  631  1  0.96944600  0.03012600  0.51447100  1
  C  632  1  0.96039400  0.04829900  0.51409700  1
  C  633  1  0.97466500  0.06241200  0.51411300  1
  C  634  1  0.95988500  0.01176200  0.51471300  1
  C  635  1  0.93901600  0.01171800  0.51523100  1
  C  636  1  0.92893000  0.01651500  0.53246600  1
  C  637  1  0.90845900  0.01718200  0.53283000  1
  C  638  1  0.89721300  0.01293500  0.51607800  1
  C  639  1  0.90746200  0.00773300  0.49896800  1
  C  640  1  0.92795900  0.00721900  0.49850600  1
  C  641  1  0.87636200  0.01471800  0.51624700  1
  C  642  1  0.86407000  0.00116700  0.50674000  1
  C  643  1  0.84367000  0.00351100  0.50645900  1
  C  644  1  0.83472200  0.01963300  0.51558700  1
  C  645  1  0.84693800  0.03315200  0.52512200  1
  C  646  1  0.86725300  0.03068700  0.52552900  1
  C  647  1  0.01144600  0.08329900  0.51500000  1
  C  648  1  0.01351700  0.09321600  0.53284100  1
  C  649  1  0.01413500  0.11367300  0.53343900  1
  C  650  1  0.01278200  0.12509700  0.51630300  1
  C  651  1  0.01047800  0.11493900  0.49850100  1
  C  652  1  0.00986900  0.09444600  0.49782500  1
  C  653  1  0.01371100  0.14603400  0.51710700  1
  C  654  1  0.02619000  0.15561900  0.53042400  1
  C  655  1  0.02637700  0.17600500  0.53223800  1
  C  656  1  0.01434000  0.18782800  0.52051600  1
  C  657  1  0.00221200  0.17849400  0.50678800  1
  C  658  1  0.00193700  0.15802700  0.50513900  1
  C  659  1  0.08318200  0.01095900  0.51466200  1
  C  660  1  0.09418000  0.01466900  0.49771300  1
  C  661  1  0.11468100  0.01442300  0.49821200  1
  C  662  1  0.12496800  0.01034100  0.51560300  1
  C  663  1  0.11374000  0.00694300  0.53256800  1
  C  664  1  0.09327100  0.00726400  0.53214900  1
  C  665  1  0.14585100  0.00893100  0.51596600  1
  C  666  1  0.15516200  0.99401100  0.52666800  1
  C  667  1  0.17552700  0.99214800  0.52697300  1
  C  668  1  0.18767400  0.00514000  0.51661900  1
  C  669  1  0.17847200  0.02010300  0.50587500  1
  C  670  1  0.15801300  0.02190100  0.50552600  1
  C  671  1  0.01091500  0.93929600  0.51459400  1
  C  672  1  0.01322000  0.92817900  0.49747500  1
  C  673  1  0.00857400  0.92932500  0.53237300  1
  C  674  1  0.00830300  0.90886000  0.53295000  1
  C  675  1  0.01034400  0.89747900  0.51585700  1
  C  676  1  0.01297500  0.90767400  0.49812800  1
  C  677  1  0.00953100  0.87654500  0.51661500  1
  C  678  1  0.02181800  0.86457000  0.50516300  1
  C  679  1  0.02134400  0.84408300  0.50665700  1
  C  680  1  0.00846900  0.83465700  0.51966100  1
  C  681  1  0.99594100  0.84656100  0.53081900  1
  C  682  1  0.99639500  0.86695200  0.52925000  1
  C  725  1  0.81483700  0.02339700  0.51425100  1
  C  726  1  0.01345900  0.20773200  0.52406400  1
  C  727  1  0.20779700  0.00217400  0.51680500  1
  C  728  1  0.00837200  0.81456600  0.52272300  1
  C  733  1  0.01181400  0.51061700  0.28214900  1
  C  734  1  0.99694700  0.50194300  0.27085800  1
  C  735  1  0.99776100  0.50222200  0.25014200  1
  C  736  1  0.01340200  0.51132400  0.24028700  1
  C  737  1  0.02829400  0.51970500  0.25162100  1
  C  738  1  0.02741200  0.51957500  0.27209900  1
  C  740  1  0.96795500  0.48441800  0.24881700  1
  C  741  1  0.96725200  0.48381200  0.26923500  1
  C  747  1  0.95522900  0.45461600  0.28170700  1
  C  753  1  0.01453800  0.51161200  0.74087000  1
  C  754  1  0.02392400  0.49753300  0.75260800  1
  C  755  1  0.02263600  0.49834600  0.77328800  1
  C  756  1  0.01209300  0.51336000  0.78265400  1
  C  757  1  0.00238800  0.52704800  0.77087500  1
  C  758  1  0.00362000  0.52623800  0.75043300  1
  C  760  1  0.04162300  0.46935900  0.77555000  1
  C  761  1  0.04349900  0.46882800  0.75519500  1
  C  767  1  0.07378100  0.45661000  0.74558000  1
  C  773  1  0.28180900  0.01171400  0.51051600  1
  C  774  1  0.27056400  0.99682100  0.50182800  1
  C  775  1  0.24984900  0.99759700  0.50207500  1
  C  776  1  0.23995700  0.01322600  0.51115800  1
  C  777  1  0.25124800  0.02814100  0.51955600  1
  C  778  1  0.27172400  0.02729600  0.51945900  1
  C  780  1  0.24860700  0.96778400  0.48427900  1
  C  781  1  0.26902700  0.96711900  0.48370500  1
  C  787  1  0.28159200  0.95512600  0.45453600  1
  C  793  1  0.74048700  0.01457600  0.51152300  1
  C  794  1  0.75220500  0.02398600  0.49744300  1
  C  795  1  0.77288800  0.02271000  0.49822900  1
  C  796  1  0.78228400  0.01215800  0.51321900  1
  C  797  1  0.77052500  0.00242800  0.52690800  1
  C  798  1  0.75008000  0.00364900  0.52612500  1
  C  800  1  0.77510300  0.04172600  0.46925900  1
  C  801  1  0.75474900  0.04359500  0.46875700  1
  C  807  1  0.74516200  0.07389000  0.45653900  1
  C  813  1  0.51060600  0.28179000  0.01185100  1
  C  814  1  0.50193000  0.27051400  0.99697300  1
  C  815  1  0.50220600  0.24979900  0.99777600  1
  C  816  1  0.51130600  0.23993700  0.01341300  1
  C  817  1  0.51969200  0.25125800  0.02831100  1
  C  818  1  0.51956500  0.27173600  0.02744200  1
  C  820  1  0.48440500  0.24849900  0.96796600  1
  C  821  1  0.48380600  0.26891600  0.96727600  1
  C  827  1  0.45462200  0.28143400  0.95526900  1
  C  833  1  0.51162200  0.74051200  0.01450400  1
  C  834  1  0.49755500  0.75225500  0.02390500  1
  C  835  1  0.49836900  0.77293600  0.02262200  1
  C  836  1  0.51337500  0.78230700  0.01207100  1
  C  837  1  0.52705100  0.77052500  0.00235100  1
  C  838  1  0.52623800  0.75008300  0.00357800  1
  C  840  1  0.46939700  0.77519800  0.04162800  1
  C  841  1  0.46886500  0.75484300  0.04350300  1
  C  847  1  0.45661500  0.74528800  0.07379600  1
  C  853  1  0.51066100  0.01172900  0.74057300  1
  C  854  1  0.50186500  0.99689800  0.75181700  1
  C  855  1  0.50216100  0.99763300  0.77253800  1
  C  856  1  0.51140100  0.01316000  0.78245100  1
  C  857  1  0.51991400  0.02801000  0.77116000  1
  C  858  1  0.51976900  0.02720400  0.75067900  1
  C  860  1  0.48410600  0.96797500  0.77375500  1
  C  861  1  0.48349000  0.96735000  0.75333500  1
  C  867  1  0.45418900  0.95550100  0.74092200  1
  C  873  1  0.51158700  0.01440800  0.28191800  1
  C  874  1  0.49753900  0.02381200  0.27015800  1
  C  875  1  0.49838200  0.02250900  0.24948000  1
  C  876  1  0.51339600  0.01194300  0.24014600  1
  C  877  1  0.52705200  0.00221700  0.25194500  1
  C  878  1  0.52621000  0.00346000  0.27238400  1
  C  880  1  0.46942600  0.04153400  0.24715800  1
  C  881  1  0.46887200  0.04343400  0.26750900  1
  C  887  1  0.45660500  0.07375800  0.27695400  1
  C  893  1  0.01152900  0.28189100  0.51403500  1
  C  894  1  0.99738500  0.27055600  0.52381100  1
  C  895  1  0.99784400  0.24984800  0.52288300  1
  C  896  1  0.01255600  0.24005600  0.51231400  1
  C  897  1  0.02634500  0.25142800  0.50227000  1
  C  898  1  0.02589500  0.27189900  0.50315800  1
  C  900  1  0.96904300  0.24840000  0.54222500  1
  C  901  1  0.96886900  0.26879300  0.54375500  1
  C  907  1  0.95677100  0.27883500  0.57397200  1
  C  913  1  0.01511400  0.74055300  0.51332700  1
  C  914  1  0.02366000  0.75182900  0.52828300  1
  C  915  1  0.02334800  0.77255000  0.52751600  1
  C  916  1  0.01436300  0.78242500  0.51182100  1
  C  917  1  0.00608800  0.77110900  0.49685900  1
  C  918  1  0.00622800  0.75063300  0.49770500  1
  C  920  1  0.04091000  0.77384200  0.55746000  1
  C  921  1  0.04156100  0.75342300  0.55811700  1
  C  927  1  0.07070400  0.74099500  0.57032100  1
  C  933  1  0.28191500  0.51158800  0.01445700  1
  C  934  1  0.27015800  0.49754000  0.02386400  1
  C  935  1  0.24948000  0.49838200  0.02257100  1
  C  936  1  0.24014200  0.51339600  0.01200800  1
  C  937  1  0.25193700  0.52705600  0.00228400  1
  C  938  1  0.27237400  0.52621600  0.00352000  1
  C  940  1  0.24716600  0.46942300  0.04159200  1
  C  941  1  0.26751900  0.46887200  0.04349000  1
  C  947  1  0.27702100  0.45660500  0.07379100  1
  C  953  1  0.74057900  0.51065200  0.01177300  1
  C  954  1  0.75183600  0.50185700  0.99695000  1
  C  955  1  0.77255500  0.50215700  0.99770000  1
  C  956  1  0.78245700  0.51139800  0.01323200  1
  C  957  1  0.77115400  0.51990500  0.02807700  1
  C  958  1  0.75067300  0.51976000  0.02725500  1
  C  960  1  0.77379500  0.48410400  0.96803900  1
  C  961  1  0.75337700  0.48348400  0.96740200  1
  C  967  1  0.74099000  0.45417100  0.95555200  1
  N  4  1  0.01440800  0.48914100  0.48976400  1
  N  8  1  0.01478500  0.53352700  0.48895800  1
  N  14  1  0.01507100  0.53329500  0.53335100  1
  N  20  1  0.01472700  0.48894500  0.53417300  1
  N  126  1  0.48933600  0.01431600  0.48909700  1
  N  130  1  0.48848200  0.01424100  0.53347800  1
  N  136  1  0.53287900  0.01488800  0.53328200  1
  N  142  1  0.53371300  0.01494400  0.48891800  1
  N  248  1  0.48910000  0.48933800  0.01433100  1
  N  252  1  0.53347600  0.48848400  0.01425400  1
  N  258  1  0.53328000  0.53288500  0.01488300  1
  N  264  1  0.48892300  0.53372100  0.01494600  1
  N  370  1  0.51492700  0.98914800  0.98953600  1
  N  374  1  0.51474500  0.03351000  0.98892500  1
  N  380  1  0.51499500  0.03308800  0.03330700  1
  N  386  1  0.51519400  0.98873400  0.03391500  1
  N  492  1  0.98953400  0.51491800  0.98945900  1
  N  496  1  0.98892500  0.51475000  0.03382300  1
  N  502  1  0.03330500  0.51498700  0.03339900  1
  N  508  1  0.03391100  0.51519300  0.98904300  1
  N  614  1  0.98908500  0.98950000  0.51415400  1
  N  618  1  0.03347700  0.98879000  0.51407800  1
  N  624  1  0.03316900  0.03312600  0.51414600  1
  N  630  1  0.98878300  0.03383100  0.51454000  1
  N  739  1  0.98317400  0.49338500  0.24013300  1
  N  742  1  0.98164300  0.49272700  0.27939700  1
  N  751  1  0.01048300  0.51011700  0.30166500  1
  N  752  1  0.01512600  0.51181700  0.22085700  1
  N  759  1  0.03143600  0.48406700  0.78375600  1
  N  762  1  0.03434000  0.48272900  0.74457300  1
  N  771  1  0.01560200  0.51009900  0.72138900  1
  N  772  1  0.01002700  0.51462600  0.80199700  1
  N  779  1  0.23988000  0.98299100  0.49322500  1
  N  782  1  0.27914900  0.98153200  0.49263100  1
  N  791  1  0.30132200  0.01042800  0.51003900  1
  N  792  1  0.22053000  0.01491800  0.51161300  1
  N  799  1  0.78333500  0.03152900  0.48394600  1
  N  802  1  0.74414900  0.03441500  0.48266100  1
  N  811  1  0.72099800  0.01562800  0.51003500  1
  N  812  1  0.80163200  0.01009800  0.51444900  1
  N  819  1  0.49336600  0.23980200  0.98318100  1
  N  822  1  0.49271900  0.27906700  0.98167500  1
  N  831  1  0.51010900  0.30130100  0.01053900  1
  N  832  1  0.51180500  0.22051100  0.01512800  1
  N  839  1  0.48409700  0.78340400  0.03143400  1
  N  842  1  0.48275700  0.74422100  0.03433100  1
  N  851  1  0.51011000  0.72102400  0.01556700  1
  N  852  1  0.51463800  0.80165400  0.01000700  1
  N  859  1  0.49320000  0.98308500  0.78249300  1
  N  862  1  0.49252000  0.98170400  0.74322400  1
  N  871  1  0.51010400  0.01048800  0.72104800  1
  N  872  1  0.51190500  0.01483800  0.80189000  1
  N  879  1  0.48413100  0.03132000  0.23898300  1
  N  882  1  0.48274100  0.03426100  0.27816000  1
  N  891  1  0.51004800  0.01547600  0.30139600  1
  N  892  1  0.51467700  0.00987700  0.22080900  1
  N  899  1  0.98349700  0.23977100  0.53202300  1
  N  902  1  0.98283100  0.27901500  0.53424100  1
  N  911  1  0.01027600  0.30140300  0.51470200  1
  N  912  1  0.01337100  0.22066900  0.51051300  1
  N  919  1  0.03204600  0.78255000  0.54219300  1
  N  922  1  0.03278000  0.74327400  0.54363500  1
  N  931  1  0.01567000  0.72102500  0.51458700  1
  N  932  1  0.01388800  0.80185200  0.51010000  1
  N  939  1  0.23898800  0.48412900  0.03138200  1
  N  942  1  0.27816500  0.48274100  0.03430800  1
  N  951  1  0.30139100  0.51004800  0.01552800  1
  N  952  1  0.22080200  0.51468100  0.00996200  1
  N  959  1  0.78252200  0.49319700  0.98315800  1
  N  962  1  0.74325500  0.49251000  0.98175000  1
  N  971  1  0.72105400  0.51008800  0.01051500  1
  N  972  1  0.80189300  0.51189900  0.01493000  1
  O  746  1  0.95221900  0.47509600  0.27880900  1
  O  766  1  0.05304500  0.45405200  0.74600200  1
  O  786  1  0.27864100  0.95210000  0.47500600  1
  O  806  1  0.74552800  0.05315000  0.45400100  1
  O  826  1  0.47509400  0.27850200  0.95224500  1
  O  846  1  0.45409100  0.74564700  0.05305400  1
  O  866  1  0.47467300  0.95241200  0.74369900  1
  O  886  1  0.45409900  0.05301200  0.27667900  1
  O  906  1  0.95432100  0.27842800  0.55322000  1
  O  926  1  0.05019600  0.74383200  0.57318800  1
  O  946  1  0.27668900  0.45408700  0.05304700  1
  O  966  1  0.74375300  0.47465700  0.95246200  1
