# generated using pymatgen
data_H11C20(N2O)2
_symmetry_space_group_name_H-M   'P 1'
_cell_length_a   51.61290000
_cell_length_b   60.52640000
_cell_length_c   70.26200000
_cell_angle_alpha   90.00000000
_cell_angle_beta   90.02390000
_cell_angle_gamma   89.97220000
_symmetry_Int_Tables_number   1
_chemical_formula_structural   H11C20(N2O)2
_chemical_formula_sum   'H704 C1280 N256 O128'
_cell_volume   219494.44028037
_cell_formula_units_Z   64
loop_
 _symmetry_equiv_pos_site_id
 _symmetry_equiv_pos_as_xyz
  1  'x, y, z'
loop_
 _atom_site_type_symbol
 _atom_site_label
 _atom_site_symmetry_multiplicity
 _atom_site_fract_x
 _atom_site_fract_y
 _atom_site_fract_z
 _atom_site_occupancy
  H  7  1  0.90835500  0.11703300  0.10628000  1
  H  16  1  0.91622200  0.14081200  0.16174000  1
  H  19  1  0.85441000  0.12830400  0.16144600  1
  H  20  1  0.88507400  0.07570000  0.13000200  1
  H  21  1  0.82633500  0.15393800  0.09282700  1
  H  22  1  0.98155900  0.08594300  0.17028500  1
  H  33  1  0.10097200  0.84779500  0.10709700  1
  H  42  1  0.09478800  0.82416400  0.16290400  1
  H  45  1  0.15595300  0.83735700  0.16185400  1
  H  46  1  0.12302600  0.88953200  0.12991000  1
  H  47  1  0.18344700  0.81183600  0.09316000  1
  H  48  1  0.05484700  0.89205000  0.18676400  1
  H  59  1  0.90982500  0.84683300  0.39609000  1
  H  68  1  0.91419800  0.82371500  0.33975100  1
  H  71  1  0.85369900  0.83679100  0.34200400  1
  H  72  1  0.88715200  0.88867300  0.37372400  1
  H  73  1  0.82770600  0.81071100  0.41079500  1
  H  74  1  0.95147900  0.89220200  0.31515600  1
  H  85  1  0.09946900  0.11770100  0.39522100  1
  H  94  1  0.09669800  0.14075900  0.33860000  1
  H  97  1  0.15642500  0.12692900  0.34155700  1
  H  98  1  0.12083100  0.07550800  0.37339500  1
  H  99  1  0.18204100  0.15286400  0.41044900  1
  H  100  1  0.05881500  0.07260200  0.31372300  1
  H  111  1  0.10097400  0.84786500  0.89596900  1
  H  120  1  0.09450100  0.82434900  0.84056100  1
  H  123  1  0.15667600  0.83652100  0.84175800  1
  H  124  1  0.12549600  0.88931400  0.87264600  1
  H  125  1  0.18141800  0.80940800  0.91095700  1
  H  126  1  0.02953900  0.87944600  0.83161400  1
  H  137  1  0.91001000  0.11705800  0.89517300  1
  H  146  1  0.91462000  0.14029900  0.83940400  1
  H  149  1  0.85310800  0.12736000  0.84145700  1
  H  150  1  0.88671300  0.07510200  0.87284800  1
  H  151  1  0.82911900  0.15456500  0.91070400  1
  H  152  1  0.95405200  0.07231500  0.81524000  1
  H  163  1  0.09958400  0.11784000  0.60693100  1
  H  172  1  0.09656000  0.14074400  0.66318800  1
  H  175  1  0.15732600  0.12798700  0.66008200  1
  H  176  1  0.12334600  0.07588500  0.62893700  1
  H  177  1  0.18010900  0.15553500  0.59078100  1
  H  178  1  0.05968800  0.07222600  0.68809900  1
  H  189  1  0.91148400  0.84701100  0.60778500  1
  H  198  1  0.91268400  0.82432100  0.66433500  1
  H  201  1  0.85269600  0.83791200  0.66039100  1
  H  202  1  0.88898300  0.88942300  0.62914400  1
  H  203  1  0.83052900  0.81026500  0.59102500  1
  H  204  1  0.95015400  0.89253500  0.68948800  1
  H  215  1  0.40961300  0.61921400  0.10596200  1
  H  224  1  0.41577300  0.64007500  0.16203900  1
  H  227  1  0.35329900  0.62530900  0.16027700  1
  H  228  1  0.38582900  0.57610000  0.12800700  1
  H  229  1  0.35035100  0.67784700  0.09222100  1
  H  230  1  0.48149500  0.58519000  0.16947800  1
  H  241  1  0.59959300  0.34537500  0.10682100  1
  H  250  1  0.59519400  0.32476500  0.16325900  1
  H  253  1  0.65690800  0.34021300  0.16066300  1
  H  254  1  0.62206100  0.38887400  0.12787400  1
  H  255  1  0.65962200  0.28746300  0.09273400  1
  H  256  1  0.55480200  0.39315800  0.18542900  1
  H  267  1  0.41083400  0.34482700  0.39636100  1
  H  276  1  0.41364200  0.32437500  0.33953000  1
  H  279  1  0.35266500  0.33958100  0.34310600  1
  H  280  1  0.38787400  0.38827200  0.37549900  1
  H  281  1  0.35141500  0.28671000  0.41103400  1
  H  282  1  0.45139500  0.39328500  0.31638900  1
  H  293  1  0.59836000  0.61991000  0.39545500  1
  H  302  1  0.59723300  0.64019500  0.33833100  1
  H  305  1  0.65732900  0.62425600  0.34267900  1
  H  306  1  0.61994800  0.57610700  0.37520300  1
  H  307  1  0.65855700  0.67729200  0.41051300  1
  H  308  1  0.55869600  0.57165200  0.31497800  1
  H  319  1  0.59951400  0.34563600  0.89616300  1
  H  328  1  0.59482900  0.32494000  0.84021200  1
  H  331  1  0.65768500  0.33926500  0.84292000  1
  H  332  1  0.62462200  0.38878900  0.87452400  1
  H  333  1  0.65657800  0.28593500  0.91072700  1
  H  334  1  0.52946300  0.38005200  0.83236300  1
  H  345  1  0.41114800  0.61911200  0.89533000  1
  H  354  1  0.41398400  0.63951700  0.83903400  1
  H  357  1  0.35191200  0.62450300  0.84261400  1
  H  358  1  0.38736500  0.57552800  0.87471400  1
  H  359  1  0.35339400  0.67817300  0.91021900  1
  H  360  1  0.45389500  0.57105300  0.81646800  1
  H  371  1  0.59835600  0.61989700  0.60677300  1
  H  380  1  0.59700100  0.64021600  0.66345400  1
  H  383  1  0.65825800  0.62542400  0.65897600  1
  H  384  1  0.62249700  0.57639900  0.62726100  1
  H  385  1  0.65560800  0.67906900  0.59132800  1
  H  386  1  0.55962300  0.57128800  0.68695700  1
  H  397  1  0.41239500  0.34514500  0.60766000  1
  H  406  1  0.41193900  0.32503900  0.66460200  1
  H  409  1  0.35157000  0.34059200  0.65929400  1
  H  410  1  0.38959100  0.38905800  0.62750700  1
  H  411  1  0.35443400  0.28663600  0.59183300  1
  H  412  1  0.45012600  0.39358800  0.68833900  1
  H  423  1  0.86929100  0.10839500  0.05179200  1
  H  428  1  0.92567100  0.15781800  0.04273400  1
  H  433  1  0.84685000  0.08563600  0.98966700  1
  H  434  1  0.84965500  0.08983700  0.02355500  1
  H  435  1  0.86117800  0.09690300  0.95713300  1
  H  436  1  0.91697500  0.14755600  0.95206800  1
  H  439  1  0.88739800  0.10475200  0.92609600  1
  H  440  1  0.91776100  0.13846900  0.07563700  1
  H  447  1  0.14061300  0.85696800  0.05250600  1
  H  452  1  0.08402700  0.80776200  0.04324000  1
  H  457  1  0.16412800  0.87915200  0.99045400  1
  H  458  1  0.16077400  0.87523500  0.02433800  1
  H  459  1  0.15019500  0.86771800  0.95786000  1
  H  460  1  0.09409900  0.81732700  0.95260400  1
  H  463  1  0.12449200  0.85987900  0.92670700  1
  H  464  1  0.09173200  0.82736200  0.07617800  1
  H  471  1  0.87129200  0.85612700  0.45088900  1
  H  476  1  0.92782500  0.80676000  0.45988000  1
  H  481  1  0.84895200  0.87884700  0.51302800  1
  H  482  1  0.85169400  0.87466500  0.47913800  1
  H  483  1  0.86335700  0.86756700  0.54554600  1
  H  484  1  0.91928100  0.81696300  0.55058000  1
  H  487  1  0.88963900  0.85967000  0.57659600  1
  H  488  1  0.91965900  0.82626400  0.42691300  1
  H  495  1  0.13855500  0.10788300  0.45017200  1
  H  500  1  0.08197100  0.15717100  0.45927400  1
  H  505  1  0.16200300  0.08582200  0.51228200  1
  H  506  1  0.15866100  0.08965000  0.47838800  1
  H  507  1  0.14809600  0.09738200  0.54483500  1
  H  508  1  0.09202000  0.14784800  0.54996100  1
  H  511  1  0.12254300  0.10541100  0.57599500  1
  H  512  1  0.08984600  0.13733200  0.42629700  1
  H  519  1  0.37013900  0.61200700  0.05180600  1
  H  524  1  0.42665000  0.66133900  0.04283600  1
  H  529  1  0.34761500  0.58933700  0.98974900  1
  H  530  1  0.35037200  0.59361000  0.02362500  1
  H  531  1  0.36219800  0.60031100  0.95725800  1
  H  532  1  0.41812300  0.65083600  0.95204800  1
  H  535  1  0.38904700  0.60755900  0.92645500  1
  H  536  1  0.41877800  0.64174900  0.07572300  1
  H  543  1  0.63947300  0.35316700  0.05256700  1
  H  548  1  0.58297200  0.30387500  0.04336900  1
  H  553  1  0.66293200  0.37539900  0.99059300  1
  H  554  1  0.65965900  0.37136700  0.02446400  1
  H  555  1  0.64878900  0.36423900  0.95803700  1
  H  556  1  0.59278600  0.31380300  0.95261300  1
  H  559  1  0.62260200  0.35693800  0.92710400  1
  H  560  1  0.59057000  0.32372700  0.07630300  1
  H  567  1  0.37183000  0.35261200  0.45089500  1
  H  572  1  0.42871200  0.30350700  0.45974600  1
  H  577  1  0.34943500  0.37518000  0.51299100  1
  H  578  1  0.35207800  0.37092900  0.47911100  1
  H  579  1  0.36421700  0.36425100  0.54545400  1
  H  580  1  0.42047300  0.31393400  0.55057300  1
  H  583  1  0.39149700  0.35703100  0.57623900  1
  H  584  1  0.42045300  0.32315800  0.42681400  1
  H  591  1  0.63775700  0.61154900  0.45013800  1
  H  596  1  0.58104200  0.66075100  0.45912100  1
  H  601  1  0.66114900  0.58951900  0.51219300  1
  H  602  1  0.65792900  0.59344900  0.47830800  1
  H  603  1  0.64692900  0.60075800  0.54469800  1
  H  604  1  0.59073500  0.65110800  0.54994100  1
  H  607  1  0.62061200  0.60817700  0.57562200  1
  H  608  1  0.58893400  0.64075800  0.42616900  1
  H  615  1  0.06492800  0.94430700  0.12568600  1
  H  620  1  0.99557900  0.92056200  0.14997400  1
  H  625  1  0.04699600  0.02012800  0.11510200  1
  H  626  1  0.06699400  0.98438900  0.11647500  1
  H  627  1  0.00946300  0.04462200  0.12244400  1
  H  628  1  0.94289700  0.01651300  0.14749800  1
  H  631  1  0.97565000  0.06842600  0.13340000  1
  H  632  1  0.03017500  0.89490600  0.13907200  1
  H  639  1  0.06459400  0.02093100  0.37357900  1
  H  644  1  0.99456400  0.04407700  0.34983900  1
  H  649  1  0.04816600  0.94482600  0.38370100  1
  H  650  1  0.06746200  0.98083500  0.38253400  1
  H  651  1  0.01104300  0.91990200  0.37628700  1
  H  652  1  0.94365500  0.94744900  0.35189700  1
  H  655  1  0.97824500  0.89587200  0.36346100  1
  H  656  1  0.02892200  0.07005600  0.35931900  1
  H  663  1  0.94497200  0.02019900  0.87650500  1
  H  668  1  0.01404500  0.04430600  0.85205500  1
  H  673  1  0.96354700  0.94450000  0.88714400  1
  H  674  1  0.94325600  0.98011900  0.88576300  1
  H  675  1  0.00125600  0.92021800  0.87976700  1
  H  676  1  0.06750800  0.94867900  0.85455500  1
  H  679  1  0.03520800  0.89660000  0.86875200  1
  H  680  1  0.97929200  0.06977400  0.86297400  1
  H  687  1  0.94532900  0.94410500  0.62950100  1
  H  692  1  0.01508100  0.92064700  0.65345700  1
  H  697  1  0.96233900  0.02010500  0.61932000  1
  H  698  1  0.94278300  0.98419900  0.62048900  1
  H  699  1  0.99961000  0.04485000  0.62678700  1
  H  700  1  0.06668500  0.01700000  0.65138600  1
  H  703  1  0.03250500  0.06872500  0.63971100  1
  H  704  1  0.98059600  0.89482900  0.64392800  1
  H  711  1  0.56489500  0.44404600  0.12452700  1
  H  716  1  0.49466800  0.42024700  0.14737400  1
  H  721  1  0.54769600  0.52005800  0.11438700  1
  H  722  1  0.56742000  0.48420600  0.11566900  1
  H  723  1  0.51015500  0.54463900  0.12150000  1
  H  724  1  0.44266600  0.51645100  0.14511100  1
  H  727  1  0.47631100  0.56844500  0.13247400  1
  H  728  1  0.52963800  0.39458400  0.13777400  1
  H  735  1  0.56456000  0.52114400  0.37465300  1
  H  740  1  0.49380700  0.54433400  0.35212900  1
  H  745  1  0.54872700  0.44489500  0.38439500  1
  H  746  1  0.56780300  0.48099200  0.38330800  1
  H  747  1  0.51159200  0.41990500  0.37717200  1
  H  748  1  0.44344500  0.44750900  0.35400200  1
  H  751  1  0.47871900  0.39593000  0.36429500  1
  H  752  1  0.52848200  0.57029700  0.36050900  1
  H  759  1  0.44475200  0.52023400  0.87757400  1
  H  764  1  0.51469000  0.54445200  0.85457300  1
  H  769  1  0.46267200  0.44435200  0.88778000  1
  H  770  1  0.44261600  0.48007200  0.88648600  1
  H  771  1  0.50041600  0.42001200  0.88063500  1
  H  772  1  0.56757200  0.44861400  0.85687500  1
  H  775  1  0.53445000  0.39642000  0.86964500  1
  H  776  1  0.47952400  0.56989700  0.86422900  1
  H  783  1  0.44514100  0.44408000  0.62851900  1
  H  788  1  0.51561500  0.42054200  0.65124700  1
  H  793  1  0.46160300  0.52022200  0.61870400  1
  H  794  1  0.44224200  0.48423600  0.61980100  1
  H  795  1  0.49890500  0.54501600  0.62597500  1
  H  796  1  0.56673500  0.51706300  0.64934200  1
  H  799  1  0.53191400  0.56882000  0.63891000  1
  H  800  1  0.48078600  0.39475800  0.64277700  1
  H  807  1  0.72786800  0.29483300  0.13196300  1
  H  812  1  0.68458800  0.23783500  0.14535200  1
  H  817  1  0.81379600  0.26873300  0.12855000  1
  H  818  1  0.77583300  0.29150300  0.12934700  1
  H  819  1  0.83383700  0.23147000  0.12999100  1
  H  820  1  0.78654000  0.17670400  0.14301300  1
  H  823  1  0.85077500  0.19508600  0.12586200  1
  H  824  1  0.66384800  0.27091000  0.13083600  1
  H  831  1  0.28240800  0.67068000  0.13204700  1
  H  836  1  0.32601100  0.72774800  0.14465700  1
  H  841  1  0.19646500  0.69683200  0.12925900  1
  H  842  1  0.23441300  0.67403600  0.12984800  1
  H  843  1  0.17649000  0.73411300  0.13065700  1
  H  844  1  0.22406800  0.78896000  0.14287500  1
  H  847  1  0.15952300  0.77046800  0.12642700  1
  H  848  1  0.34643100  0.69450900  0.13016400  1
  H  855  1  0.72780000  0.66989300  0.37129000  1
  H  860  1  0.68436000  0.72703800  0.35851200  1
  H  865  1  0.81374900  0.69595800  0.37451400  1
  H  866  1  0.77579400  0.67320700  0.37375000  1
  H  867  1  0.83376700  0.73322000  0.37318500  1
  H  868  1  0.78631100  0.78813100  0.36080100  1
  H  871  1  0.85091000  0.76952700  0.37717100  1
  H  872  1  0.66354600  0.69380500  0.37234100  1
  H  879  1  0.28238300  0.29393600  0.37123500  1
  H  884  1  0.32608600  0.23673300  0.35918300  1
  H  889  1  0.19642500  0.26783200  0.37383800  1
  H  890  1  0.23436900  0.29060500  0.37328700  1
  H  891  1  0.17645900  0.23055800  0.37252600  1
  H  892  1  0.22413800  0.17557500  0.36088900  1
  H  895  1  0.15926900  0.19428500  0.37655000  1
  H  896  1  0.34664300  0.27011100  0.37301200  1
  H  903  1  0.28272900  0.67017600  0.87183500  1
  H  908  1  0.32547800  0.72739800  0.85823600  1
  H  913  1  0.19657400  0.69574100  0.87529200  1
  H  914  1  0.23474800  0.67322400  0.87456100  1
  H  915  1  0.17615800  0.73284600  0.87363800  1
  H  916  1  0.22292600  0.78785500  0.86034200  1
  H  919  1  0.15870500  0.76913500  0.87731300  1
  H  920  1  0.34663400  0.69437200  0.87259500  1
  H  927  1  0.72688500  0.29374700  0.87169300  1
  H  932  1  0.68392400  0.23636600  0.85895000  1
  H  937  1  0.81311000  0.26827400  0.87452800  1
  H  938  1  0.77490200  0.29075500  0.87399100  1
  H  939  1  0.83353700  0.23117800  0.87294500  1
  H  940  1  0.78660200  0.17599000  0.86052900  1
  H  943  1  0.85111600  0.19495700  0.87672100  1
  H  944  1  0.66303200  0.26955100  0.87327800  1
  H  951  1  0.28281100  0.29468900  0.63022700  1
  H  956  1  0.32572400  0.23730600  0.64317200  1
  H  961  1  0.19662700  0.26917200  0.62700200  1
  H  962  1  0.23479600  0.29166700  0.62769000  1
  H  963  1  0.17623400  0.23206600  0.62853000  1
  H  964  1  0.22316900  0.17689700  0.64114100  1
  H  967  1  0.15860100  0.19585100  0.62495100  1
  H  968  1  0.34694400  0.27048400  0.62949700  1
  H  975  1  0.72692600  0.67119000  0.63037900  1
  H  980  1  0.68385700  0.72872500  0.64248400  1
  H  985  1  0.81317300  0.69660300  0.62776200  1
  H  986  1  0.77496700  0.67414900  0.62826100  1
  H  987  1  0.83359100  0.73369600  0.62922300  1
  H  988  1  0.78654500  0.78904000  0.64097600  1
  H  991  1  0.85136600  0.76983400  0.62558700  1
  H  992  1  0.66284500  0.69540100  0.62882600  1
  H  999  1  0.99919000  0.12097900  0.19682800  1
  H  1004  1  0.94866200  0.16563200  0.22430900  1
  H  1009  1  0.06558800  0.10923700  0.24161400  1
  H  1010  1  0.03900900  0.10884900  0.21362300  1
  H  1011  1  0.07293900  0.12185700  0.27492800  1
  H  1012  1  0.02021600  0.16715600  0.29915900  1
  H  1015  1  0.06614500  0.15559900  0.31476000  1
  H  1016  1  0.94107500  0.15319800  0.18990200  1
  H  1023  1  0.01221900  0.84272500  0.19843200  1
  H  1028  1  0.06423900  0.79991400  0.22660300  1
  H  1033  1  0.94567700  0.85408700  0.24311600  1
  H  1034  1  0.97213100  0.85438100  0.21508100  1
  H  1035  1  0.93877800  0.84207100  0.27662700  1
  H  1036  1  0.99295200  0.79858800  0.30161500  1
  H  1039  1  0.94662400  0.80928800  0.31695500  1
  H  1040  1  0.07106600  0.81160500  0.19177600  1
  H  1047  1  0.01150900  0.84401100  0.80574400  1
  H  1052  1  0.06190300  0.79965900  0.77777600  1
  H  1057  1  0.94436600  0.85555700  0.76152700  1
  H  1058  1  0.97136600  0.85600000  0.78929700  1
  H  1059  1  0.93660900  0.84301200  0.72823800  1
  H  1060  1  0.98924500  0.79801500  0.70349900  1
  H  1063  1  0.94318500  0.80948700  0.68819500  1
  H  1064  1  0.06975200  0.81196100  0.81226500  1
  H  1071  1  0.99719000  0.12188200  0.80414000  1
  H  1076  1  0.94534900  0.16441200  0.77547900  1
  H  1081  1  0.06445300  0.11067800  0.76001700  1
  H  1082  1  0.03758400  0.11034800  0.78783700  1
  H  1083  1  0.07176500  0.12261100  0.72652900  1
  H  1084  1  0.01772600  0.16581200  0.70102900  1
  H  1087  1  0.06418000  0.15517200  0.68598900  1
  H  1088  1  0.93826000  0.15286800  0.81040200  1
  H  1095  1  0.49835000  0.61866000  0.19726700  1
  H  1100  1  0.44893600  0.66463000  0.22423500  1
  H  1105  1  0.56466900  0.60667600  0.24206200  1
  H  1106  1  0.53792500  0.60615600  0.21415800  1
  H  1107  1  0.57251300  0.61987200  0.27515400  1
  H  1108  1  0.52088100  0.66643600  0.29886800  1
  H  1111  1  0.56634500  0.65460400  0.31457400  1
  H  1112  1  0.44097500  0.65190700  0.19006700  1
  H  1119  1  0.51290900  0.34483300  0.19886600  1
  H  1124  1  0.56406000  0.30095300  0.22668600  1
  H  1129  1  0.44640900  0.35642900  0.24353300  1
  H  1130  1  0.47301000  0.35681600  0.21557200  1
  H  1131  1  0.43910400  0.34395300  0.27687600  1
  H  1132  1  0.49243600  0.29944600  0.30150900  1
  H  1135  1  0.44652800  0.31036000  0.31692400  1
  H  1136  1  0.57116800  0.31281600  0.19204100  1
  H  1143  1  0.51217300  0.34613700  0.80530600  1
  H  1148  1  0.56148400  0.30054900  0.77776400  1
  H  1153  1  0.44509300  0.35802000  0.76111200  1
  H  1154  1  0.47226200  0.35853000  0.78879300  1
  H  1155  1  0.43684700  0.34498200  0.72802800  1
  H  1156  1  0.48841900  0.29878500  0.70371400  1
  H  1159  1  0.44280400  0.31057300  0.68833100  1
  H  1160  1  0.56970500  0.31308300  0.81204300  1
  H  1167  1  0.49629000  0.61963200  0.80369900  1
  H  1172  1  0.44539100  0.66336500  0.77546200  1
  H  1177  1  0.56355800  0.60828200  0.75961500  1
  H  1178  1  0.53650500  0.60778800  0.78733900  1
  H  1179  1  0.57132800  0.62077600  0.72633400  1
  H  1180  1  0.51819900  0.66512100  0.70125500  1
  H  1183  1  0.56425300  0.65424700  0.68613700  1
  H  1184  1  0.43795700  0.65153300  0.81016000  1
  H  1191  1  0.69523000  0.11703300  0.10628000  1
  H  1200  1  0.70309700  0.14081200  0.16174000  1
  H  1203  1  0.64128500  0.12830400  0.16144600  1
  H  1204  1  0.67194900  0.07570000  0.13000200  1
  H  1205  1  0.61321000  0.15393800  0.09282700  1
  H  1206  1  0.76843400  0.08594300  0.17028500  1
  H  1217  1  0.88784700  0.84779500  0.10709700  1
  H  1226  1  0.88166300  0.82416400  0.16290400  1
  H  1229  1  0.94282800  0.83735700  0.16185400  1
  H  1230  1  0.90990100  0.88953200  0.12991000  1
  H  1231  1  0.97032200  0.81183600  0.09316000  1
  H  1232  1  0.84172200  0.89205000  0.18676400  1
  H  1243  1  0.69670000  0.84683300  0.39609000  1
  H  1252  1  0.70107300  0.82371500  0.33975100  1
  H  1255  1  0.64057400  0.83679100  0.34200400  1
  H  1256  1  0.67402700  0.88867300  0.37372400  1
  H  1257  1  0.61458100  0.81071100  0.41079500  1
  H  1258  1  0.73835400  0.89220200  0.31515600  1
  H  1269  1  0.88634400  0.11770100  0.39522100  1
  H  1278  1  0.88357300  0.14075900  0.33860000  1
  H  1281  1  0.94330000  0.12692900  0.34155700  1
  H  1282  1  0.90770600  0.07550800  0.37339500  1
  H  1283  1  0.96891600  0.15286400  0.41044900  1
  H  1284  1  0.84569000  0.07260200  0.31372300  1
  H  1295  1  0.88784900  0.84786500  0.89596900  1
  H  1304  1  0.88137600  0.82434900  0.84056100  1
  H  1307  1  0.94355100  0.83652100  0.84175800  1
  H  1308  1  0.91237100  0.88931400  0.87264600  1
  H  1309  1  0.96829300  0.80940800  0.91095700  1
  H  1310  1  0.81641400  0.87944600  0.83161400  1
  H  1321  1  0.69688500  0.11705800  0.89517300  1
  H  1330  1  0.70149500  0.14029900  0.83940400  1
  H  1333  1  0.63998300  0.12736000  0.84145700  1
  H  1334  1  0.67358800  0.07510200  0.87284800  1
  H  1335  1  0.61599400  0.15456500  0.91070400  1
  H  1336  1  0.74092700  0.07231500  0.81524000  1
  H  1347  1  0.88645900  0.11784000  0.60693100  1
  H  1356  1  0.88343500  0.14074400  0.66318800  1
  H  1359  1  0.94420100  0.12798700  0.66008200  1
  H  1360  1  0.91022100  0.07588500  0.62893700  1
  H  1361  1  0.96698400  0.15553500  0.59078100  1
  H  1362  1  0.84656300  0.07222600  0.68809900  1
  H  1373  1  0.69835900  0.84701100  0.60778500  1
  H  1382  1  0.69955900  0.82432100  0.66433500  1
  H  1385  1  0.63957100  0.83791200  0.66039100  1
  H  1386  1  0.67585800  0.88942300  0.62914400  1
  H  1387  1  0.61740400  0.81026500  0.59102500  1
  H  1388  1  0.73702900  0.89253500  0.68948800  1
  H  1399  1  0.19648800  0.61921400  0.10596200  1
  H  1408  1  0.20264800  0.64007500  0.16203900  1
  H  1411  1  0.14017400  0.62530900  0.16027700  1
  H  1412  1  0.17270400  0.57610000  0.12800700  1
  H  1413  1  0.13722600  0.67784700  0.09222100  1
  H  1414  1  0.26837000  0.58519000  0.16947800  1
  H  1425  1  0.38646800  0.34537500  0.10682100  1
  H  1434  1  0.38206900  0.32476500  0.16325900  1
  H  1437  1  0.44378300  0.34021300  0.16066300  1
  H  1438  1  0.40893600  0.38887400  0.12787400  1
  H  1439  1  0.44649700  0.28746300  0.09273400  1
  H  1440  1  0.34167700  0.39315800  0.18542900  1
  H  1451  1  0.19770900  0.34482700  0.39636100  1
  H  1460  1  0.20051700  0.32437500  0.33953000  1
  H  1463  1  0.13954000  0.33958100  0.34310600  1
  H  1464  1  0.17474900  0.38827200  0.37549900  1
  H  1465  1  0.13829000  0.28671000  0.41103400  1
  H  1466  1  0.23827000  0.39328500  0.31638900  1
  H  1477  1  0.38523500  0.61991000  0.39545500  1
  H  1486  1  0.38410800  0.64019500  0.33833100  1
  H  1489  1  0.44420400  0.62425600  0.34267900  1
  H  1490  1  0.40682300  0.57610700  0.37520300  1
  H  1491  1  0.44543200  0.67729200  0.41051300  1
  H  1492  1  0.34557100  0.57165200  0.31497800  1
  H  1503  1  0.38638900  0.34563600  0.89616300  1
  H  1512  1  0.38170400  0.32494000  0.84021200  1
  H  1515  1  0.44456000  0.33926500  0.84292000  1
  H  1516  1  0.41149700  0.38878900  0.87452400  1
  H  1517  1  0.44345300  0.28593500  0.91072700  1
  H  1518  1  0.31633800  0.38005200  0.83236300  1
  H  1529  1  0.19802300  0.61911200  0.89533000  1
  H  1538  1  0.20085900  0.63951700  0.83903400  1
  H  1541  1  0.13878700  0.62450300  0.84261400  1
  H  1542  1  0.17424000  0.57552800  0.87471400  1
  H  1543  1  0.14026900  0.67817300  0.91021900  1
  H  1544  1  0.24077000  0.57105300  0.81646800  1
  H  1555  1  0.38523100  0.61989700  0.60677300  1
  H  1564  1  0.38387600  0.64021600  0.66345400  1
  H  1567  1  0.44513300  0.62542400  0.65897600  1
  H  1568  1  0.40937200  0.57639900  0.62726100  1
  H  1569  1  0.44248300  0.67906900  0.59132800  1
  H  1570  1  0.34649800  0.57128800  0.68695700  1
  H  1581  1  0.19927000  0.34514500  0.60766000  1
  H  1590  1  0.19881400  0.32503900  0.66460200  1
  H  1593  1  0.13844500  0.34059200  0.65929400  1
  H  1594  1  0.17646600  0.38905800  0.62750700  1
  H  1595  1  0.14130900  0.28663600  0.59183300  1
  H  1596  1  0.23700100  0.39358800  0.68833900  1
  H  1607  1  0.65616600  0.10839500  0.05179200  1
  H  1612  1  0.71254600  0.15781800  0.04273400  1
  H  1617  1  0.63372500  0.08563600  0.98966700  1
  H  1618  1  0.63653000  0.08983700  0.02355500  1
  H  1619  1  0.64805300  0.09690300  0.95713300  1
  H  1620  1  0.70385000  0.14755600  0.95206800  1
  H  1623  1  0.67427300  0.10475200  0.92609600  1
  H  1624  1  0.70463600  0.13846900  0.07563700  1
  H  1631  1  0.92748800  0.85696800  0.05250600  1
  H  1636  1  0.87090200  0.80776200  0.04324000  1
  H  1641  1  0.95100300  0.87915200  0.99045400  1
  H  1642  1  0.94764900  0.87523500  0.02433800  1
  H  1643  1  0.93707000  0.86771800  0.95786000  1
  H  1644  1  0.88097400  0.81732700  0.95260400  1
  H  1647  1  0.91136700  0.85987900  0.92670700  1
  H  1648  1  0.87860700  0.82736200  0.07617800  1
  H  1655  1  0.65816700  0.85612700  0.45088900  1
  H  1660  1  0.71470000  0.80676000  0.45988000  1
  H  1665  1  0.63582700  0.87884700  0.51302800  1
  H  1666  1  0.63856900  0.87466500  0.47913800  1
  H  1667  1  0.65023200  0.86756700  0.54554600  1
  H  1668  1  0.70615600  0.81696300  0.55058000  1
  H  1671  1  0.67651400  0.85967000  0.57659600  1
  H  1672  1  0.70653400  0.82626400  0.42691300  1
  H  1679  1  0.92543000  0.10788300  0.45017200  1
  H  1684  1  0.86884600  0.15717100  0.45927400  1
  H  1689  1  0.94887800  0.08582200  0.51228200  1
  H  1690  1  0.94553600  0.08965000  0.47838800  1
  H  1691  1  0.93497100  0.09738200  0.54483500  1
  H  1692  1  0.87889500  0.14784800  0.54996100  1
  H  1695  1  0.90941800  0.10541100  0.57599500  1
  H  1696  1  0.87672100  0.13733200  0.42629700  1
  H  1703  1  0.15701400  0.61200700  0.05180600  1
  H  1708  1  0.21352500  0.66133900  0.04283600  1
  H  1713  1  0.13449000  0.58933700  0.98974900  1
  H  1714  1  0.13724700  0.59361000  0.02362500  1
  H  1715  1  0.14907300  0.60031100  0.95725800  1
  H  1716  1  0.20499800  0.65083600  0.95204800  1
  H  1719  1  0.17592200  0.60755900  0.92645500  1
  H  1720  1  0.20565300  0.64174900  0.07572300  1
  H  1727  1  0.42634800  0.35316700  0.05256700  1
  H  1732  1  0.36984700  0.30387500  0.04336900  1
  H  1737  1  0.44980700  0.37539900  0.99059300  1
  H  1738  1  0.44653400  0.37136700  0.02446400  1
  H  1739  1  0.43566400  0.36423900  0.95803700  1
  H  1740  1  0.37966100  0.31380300  0.95261300  1
  H  1743  1  0.40947700  0.35693800  0.92710400  1
  H  1744  1  0.37744500  0.32372700  0.07630300  1
  H  1751  1  0.15870500  0.35261200  0.45089500  1
  H  1756  1  0.21558700  0.30350700  0.45974600  1
  H  1761  1  0.13631000  0.37518000  0.51299100  1
  H  1762  1  0.13895300  0.37092900  0.47911100  1
  H  1763  1  0.15109200  0.36425100  0.54545400  1
  H  1764  1  0.20734800  0.31393400  0.55057300  1
  H  1767  1  0.17837200  0.35703100  0.57623900  1
  H  1768  1  0.20732800  0.32315800  0.42681400  1
  H  1775  1  0.42463200  0.61154900  0.45013800  1
  H  1780  1  0.36791700  0.66075100  0.45912100  1
  H  1785  1  0.44802400  0.58951900  0.51219300  1
  H  1786  1  0.44480400  0.59344900  0.47830800  1
  H  1787  1  0.43380400  0.60075800  0.54469800  1
  H  1788  1  0.37761000  0.65110800  0.54994100  1
  H  1791  1  0.40748700  0.60817700  0.57562200  1
  H  1792  1  0.37580900  0.64075800  0.42616900  1
  H  1799  1  0.85180300  0.94430700  0.12568600  1
  H  1804  1  0.78245400  0.92056200  0.14997400  1
  H  1809  1  0.83387100  0.02012800  0.11510200  1
  H  1810  1  0.85386900  0.98438900  0.11647500  1
  H  1811  1  0.79633800  0.04462200  0.12244400  1
  H  1812  1  0.72977200  0.01651300  0.14749800  1
  H  1815  1  0.76252500  0.06842600  0.13340000  1
  H  1816  1  0.81705000  0.89490600  0.13907200  1
  H  1823  1  0.85146900  0.02093100  0.37357900  1
  H  1828  1  0.78143900  0.04407700  0.34983900  1
  H  1833  1  0.83504100  0.94482600  0.38370100  1
  H  1834  1  0.85433700  0.98083500  0.38253400  1
  H  1835  1  0.79791800  0.91990200  0.37628700  1
  H  1836  1  0.73053000  0.94744900  0.35189700  1
  H  1839  1  0.76512000  0.89587200  0.36346100  1
  H  1840  1  0.81579700  0.07005600  0.35931900  1
  H  1847  1  0.73184700  0.02019900  0.87650500  1
  H  1852  1  0.80092000  0.04430600  0.85205500  1
  H  1857  1  0.75042200  0.94450000  0.88714400  1
  H  1858  1  0.73013100  0.98011900  0.88576300  1
  H  1859  1  0.78813100  0.92021800  0.87976700  1
  H  1860  1  0.85438300  0.94867900  0.85455500  1
  H  1863  1  0.82208300  0.89660000  0.86875200  1
  H  1864  1  0.76616700  0.06977400  0.86297400  1
  H  1871  1  0.73220400  0.94410500  0.62950100  1
  H  1876  1  0.80195600  0.92064700  0.65345700  1
  H  1881  1  0.74921400  0.02010500  0.61932000  1
  H  1882  1  0.72965800  0.98419900  0.62048900  1
  H  1883  1  0.78648500  0.04485000  0.62678700  1
  H  1884  1  0.85356000  0.01700000  0.65138600  1
  H  1887  1  0.81938000  0.06872500  0.63971100  1
  H  1888  1  0.76747100  0.89482900  0.64392800  1
  H  1895  1  0.35177000  0.44404600  0.12452700  1
  H  1900  1  0.28154300  0.42024700  0.14737400  1
  H  1905  1  0.33457100  0.52005800  0.11438700  1
  H  1906  1  0.35429500  0.48420600  0.11566900  1
  H  1907  1  0.29703000  0.54463900  0.12150000  1
  H  1908  1  0.22954100  0.51645100  0.14511100  1
  H  1911  1  0.26318600  0.56844500  0.13247400  1
  H  1912  1  0.31651300  0.39458400  0.13777400  1
  H  1919  1  0.35143500  0.52114400  0.37465300  1
  H  1924  1  0.28068200  0.54433400  0.35212900  1
  H  1929  1  0.33560200  0.44489500  0.38439500  1
  H  1930  1  0.35467800  0.48099200  0.38330800  1
  H  1931  1  0.29846700  0.41990500  0.37717200  1
  H  1932  1  0.23032000  0.44750900  0.35400200  1
  H  1935  1  0.26559400  0.39593000  0.36429500  1
  H  1936  1  0.31535700  0.57029700  0.36050900  1
  H  1943  1  0.23162700  0.52023400  0.87757400  1
  H  1948  1  0.30156500  0.54445200  0.85457300  1
  H  1953  1  0.24954700  0.44435200  0.88778000  1
  H  1954  1  0.22949100  0.48007200  0.88648600  1
  H  1955  1  0.28729100  0.42001200  0.88063500  1
  H  1956  1  0.35444700  0.44861400  0.85687500  1
  H  1959  1  0.32132500  0.39642000  0.86964500  1
  H  1960  1  0.26639900  0.56989700  0.86422900  1
  H  1967  1  0.23201600  0.44408000  0.62851900  1
  H  1972  1  0.30249000  0.42054200  0.65124700  1
  H  1977  1  0.24847800  0.52022200  0.61870400  1
  H  1978  1  0.22911700  0.48423600  0.61980100  1
  H  1979  1  0.28578000  0.54501600  0.62597500  1
  H  1980  1  0.35361000  0.51706300  0.64934200  1
  H  1983  1  0.31878900  0.56882000  0.63891000  1
  H  1984  1  0.26766100  0.39475800  0.64277700  1
  H  1991  1  0.51474300  0.29483300  0.13196300  1
  H  1996  1  0.47146300  0.23783500  0.14535200  1
  H  2001  1  0.60067100  0.26873300  0.12855000  1
  H  2002  1  0.56270800  0.29150300  0.12934700  1
  H  2003  1  0.62071200  0.23147000  0.12999100  1
  H  2004  1  0.57341500  0.17670400  0.14301300  1
  H  2007  1  0.63765000  0.19508600  0.12586200  1
  H  2008  1  0.45072300  0.27091000  0.13083600  1
  H  2015  1  0.06928300  0.67068000  0.13204700  1
  H  2020  1  0.11288600  0.72774800  0.14465700  1
  H  2025  1  0.98334000  0.69683200  0.12925900  1
  H  2026  1  0.02128800  0.67403600  0.12984800  1
  H  2027  1  0.96336500  0.73411300  0.13065700  1
  H  2028  1  0.01094300  0.78896000  0.14287500  1
  H  2031  1  0.94639800  0.77046800  0.12642700  1
  H  2032  1  0.13330600  0.69450900  0.13016400  1
  H  2039  1  0.51467500  0.66989300  0.37129000  1
  H  2044  1  0.47123500  0.72703800  0.35851200  1
  H  2049  1  0.60062400  0.69595800  0.37451400  1
  H  2050  1  0.56266900  0.67320700  0.37375000  1
  H  2051  1  0.62064200  0.73322000  0.37318500  1
  H  2052  1  0.57318600  0.78813100  0.36080100  1
  H  2055  1  0.63778500  0.76952700  0.37717100  1
  H  2056  1  0.45042100  0.69380500  0.37234100  1
  H  2063  1  0.06925800  0.29393600  0.37123500  1
  H  2068  1  0.11296100  0.23673300  0.35918300  1
  H  2073  1  0.98330000  0.26783200  0.37383800  1
  H  2074  1  0.02124400  0.29060500  0.37328700  1
  H  2075  1  0.96333400  0.23055800  0.37252600  1
  H  2076  1  0.01101300  0.17557500  0.36088900  1
  H  2079  1  0.94614400  0.19428500  0.37655000  1
  H  2080  1  0.13351800  0.27011100  0.37301200  1
  H  2087  1  0.06960400  0.67017600  0.87183500  1
  H  2092  1  0.11235300  0.72739800  0.85823600  1
  H  2097  1  0.98344900  0.69574100  0.87529200  1
  H  2098  1  0.02162300  0.67322400  0.87456100  1
  H  2099  1  0.96303300  0.73284600  0.87363800  1
  H  2100  1  0.00980100  0.78785500  0.86034200  1
  H  2103  1  0.94558000  0.76913500  0.87731300  1
  H  2104  1  0.13350900  0.69437200  0.87259500  1
  H  2111  1  0.51376000  0.29374700  0.87169300  1
  H  2116  1  0.47079900  0.23636600  0.85895000  1
  H  2121  1  0.59998500  0.26827400  0.87452800  1
  H  2122  1  0.56177700  0.29075500  0.87399100  1
  H  2123  1  0.62041200  0.23117800  0.87294500  1
  H  2124  1  0.57347700  0.17599000  0.86052900  1
  H  2127  1  0.63799100  0.19495700  0.87672100  1
  H  2128  1  0.44990700  0.26955100  0.87327800  1
  H  2135  1  0.06968600  0.29468900  0.63022700  1
  H  2140  1  0.11259900  0.23730600  0.64317200  1
  H  2145  1  0.98350200  0.26917200  0.62700200  1
  H  2146  1  0.02167100  0.29166700  0.62769000  1
  H  2147  1  0.96310900  0.23206600  0.62853000  1
  H  2148  1  0.01004400  0.17689700  0.64114100  1
  H  2151  1  0.94547600  0.19585100  0.62495100  1
  H  2152  1  0.13381900  0.27048400  0.62949700  1
  H  2159  1  0.51380100  0.67119000  0.63037900  1
  H  2164  1  0.47073200  0.72872500  0.64248400  1
  H  2169  1  0.60004800  0.69660300  0.62776200  1
  H  2170  1  0.56184200  0.67414900  0.62826100  1
  H  2171  1  0.62046600  0.73369600  0.62922300  1
  H  2172  1  0.57342000  0.78904000  0.64097600  1
  H  2175  1  0.63824100  0.76983400  0.62558700  1
  H  2176  1  0.44972000  0.69540100  0.62882600  1
  H  2183  1  0.78606500  0.12097900  0.19682800  1
  H  2188  1  0.73553700  0.16563200  0.22430900  1
  H  2193  1  0.85246300  0.10923700  0.24161400  1
  H  2194  1  0.82588400  0.10884900  0.21362300  1
  H  2195  1  0.85981400  0.12185700  0.27492800  1
  H  2196  1  0.80709100  0.16715600  0.29915900  1
  H  2199  1  0.85302000  0.15559900  0.31476000  1
  H  2200  1  0.72795000  0.15319800  0.18990200  1
  H  2207  1  0.79909400  0.84272500  0.19843200  1
  H  2212  1  0.85111400  0.79991400  0.22660300  1
  H  2217  1  0.73255200  0.85408700  0.24311600  1
  H  2218  1  0.75900600  0.85438100  0.21508100  1
  H  2219  1  0.72565300  0.84207100  0.27662700  1
  H  2220  1  0.77982700  0.79858800  0.30161500  1
  H  2223  1  0.73349900  0.80928800  0.31695500  1
  H  2224  1  0.85794100  0.81160500  0.19177600  1
  H  2231  1  0.79838400  0.84401100  0.80574400  1
  H  2236  1  0.84877800  0.79965900  0.77777600  1
  H  2241  1  0.73124100  0.85555700  0.76152700  1
  H  2242  1  0.75824100  0.85600000  0.78929700  1
  H  2243  1  0.72348400  0.84301200  0.72823800  1
  H  2244  1  0.77612000  0.79801500  0.70349900  1
  H  2247  1  0.73006000  0.80948700  0.68819500  1
  H  2248  1  0.85662700  0.81196100  0.81226500  1
  H  2255  1  0.78406500  0.12188200  0.80414000  1
  H  2260  1  0.73222400  0.16441200  0.77547900  1
  H  2265  1  0.85132800  0.11067800  0.76001700  1
  H  2266  1  0.82445900  0.11034800  0.78783700  1
  H  2267  1  0.85864000  0.12261100  0.72652900  1
  H  2268  1  0.80460100  0.16581200  0.70102900  1
  H  2271  1  0.85105500  0.15517200  0.68598900  1
  H  2272  1  0.72513500  0.15286800  0.81040200  1
  H  2279  1  0.28522500  0.61866000  0.19726700  1
  H  2284  1  0.23581100  0.66463000  0.22423500  1
  H  2289  1  0.35154400  0.60667600  0.24206200  1
  H  2290  1  0.32480000  0.60615600  0.21415800  1
  H  2291  1  0.35938800  0.61987200  0.27515400  1
  H  2292  1  0.30775600  0.66643600  0.29886800  1
  H  2295  1  0.35322000  0.65460400  0.31457400  1
  H  2296  1  0.22785000  0.65190700  0.19006700  1
  H  2303  1  0.29978400  0.34483300  0.19886600  1
  H  2308  1  0.35093500  0.30095300  0.22668600  1
  H  2313  1  0.23328400  0.35642900  0.24353300  1
  H  2314  1  0.25988500  0.35681600  0.21557200  1
  H  2315  1  0.22597900  0.34395300  0.27687600  1
  H  2316  1  0.27931100  0.29944600  0.30150900  1
  H  2319  1  0.23340300  0.31036000  0.31692400  1
  H  2320  1  0.35804300  0.31281600  0.19204100  1
  H  2327  1  0.29904800  0.34613700  0.80530600  1
  H  2332  1  0.34835900  0.30054900  0.77776400  1
  H  2337  1  0.23196800  0.35802000  0.76111200  1
  H  2338  1  0.25913700  0.35853000  0.78879300  1
  H  2339  1  0.22372200  0.34498200  0.72802800  1
  H  2340  1  0.27529400  0.29878500  0.70371400  1
  H  2343  1  0.22967900  0.31057300  0.68833100  1
  H  2344  1  0.35658000  0.31308300  0.81204300  1
  H  2351  1  0.28316500  0.61963200  0.80369900  1
  H  2356  1  0.23226600  0.66336500  0.77546200  1
  H  2361  1  0.35043300  0.60828200  0.75961500  1
  H  2362  1  0.32338000  0.60778800  0.78733900  1
  H  2363  1  0.35820300  0.62077600  0.72633400  1
  H  2364  1  0.30507400  0.66512100  0.70125500  1
  H  2367  1  0.35112800  0.65424700  0.68613700  1
  H  2368  1  0.22483200  0.65153300  0.81016000  1
  C  1  1  0.88963700  0.12644600  0.13186600  1
  C  2  1  0.89365500  0.12629200  0.11194700  1
  C  3  1  0.87774600  0.13843200  0.09944100  1
  C  4  1  0.85743500  0.15134500  0.10690500  1
  C  5  1  0.85398800  0.15323300  0.12684100  1
  C  6  1  0.86949400  0.14019000  0.13918800  1
  C  9  1  0.90701100  0.11388600  0.14365700  1
  C  10  1  0.91392800  0.09156300  0.13940300  1
  C  11  1  0.93403500  0.08075100  0.14949200  1
  C  12  1  0.94619300  0.09175700  0.16481600  1
  C  13  1  0.93908300  0.11355500  0.16965600  1
  C  14  1  0.92000900  0.12456700  0.15884500  1
  C  27  1  0.12022200  0.83871000  0.13257200  1
  C  28  1  0.11591300  0.83874800  0.11267800  1
  C  29  1  0.13187900  0.82681600  0.10006900  1
  C  30  1  0.15247300  0.81412700  0.10741000  1
  C  31  1  0.15619300  0.81227700  0.12732000  1
  C  32  1  0.14070200  0.82520500  0.13975400  1
  C  35  1  0.10284200  0.85109400  0.14451800  1
  C  36  1  0.09510100  0.87321500  0.14018200  1
  C  37  1  0.07511600  0.88378400  0.15058800  1
  C  38  1  0.06446800  0.87297000  0.16662200  1
  C  39  1  0.07194200  0.85121700  0.17125800  1
  C  40  1  0.09067500  0.84036000  0.16004400  1
  C  53  1  0.89009400  0.83781500  0.37080600  1
  C  54  1  0.89480700  0.83778000  0.39064800  1
  C  55  1  0.87909900  0.82579700  0.40339000  1
  C  56  1  0.85840200  0.81310000  0.39623800  1
  C  57  1  0.85425600  0.81135600  0.37636800  1
  C  58  1  0.86944400  0.82437300  0.36381500  1
  C  61  1  0.90717000  0.85028900  0.35870300  1
  C  62  1  0.91478600  0.87245900  0.36289000  1
  C  63  1  0.93391300  0.88334100  0.35187900  1
  C  64  1  0.94384700  0.87275400  0.33548400  1
  C  65  1  0.93667000  0.85086500  0.33108500  1
  C  66  1  0.91872800  0.83977300  0.34282700  1
  C  79  1  0.11963200  0.12644000  0.37005800  1
  C  80  1  0.11471600  0.12653600  0.38987300  1
  C  81  1  0.13050300  0.13830500  0.40272400  1
  C  82  1  0.15145700  0.15078500  0.39570700  1
  C  83  1  0.15583600  0.15249400  0.37587000  1
  C  84  1  0.14061900  0.13961800  0.36322200  1
  C  87  1  0.10248200  0.11419500  0.35779900  1
  C  88  1  0.09403900  0.09223700  0.36199800  1
  C  89  1  0.07493700  0.08165400  0.35072700  1
  C  90  1  0.06603200  0.09224500  0.33399800  1
  C  91  1  0.07394400  0.11394700  0.32961200  1
  C  92  1  0.09170100  0.12480400  0.34166500  1
  C  105  1  0.12058300  0.83861400  0.87069900  1
  C  106  1  0.11603500  0.83882300  0.89054900  1
  C  107  1  0.13154300  0.82666300  0.90331400  1
  C  108  1  0.15109400  0.81274400  0.89608100  1
  C  109  1  0.15531800  0.81109100  0.87620400  1
  C  110  1  0.14069800  0.82463900  0.86367600  1
  C  113  1  0.10362100  0.85127400  0.85867200  1
  C  114  1  0.09674100  0.87361900  0.86287200  1
  C  115  1  0.07684700  0.88449500  0.85261300  1
  C  116  1  0.06484500  0.87351800  0.83720600  1
  C  117  1  0.07191300  0.85168800  0.83243700  1
  C  118  1  0.09080600  0.84062700  0.84338000  1
  C  131  1  0.88978200  0.12588300  0.87003800  1
  C  132  1  0.89467900  0.12584400  0.88985100  1
  C  133  1  0.87915800  0.13783800  0.90271700  1
  C  134  1  0.85927100  0.15150300  0.89561300  1
  C  135  1  0.85470700  0.15304600  0.87577200  1
  C  136  1  0.86929200  0.13958500  0.86316500  1
  C  139  1  0.90673200  0.11338800  0.85785500  1
  C  140  1  0.91447500  0.09125900  0.86215300  1
  C  141  1  0.93423600  0.08062500  0.85157000  1
  C  142  1  0.94466600  0.09139600  0.83543700  1
  C  143  1  0.93720100  0.11316500  0.83085400  1
  C  144  1  0.91866500  0.12407500  0.84220600  1
  C  157  1  0.12014100  0.12671200  0.63190500  1
  C  158  1  0.11494100  0.12667600  0.61213600  1
  C  159  1  0.13024000  0.13869800  0.59915200  1
  C  160  1  0.15017700  0.15240800  0.60609400  1
  C  161  1  0.15506900  0.15391700  0.62589300  1
  C  162  1  0.14074700  0.14039700  0.63860400  1
  C  165  1  0.10345300  0.11415500  0.64422600  1
  C  166  1  0.09584600  0.09196700  0.64009800  1
  C  167  1  0.07690900  0.08105300  0.65125900  1
  C  168  1  0.06714200  0.09163300  0.66771100  1
  C  169  1  0.07430500  0.11354600  0.67204300  1
  C  170  1  0.09208700  0.12465700  0.66018400  1
  C  183  1  0.89038800  0.83852000  0.63260300  1
  C  184  1  0.89587500  0.83842400  0.61287600  1
  C  185  1  0.88054500  0.82657600  0.59978100  1
  C  186  1  0.86028800  0.81312100  0.60657700  1
  C  187  1  0.85507800  0.81172700  0.62633100  1
  C  188  1  0.86940200  0.82514200  0.63913200  1
  C  191  1  0.90711600  0.85087200  0.64508700  1
  C  192  1  0.91558300  0.87283400  0.64093200  1
  C  193  1  0.93447000  0.88346100  0.65236400  1
  C  194  1  0.94314900  0.87290000  0.66916900  1
  C  195  1  0.93522300  0.85118600  0.67350300  1
  C  196  1  0.91764800  0.84029900  0.66132700  1
  C  209  1  0.38990400  0.62676200  0.13159500  1
  C  210  1  0.39459300  0.62795300  0.11179000  1
  C  211  1  0.37869300  0.64053100  0.09960400  1
  C  212  1  0.35790200  0.65270300  0.10731500  1
  C  213  1  0.35334500  0.65274600  0.12718300  1
  C  214  1  0.36893300  0.63934200  0.13917800  1
  C  217  1  0.40717000  0.61381700  0.14310700  1
  C  218  1  0.41433200  0.59173800  0.13822500  1
  C  219  1  0.43430100  0.58060900  0.14820800  1
  C  220  1  0.44618100  0.59110500  0.16391800  1
  C  221  1  0.43889400  0.61269500  0.16928900  1
  C  222  1  0.41981900  0.62398700  0.15869900  1
  C  235  1  0.61983900  0.33819800  0.13232300  1
  C  236  1  0.61485200  0.33685400  0.11255600  1
  C  237  1  0.63080800  0.32447700  0.10026300  1
  C  238  1  0.65189100  0.31255500  0.10784400  1
  C  239  1  0.65672000  0.31258700  0.12767500  1
  C  240  1  0.64114400  0.32588200  0.13975400  1
  C  243  1  0.60256700  0.35097700  0.14399000  1
  C  244  1  0.59454100  0.37282600  0.13900900  1
  C  245  1  0.57469300  0.38372300  0.14930500  1
  C  246  1  0.56433100  0.37346200  0.16571000  1
  C  247  1  0.57203000  0.35193400  0.17091200  1
  C  248  1  0.59078600  0.34078700  0.15993400  1
  C  261  1  0.39022400  0.33753100  0.37105000  1
  C  262  1  0.39553200  0.33624400  0.39077200  1
  C  263  1  0.37982400  0.32384300  0.40321200  1
  C  264  1  0.35870900  0.31181000  0.39583000  1
  C  265  1  0.35352900  0.31183200  0.37604800  1
  C  266  1  0.36881800  0.32517900  0.36383000  1
  C  269  1  0.40723800  0.35033200  0.35920300  1
  C  270  1  0.41512600  0.37227000  0.36394200  1
  C  271  1  0.43414800  0.38343200  0.35303800  1
  C  272  1  0.44383800  0.37330900  0.33634500  1
  C  273  1  0.43646100  0.35159700  0.33147400  1
  C  274  1  0.41845500  0.34027200  0.34299200  1
  C  287  1  0.61941200  0.62688000  0.37028400  1
  C  288  1  0.61389600  0.62825700  0.38997200  1
  C  289  1  0.62967200  0.64046000  0.40252300  1
  C  290  1  0.65106000  0.65225000  0.39528500  1
  C  291  1  0.65647200  0.65215800  0.37554400  1
  C  292  1  0.64114900  0.63894900  0.36323200  1
  C  295  1  0.60232800  0.61430000  0.35828000  1
  C  296  1  0.59358100  0.59259900  0.36304400  1
  C  297  1  0.57457600  0.58172700  0.35188600  1
  C  298  1  0.56592100  0.59182700  0.33485900  1
  C  299  1  0.57408100  0.61332200  0.32997600  1
  C  300  1  0.59192000  0.62442000  0.34179600  1
  C  313  1  0.62016500  0.33818500  0.87091400  1
  C  314  1  0.61490500  0.33709500  0.89063800  1
  C  315  1  0.63040600  0.32455700  0.90313900  1
  C  316  1  0.65047800  0.31134800  0.89565000  1
  C  317  1  0.65583200  0.31145100  0.87588000  1
  C  318  1  0.64112900  0.32533400  0.86368400  1
  C  321  1  0.60334300  0.35122700  0.85914000  1
  C  322  1  0.59621600  0.37333600  0.86394900  1
  C  323  1  0.57645100  0.38451600  0.85379500  1
  C  324  1  0.56472600  0.37403200  0.83801900  1
  C  325  1  0.57198100  0.35240500  0.83273100  1
  C  326  1  0.59087800  0.34107200  0.84346100  1
  C  339  1  0.38992200  0.62615800  0.87023400  1
  C  340  1  0.39551000  0.62741600  0.88990900  1
  C  341  1  0.37999900  0.63979700  0.90251500  1
  C  342  1  0.35961600  0.65276800  0.89516200  1
  C  343  1  0.35395700  0.65255300  0.87544000  1
  C  344  1  0.36862100  0.63874900  0.86316500  1
  C  347  1  0.40673700  0.61327700  0.85830100  1
  C  348  1  0.41474500  0.59139900  0.86320600  1
  C  349  1  0.43438600  0.58045800  0.85273500  1
  C  350  1  0.44455600  0.59070900  0.83626300  1
  C  351  1  0.43687100  0.61226700  0.83114500  1
  C  352  1  0.41830000  0.62344900  0.84226700  1
  C  365  1  0.61985300  0.62710000  0.63170300  1
  C  366  1  0.61401400  0.62827100  0.61206600  1
  C  367  1  0.62931900  0.64064400  0.59932500  1
  C  368  1  0.64972500  0.65370700  0.60650400  1
  C  369  1  0.65566900  0.65354100  0.62617900  1
  C  370  1  0.64123900  0.63972500  0.63857800  1
  C  373  1  0.60326000  0.61422000  0.64379400  1
  C  374  1  0.59537900  0.59225800  0.63913500  1
  C  375  1  0.57654300  0.58107400  0.65019000  1
  C  376  1  0.56702200  0.59120900  0.66693100  1
  C  377  1  0.57440100  0.61294500  0.67172400  1
  C  378  1  0.59224600  0.62428100  0.66008100  1
  C  391  1  0.39038600  0.33831300  0.63241400  1
  C  392  1  0.39649100  0.33702000  0.61282700  1
  C  393  1  0.38116800  0.32481300  0.59996600  1
  C  394  1  0.36046000  0.31199500  0.60698800  1
  C  395  1  0.35422900  0.31226800  0.62660700  1
  C  396  1  0.36865700  0.32597500  0.63910300  1
  C  399  1  0.40702800  0.35097800  0.64467400  1
  C  400  1  0.41578900  0.37270200  0.63999700  1
  C  401  1  0.43459700  0.38358700  0.65131900  1
  C  402  1  0.44305800  0.37346900  0.66838800  1
  C  403  1  0.43488600  0.35194800  0.67318200  1
  C  404  1  0.41720800  0.34085100  0.66123100  1
  C  417  1  0.89762400  0.13371700  0.05064200  1
  C  418  1  0.91277400  0.14628600  0.03789900  1
  C  420  1  0.89362900  0.12854800  0.01096600  1
  C  421  1  0.87806400  0.11521000  0.02304400  1
  C  422  1  0.88027200  0.11801200  0.04290500  1
  C  424  1  0.89184800  0.12618300  0.99103200  1
  C  425  1  0.90540600  0.13740400  0.96000400  1
  C  426  1  0.88879700  0.12187200  0.95128200  1
  C  427  1  0.87350100  0.10824000  0.96310100  1
  C  430  1  0.87468200  0.11031400  0.98308000  1
  C  431  1  0.85933100  0.09710600  0.99518500  1
  C  432  1  0.86096400  0.09957600  0.01503200  1
  C  437  1  0.88723700  0.11981500  0.93180300  1
  C  438  1  0.90019500  0.13642700  0.07005700  1
  C  441  1  0.11211200  0.83179100  0.05125000  1
  C  442  1  0.09705200  0.81920900  0.03845000  1
  C  444  1  0.11671800  0.83665100  0.01158500  1
  C  445  1  0.13219400  0.85000500  0.02372100  1
  C  446  1  0.12967700  0.84735900  0.04357700  1
  C  448  1  0.11883000  0.83884500  0.99165500  1
  C  449  1  0.10565500  0.82745700  0.96057700  1
  C  450  1  0.12250700  0.84283300  0.95190500  1
  C  451  1  0.13772500  0.85647400  0.96378200  1
  C  454  1  0.13623000  0.85456000  0.98376200  1
  C  455  1  0.15148400  0.86778900  0.99592500  1
  C  456  1  0.14952600  0.86548600  0.01577100  1
  C  461  1  0.12424500  0.84482000  0.93242500  1
  C  462  1  0.10935600  0.82915900  0.07065500  1
  C  465  1  0.89970300  0.83084100  0.45200900  1
  C  466  1  0.91492900  0.81828900  0.46473300  1
  C  468  1  0.89581800  0.83600900  0.49168800  1
  C  469  1  0.88018400  0.84933200  0.47962600  1
  C  470  1  0.88234000  0.84653200  0.45976500  1
  C  472  1  0.89407200  0.83836200  0.51162500  1
  C  473  1  0.90769800  0.82712500  0.54264700  1
  C  474  1  0.89106900  0.84263700  0.55137600  1
  C  475  1  0.87571800  0.85626300  0.53957000  1
  C  478  1  0.87687600  0.85420500  0.51959100  1
  C  479  1  0.86145900  0.86739900  0.50750000  1
  C  480  1  0.86305500  0.86494000  0.48765200  1
  C  485  1  0.88944600  0.84462400  0.57085300  1
  C  486  1  0.90212900  0.82809500  0.43259200  1
  C  489  1  0.11004700  0.13308500  0.45135000  1
  C  490  1  0.09496500  0.14570500  0.46410400  1
  C  492  1  0.11458200  0.12829300  0.49102600  1
  C  493  1  0.13006900  0.11489600  0.47893300  1
  C  494  1  0.12758600  0.11750600  0.45907200  1
  C  496  1  0.11668600  0.12615200  0.51096300  1
  C  497  1  0.10354200  0.13766300  0.54201300  1
  C  498  1  0.12039500  0.12229800  0.55072100  1
  C  499  1  0.13560000  0.10860200  0.53888300  1
  C  502  1  0.13409100  0.11044800  0.51889900  1
  C  503  1  0.14935000  0.09717300  0.50677700  1
  C  504  1  0.14740100  0.09942200  0.48692600  1
  C  509  1  0.12226100  0.12043200  0.57020400  1
  C  510  1  0.10743400  0.13573600  0.43193700  1
  C  513  1  0.39852200  0.63729800  0.05071200  1
  C  514  1  0.41368000  0.64987800  0.03798100  1
  C  516  1  0.39443700  0.63225700  0.01101500  1
  C  517  1  0.37883900  0.61893900  0.02308600  1
  C  518  1  0.38110200  0.62166700  0.04294300  1
  C  520  1  0.39268400  0.62984900  0.99108000  1
  C  521  1  0.40645000  0.64080600  0.96001800  1
  C  522  1  0.38990600  0.62518900  0.95135000  1
  C  523  1  0.37446300  0.61171700  0.96319300  1
  C  526  1  0.37551500  0.61396100  0.98315600  1
  C  527  1  0.36008400  0.60082400  0.99525700  1
  C  528  1  0.36169000  0.60333500  0.01509500  1
  C  533  1  0.38860500  0.62275000  0.93190500  1
  C  534  1  0.40119900  0.63978700  0.07014900  1
  C  537  1  0.61103400  0.32792700  0.05135600  1
  C  538  1  0.59601500  0.31529900  0.03856500  1
  C  540  1  0.61567800  0.33271800  0.01167400  1
  C  541  1  0.63113300  0.34609100  0.02380900  1
  C  542  1  0.62858900  0.34348800  0.04365800  1
  C  544  1  0.61774000  0.33498200  0.99174300  1
  C  545  1  0.60439900  0.32384400  0.96062300  1
  C  546  1  0.62111600  0.33936400  0.95201100  1
  C  547  1  0.63642300  0.35288200  0.96392200  1
  C  550  1  0.63507100  0.35078000  0.98388600  1
  C  551  1  0.65035100  0.36397400  0.99605200  1
  C  552  1  0.64844200  0.36160700  0.01588700  1
  C  557  1  0.62259900  0.34174400  0.93255900  1
  C  558  1  0.60819800  0.32548900  0.07078100  1
  C  561  1  0.40039700  0.32744200  0.45193100  1
  C  562  1  0.41570500  0.31492600  0.46462900  1
  C  564  1  0.39647300  0.33246800  0.49163700  1
  C  565  1  0.38073000  0.34572500  0.47959800  1
  C  566  1  0.38291600  0.34300600  0.45973600  1
  C  568  1  0.39478500  0.33486100  0.51157600  1
  C  569  1  0.40873100  0.32393600  0.54261700  1
  C  570  1  0.39212600  0.33949000  0.55130600  1
  C  571  1  0.37654600  0.35290700  0.53949500  1
  C  574  1  0.37753800  0.35067600  0.51953100  1
  C  575  1  0.36196400  0.36375200  0.50745900  1
  C  576  1  0.36350200  0.36125300  0.48761900  1
  C  581  1  0.39081800  0.34186600  0.57075100  1
  C  582  1  0.40291300  0.32492300  0.43249000  1
  C  585  1  0.60920900  0.63672700  0.45124400  1
  C  586  1  0.59409600  0.64935100  0.46397800  1
  C  588  1  0.61374400  0.63202800  0.49094400  1
  C  589  1  0.62928300  0.61865700  0.47886500  1
  C  590  1  0.62679000  0.62121200  0.45900600  1
  C  592  1  0.61577600  0.62982400  0.51088300  1
  C  593  1  0.60236900  0.64104700  0.54196300  1
  C  594  1  0.61913500  0.62558500  0.55062700  1
  C  595  1  0.63450400  0.61205600  0.53876900  1
  C  598  1  0.63316200  0.61408900  0.51880100  1
  C  599  1  0.64852300  0.60089300  0.50668900  1
  C  600  1  0.64664400  0.60320200  0.48684600  1
  C  605  1  0.62070900  0.62332900  0.57008000  1
  C  606  1  0.60652200  0.63917000  0.43180800  1
  C  609  1  0.03235000  0.92869400  0.13804900  1
  C  610  1  0.00666800  0.93283000  0.14415600  1
  C  612  1  0.00905400  0.97092500  0.13546100  1
  C  613  1  0.03488100  0.96790700  0.12887600  1
  C  614  1  0.04632600  0.94668900  0.13032900  1
  C  616  1  0.99721500  0.99200800  0.13468800  1
  C  617  1  0.96098400  0.01545600  0.14165900  1
  C  618  1  0.97389600  0.03447600  0.13478000  1
  C  619  1  0.99917200  0.03129900  0.12732600  1
  C  622  1  0.01114200  0.01027900  0.12723300  1
  C  623  1  0.03663700  0.00712100  0.12044600  1
  C  624  1  0.04839100  0.98615800  0.12127300  1
  C  629  1  0.96401200  0.05586600  0.13678600  1
  C  630  1  0.04253200  0.90753700  0.13997300  1
  C  633  1  0.03163200  0.03632100  0.36149500  1
  C  634  1  0.00592600  0.03191700  0.35555600  1
  C  636  1  0.00903400  0.99378300  0.36403900  1
  C  637  1  0.03488600  0.99705200  0.37048000  1
  C  638  1  0.04595400  0.01841000  0.36907000  1
  C  640  1  0.99759900  0.97253800  0.36470600  1
  C  641  1  0.96175400  0.94868900  0.35770000  1
  C  642  1  0.97514000  0.92975500  0.36428500  1
  C  643  1  0.00044200  0.93316200  0.37161500  1
  C  646  1  0.01197200  0.95435100  0.37188700  1
  C  647  1  0.03748300  0.95776500  0.37855600  1
  C  648  1  0.04882300  0.97889000  0.37785400  1
  C  653  1  0.96566800  0.90828400  0.36200100  1
  C  654  1  0.04156400  0.05757900  0.35943700  1
  C  657  1  0.97738200  0.03597900  0.86406100  1
  C  658  1  0.00307400  0.03198400  0.85790900  1
  C  660  1  0.00102100  0.99389200  0.86665400  1
  C  661  1  0.97519500  0.99676800  0.87328400  1
  C  662  1  0.96357500  0.01791700  0.87182900  1
  C  664  1  0.01303400  0.97288100  0.86743300  1
  C  665  1  0.04943200  0.94963800  0.86042800  1
  C  666  1  0.03669900  0.93055400  0.86735600  1
  C  667  1  0.01142100  0.93359300  0.87485000  1
  C  670  1  0.99928100  0.95454100  0.87493600  1
  C  671  1  0.97378300  0.95756000  0.88176400  1
  C  672  1  0.96185700  0.97845100  0.88093200  1
  C  677  1  0.04674600  0.90922200  0.86535200  1
  C  678  1  0.96702500  0.05707200  0.86213300  1
  C  681  1  0.97812600  0.92857000  0.64169100  1
  C  682  1  0.00383100  0.93285500  0.64769400  1
  C  684  1  0.00103000  0.97098600  0.63915000  1
  C  685  1  0.97518700  0.96783900  0.63264800  1
  C  686  1  0.96396300  0.94653900  0.63405700  1
  C  688  1  0.01262000  0.99216900  0.63848100  1
  C  689  1  0.04860500  0.01584300  0.64553900  1
  C  690  1  0.03538500  0.03483200  0.63889000  1
  C  691  1  0.01009300  0.03154500  0.63150500  1
  C  694  1  0.99841000  0.01041600  0.63123700  1
  C  695  1  0.97290500  0.00712200  0.62450900  1
  C  696  1  0.96141200  0.98605800  0.62521400  1
  C  701  1  0.04500300  0.05625500  0.64116700  1
  C  702  1  0.96803700  0.90736600  0.64374700  1
  C  705  1  0.53185500  0.42836900  0.13615400  1
  C  706  1  0.50597800  0.43252100  0.14180500  1
  C  708  1  0.50880200  0.47070800  0.13347600  1
  C  709  1  0.53481700  0.46767800  0.12731400  1
  C  710  1  0.54612700  0.44640800  0.12880200  1
  C  712  1  0.49712600  0.49186300  0.13276300  1
  C  713  1  0.46089400  0.51539600  0.13951600  1
  C  714  1  0.47416100  0.53447300  0.13313300  1
  C  715  1  0.49961000  0.53128300  0.12600600  1
  C  718  1  0.51140500  0.51019100  0.12578600  1
  C  719  1  0.53707900  0.50701200  0.11937600  1
  C  720  1  0.54867000  0.48598000  0.12014800  1
  C  725  1  0.46443800  0.55588800  0.13539200  1
  C  726  1  0.54201700  0.40722500  0.13836100  1
  C  729  1  0.53121900  0.53658600  0.36319000  1
  C  730  1  0.50535400  0.53216900  0.35763600  1
  C  732  1  0.50881700  0.49396300  0.36580800  1
  C  733  1  0.53482600  0.49724200  0.37189400  1
  C  734  1  0.54578500  0.51863900  0.37045500  1
  C  736  1  0.49751400  0.47266300  0.36642600  1
  C  737  1  0.46166300  0.44874600  0.35960100  1
  C  738  1  0.47533700  0.42977000  0.36576700  1
  C  739  1  0.50078300  0.43318800  0.37282200  1
  C  742  1  0.51217500  0.45443200  0.37320200  1
  C  743  1  0.53783300  0.45786200  0.37955200  1
  C  744  1  0.54904300  0.47904000  0.37889700  1
  C  749  1  0.46599500  0.40828900  0.36325700  1
  C  750  1  0.54113200  0.55783400  0.36089500  1
  C  753  1  0.47761500  0.53610300  0.86586700  1
  C  754  1  0.50350800  0.53211200  0.86017600  1
  C  756  1  0.50105400  0.49392600  0.86856000  1
  C  757  1  0.47503100  0.49679400  0.87476400  1
  C  758  1  0.46352600  0.51798600  0.87326800  1
  C  760  1  0.51292400  0.47285300  0.86928300  1
  C  761  1  0.54935100  0.44955500  0.86250000  1
  C  762  1  0.53628000  0.43040100  0.86892900  1
  C  763  1  0.51082600  0.43343100  0.87609600  1
  C  766  1  0.49883400  0.45444200  0.87630800  1
  C  767  1  0.47315300  0.45746100  0.88275600  1
  C  768  1  0.46136800  0.47841400  0.88197700  1
  C  773  1  0.54619100  0.40905200  0.86667700  1
  C  774  1  0.46726000  0.55717600  0.86365900  1
  C  777  1  0.47831600  0.42848000  0.64008700  1
  C  778  1  0.50418700  0.43276300  0.64569900  1
  C  780  1  0.50104900  0.47096900  0.63746000  1
  C  781  1  0.47504400  0.46782500  0.63131700  1
  C  782  1  0.46391600  0.44649100  0.63276000  1
  C  784  1  0.51252100  0.49220200  0.63683500  1
  C  785  1  0.54853100  0.51592000  0.64370300  1
  C  786  1  0.53503300  0.53496000  0.63747800  1
  C  787  1  0.50959100  0.53167800  0.63037200  1
  C  790  1  0.49803000  0.51050100  0.62999700  1
  C  791  1  0.47237400  0.50720400  0.62359300  1
  C  792  1  0.46099700  0.48609000  0.62425300  1
  C  797  1  0.54453800  0.55639000  0.63997600  1
  C  798  1  0.46823400  0.40729300  0.64237500  1
  C  801  1  0.70207400  0.26882700  0.13891900  1
  C  802  1  0.70170800  0.24599600  0.14330600  1
  C  804  1  0.74778100  0.24279200  0.14051200  1
  C  805  1  0.74964600  0.26576400  0.13648500  1
  C  806  1  0.72668400  0.27853200  0.13577900  1
  C  808  1  0.77020900  0.22928400  0.13998600  1
  C  809  1  0.78959000  0.19326400  0.14129800  1
  C  810  1  0.81436500  0.20154600  0.13642200  1
  C  811  1  0.81640700  0.22472300  0.13386900  1
  C  814  1  0.79462300  0.23875900  0.13548400  1
  C  815  1  0.79639500  0.26168200  0.13198300  1
  C  816  1  0.77412000  0.27504900  0.13245800  1
  C  821  1  0.83549700  0.18798800  0.13205200  1
  C  822  1  0.67894400  0.27994500  0.13507100  1
  C  825  1  0.30836600  0.69671800  0.13859100  1
  C  826  1  0.30884300  0.71958800  0.14282100  1
  C  828  1  0.26272600  0.72281900  0.14043200  1
  C  829  1  0.26075900  0.69981400  0.13657300  1
  C  830  1  0.28368700  0.68701500  0.13574100  1
  C  832  1  0.24030500  0.73634200  0.14002900  1
  C  833  1  0.22097700  0.77238700  0.14129700  1
  C  834  1  0.19610500  0.76408000  0.13671400  1
  C  835  1  0.19399700  0.74088300  0.13432500  1
  C  838  1  0.21580100  0.72684500  0.13582000  1
  C  839  1  0.21393700  0.70389600  0.13248100  1
  C  840  1  0.23620300  0.69051400  0.13283500  1
  C  845  1  0.17489800  0.77760700  0.13246000  1
  C  846  1  0.33140700  0.68553300  0.13461200  1
  C  849  1  0.70191700  0.69597600  0.36466600  1
  C  850  1  0.70149800  0.71885600  0.36045900  1
  C  852  1  0.74758700  0.72203700  0.36310900  1
  C  853  1  0.74950800  0.69902300  0.36694900  1
  C  854  1  0.72656400  0.68624300  0.36764200  1
  C  856  1  0.77001000  0.73553600  0.36361900  1
  C  857  1  0.78937300  0.77155700  0.36241600  1
  C  858  1  0.81421200  0.76321600  0.36707500  1
  C  859  1  0.81628200  0.74001600  0.36947800  1
  C  862  1  0.79447900  0.72600800  0.36791300  1
  C  863  1  0.79630300  0.70305000  0.37123800  1
  C  864  1  0.77403100  0.68969300  0.37078200  1
  C  869  1  0.83545000  0.77671200  0.37128900  1
  C  870  1  0.67879700  0.68479100  0.36836800  1
  C  873  1  0.30839800  0.26782600  0.36499400  1
  C  874  1  0.30890700  0.24491300  0.36092800  1
  C  876  1  0.26278200  0.24171000  0.36318300  1
  C  877  1  0.26077900  0.26475400  0.36687200  1
  C  878  1  0.28369400  0.27755700  0.36769400  1
  C  880  1  0.24036600  0.22819800  0.36356800  1
  C  881  1  0.22104200  0.19215900  0.36238600  1
  C  882  1  0.19612500  0.20052300  0.36676400  1
  C  883  1  0.19400600  0.22374000  0.36902400  1
  C  886  1  0.21582400  0.23774600  0.36758400  1
  C  887  1  0.21392700  0.26072700  0.37076200  1
  C  888  1  0.23619200  0.27409600  0.37043100  1
  C  893  1  0.17481500  0.18705800  0.37083900  1
  C  894  1  0.33144100  0.27906600  0.36883900  1
  C  897  1  0.30827700  0.69632100  0.86477700  1
  C  898  1  0.30843700  0.71914600  0.86035800  1
  C  900  1  0.26234400  0.72207300  0.86322600  1
  C  901  1  0.26069100  0.69910500  0.86732300  1
  C  902  1  0.28376300  0.68648100  0.86800700  1
  C  904  1  0.23978800  0.73542700  0.86370300  1
  C  905  1  0.22004400  0.77128800  0.86217000  1
  C  906  1  0.19533700  0.76286300  0.86705400  1
  C  907  1  0.19353100  0.73969300  0.86975400  1
  C  910  1  0.21546300  0.72580800  0.86824000  1
  C  911  1  0.21391100  0.70289400  0.87184100  1
  C  912  1  0.23631000  0.68967600  0.87140400  1
  C  917  1  0.17402900  0.77629500  0.87124700  1
  C  918  1  0.33151700  0.68530100  0.86846500  1
  C  921  1  0.70122300  0.26751800  0.86508200  1
  C  922  1  0.70099800  0.24464800  0.86084800  1
  C  924  1  0.74714500  0.24176900  0.86330000  1
  C  925  1  0.74885400  0.26478000  0.86720200  1
  C  926  1  0.72578800  0.27740100  0.86800400  1
  C  928  1  0.76972500  0.22843500  0.86366300  1
  C  929  1  0.78949000  0.19257700  0.86220400  1
  C  930  1  0.81427700  0.20107700  0.86677700  1
  C  931  1  0.81609900  0.22427200  0.86928700  1
  C  934  1  0.79412000  0.23812200  0.86788700  1
  C  935  1  0.79571700  0.26107100  0.87130000  1
  C  936  1  0.77330000  0.27426800  0.87097800  1
  C  941  1  0.83569600  0.18771700  0.87084700  1
  C  942  1  0.67804900  0.27857700  0.86890200  1
  C  945  1  0.30845200  0.26845700  0.63692700  1
  C  946  1  0.30866300  0.24558400  0.64116000  1
  C  948  1  0.26254900  0.24268900  0.63846900  1
  C  949  1  0.26084200  0.26570100  0.63456600  1
  C  950  1  0.28389600  0.27833200  0.63388400  1
  C  952  1  0.23999700  0.22934500  0.63801500  1
  C  953  1  0.22027400  0.19348000  0.63942600  1
  C  954  1  0.19550000  0.20197000  0.63477100  1
  C  955  1  0.19366400  0.22516400  0.63223500  1
  C  958  1  0.21561500  0.23902200  0.63370100  1
  C  959  1  0.21401000  0.26197300  0.63028600  1
  C  960  1  0.23640600  0.27517900  0.63069800  1
  C  965  1  0.17409000  0.18860200  0.63072500  1
  C  966  1  0.33168200  0.27953800  0.63336900  1
  C  969  1  0.70120200  0.69750200  0.63664400  1
  C  970  1  0.70094300  0.72041900  0.64069600  1
  C  972  1  0.74710200  0.72326000  0.63840900  1
  C  973  1  0.74884800  0.70020600  0.63469800  1
  C  974  1  0.72579500  0.68758300  0.63390100  1
  C  976  1  0.76967800  0.73658000  0.63806400  1
  C  977  1  0.78943900  0.77243700  0.63940500  1
  C  978  1  0.81427300  0.76387400  0.63505400  1
  C  979  1  0.81611100  0.74065300  0.63270200  1
  C  982  1  0.79411500  0.72683600  0.63405500  1
  C  983  1  0.79574700  0.70385200  0.63082600  1
  C  984  1  0.77333000  0.69067000  0.63112800  1
  C  989  1  0.83579300  0.77716700  0.63115000  1
  C  990  1  0.67802700  0.68639200  0.63294200  1
  C  993  1  0.97088600  0.14304000  0.20777700  1
  C  994  1  0.96536900  0.15657600  0.22365000  1
  C  996  1  0.00407700  0.14521100  0.23965400  1
  C  997  1  0.01105900  0.13165500  0.22397300  1
  C  998  1  0.99439100  0.13092200  0.20809100  1
  C  1000  1  0.01982300  0.14554200  0.25609400  1
  C  1001  1  0.02694000  0.15797700  0.28798200  1
  C  1002  1  0.04916000  0.14454600  0.28984600  1
  C  1003  1  0.05699800  0.13190500  0.27393000  1
  C  1006  1  0.04245700  0.13218500  0.25693500  1
  C  1007  1  0.04943300  0.11904000  0.24116400  1
  C  1008  1  0.03387500  0.11882900  0.22476300  1
  C  1013  1  0.06146600  0.14233300  0.30717600  1
  C  1014  1  0.95329500  0.14100400  0.19292100  1
  C  1017  1  0.04123900  0.82157700  0.20971800  1
  C  1018  1  0.04725300  0.80857000  0.22582300  1
  C  1020  1  0.00828900  0.81947900  0.24171400  1
  C  1021  1  0.00081800  0.83247500  0.22579900  1
  C  1022  1  0.01737500  0.83317300  0.20986600  1
  C  1024  1  0.99262000  0.81920700  0.25818800  1
  C  1025  1  0.98594700  0.80737100  0.29029300  1
  C  1026  1  0.96330600  0.82032000  0.29193700  1
  C  1027  1  0.95505600  0.83240400  0.27580900  1
  C  1030  1  0.96957600  0.83206100  0.25881500  1
  C  1031  1  0.96213500  0.84465300  0.24282100  1
  C  1032  1  0.97762000  0.84480700  0.22639500  1
  C  1037  1  0.95082200  0.82253200  0.30919400  1
  C  1038  1  0.05866800  0.82367100  0.19477900  1
  C  1041  1  0.03979100  0.82211400  0.79452000  1
  C  1042  1  0.04515200  0.80863900  0.77858300  1
  C  1044  1  0.00612800  0.81985800  0.76291600  1
  C  1045  1  0.99929900  0.83334800  0.77867500  1
  C  1046  1  0.01620500  0.83412200  0.79442100  1
  C  1048  1  0.99013100  0.81949400  0.74660700  1
  C  1049  1  0.98261800  0.80711800  0.71475300  1
  C  1050  1  0.96029100  0.82045600  0.71309100  1
  C  1051  1  0.95261000  0.83301800  0.72909500  1
  C  1054  1  0.96740200  0.83275100  0.74597500  1
  C  1055  1  0.96058500  0.84582500  0.76182500  1
  C  1056  1  0.97639100  0.84606800  0.77809700  1
  C  1061  1  0.94779200  0.82272300  0.69584100  1
  C  1062  1  0.05756200  0.82418100  0.80925500  1
  C  1065  1  0.96821600  0.14287800  0.79257900  1
  C  1066  1  0.96236800  0.15582400  0.77640700  1
  C  1068  1  0.00163200  0.14503800  0.76084900  1
  C  1069  1  0.00893700  0.13211000  0.77684500  1
  C  1070  1  0.99214700  0.13138000  0.79264400  1
  C  1072  1  0.01754900  0.14533300  0.74450300  1
  C  1073  1  0.02462400  0.15710100  0.71242800  1
  C  1074  1  0.04735600  0.14423300  0.71098700  1
  C  1075  1  0.05543800  0.13223100  0.72720400  1
  C  1078  1  0.04067100  0.13257000  0.74408500  1
  C  1079  1  0.04794100  0.12004900  0.76016000  1
  C  1080  1  0.03221200  0.11987300  0.77646200  1
  C  1085  1  0.06003500  0.14196400  0.69381300  1
  C  1086  1  0.95060700  0.14076300  0.80740100  1
  C  1089  1  0.47056300  0.64136400  0.20797000  1
  C  1090  1  0.46539700  0.65524600  0.22368700  1
  C  1092  1  0.50388600  0.64351800  0.23977500  1
  C  1093  1  0.51050200  0.62956700  0.22426900  1
  C  1094  1  0.49377000  0.62884100  0.20842300  1
  C  1096  1  0.51973500  0.64392600  0.25616100  1
  C  1097  1  0.52733200  0.65691900  0.28781500  1
  C  1098  1  0.54929900  0.64320800  0.28980700  1
  C  1099  1  0.55676100  0.63011700  0.27406400  1
  C  1102  1  0.54210000  0.63025600  0.25712300  1
  C  1103  1  0.54870800  0.61669900  0.24152400  1
  C  1104  1  0.53305100  0.61641000  0.22517600  1
  C  1109  1  0.56170100  0.64122900  0.30712000  1
  C  1110  1  0.45300400  0.63956500  0.19306300  1
  C  1113  1  0.54153300  0.32316400  0.20998400  1
  C  1114  1  0.54726900  0.30989200  0.22598300  1
  C  1116  1  0.50847200  0.32111900  0.24192300  1
  C  1117  1  0.50129000  0.33442600  0.22613100  1
  C  1118  1  0.51789900  0.33510400  0.21022700  1
  C  1120  1  0.49271400  0.32079200  0.25834900  1
  C  1121  1  0.48564800  0.30850500  0.29027800  1
  C  1122  1  0.46319600  0.32167800  0.29200300  1
  C  1123  1  0.45524700  0.33412800  0.27600100  1
  C  1126  1  0.46987300  0.33389800  0.25905500  1
  C  1127  1  0.46272400  0.34681800  0.24318400  1
  C  1128  1  0.47829600  0.34703000  0.22680100  1
  C  1133  1  0.45061700  0.32369400  0.30924100  1
  C  1134  1  0.55892500  0.32501300  0.19499300  1
  C  1137  1  0.53995200  0.32363300  0.79428500  1
  C  1138  1  0.54496700  0.30984800  0.77848000  1
  C  1140  1  0.50614600  0.32145700  0.76275800  1
  C  1141  1  0.49967800  0.33530000  0.77836900  1
  C  1142  1  0.51665000  0.33603700  0.79407500  1
  C  1144  1  0.49004400  0.32105300  0.74650600  1
  C  1145  1  0.48205700  0.30819900  0.71486100  1
  C  1146  1  0.45997800  0.32182000  0.71310100  1
  C  1147  1  0.45266500  0.33478800  0.72895700  1
  C  1150  1  0.46757600  0.33462100  0.74578000  1
  C  1151  1  0.46112400  0.34806800  0.76148100  1
  C  1152  1  0.47703000  0.34835200  0.77769900  1
  C  1157  1  0.44738100  0.32389900  0.69587200  1
  C  1158  1  0.55770600  0.32545100  0.80906100  1
  C  1161  1  0.46774600  0.64120600  0.79233800  1
  C  1162  1  0.46220900  0.65447900  0.77630300  1
  C  1164  1  0.50131900  0.64339500  0.76069700  1
  C  1165  1  0.50830300  0.63009700  0.77654200  1
  C  1166  1  0.49143800  0.62934900  0.79229600  1
  C  1168  1  0.51734400  0.64378600  0.74441300  1
  C  1169  1  0.52486300  0.65609900  0.71254800  1
  C  1170  1  0.54739500  0.64298900  0.71101100  1
  C  1171  1  0.55514800  0.63056800  0.72708100  1
  C  1174  1  0.54025500  0.63075300  0.74390100  1
  C  1175  1  0.54720000  0.61784500  0.75982700  1
  C  1176  1  0.53136200  0.61757100  0.77606900  1
  C  1181  1  0.56017300  0.64094000  0.69385600  1
  C  1182  1  0.45015200  0.63930400  0.80719600  1
  C  1185  1  0.67651200  0.12644600  0.13186600  1
  C  1186  1  0.68053000  0.12629200  0.11194700  1
  C  1187  1  0.66462100  0.13843200  0.09944100  1
  C  1188  1  0.64431000  0.15134500  0.10690500  1
  C  1189  1  0.64086300  0.15323300  0.12684100  1
  C  1190  1  0.65636900  0.14019000  0.13918800  1
  C  1193  1  0.69388600  0.11388600  0.14365700  1
  C  1194  1  0.70080300  0.09156300  0.13940300  1
  C  1195  1  0.72091000  0.08075100  0.14949200  1
  C  1196  1  0.73306800  0.09175700  0.16481600  1
  C  1197  1  0.72595800  0.11355500  0.16965600  1
  C  1198  1  0.70688400  0.12456700  0.15884500  1
  C  1211  1  0.90709700  0.83871000  0.13257200  1
  C  1212  1  0.90278800  0.83874800  0.11267800  1
  C  1213  1  0.91875400  0.82681600  0.10006900  1
  C  1214  1  0.93934800  0.81412700  0.10741000  1
  C  1215  1  0.94306800  0.81227700  0.12732000  1
  C  1216  1  0.92757700  0.82520500  0.13975400  1
  C  1219  1  0.88971700  0.85109400  0.14451800  1
  C  1220  1  0.88197600  0.87321500  0.14018200  1
  C  1221  1  0.86199100  0.88378400  0.15058800  1
  C  1222  1  0.85134300  0.87297000  0.16662200  1
  C  1223  1  0.85881700  0.85121700  0.17125800  1
  C  1224  1  0.87755000  0.84036000  0.16004400  1
  C  1237  1  0.67696900  0.83781500  0.37080600  1
  C  1238  1  0.68168200  0.83778000  0.39064800  1
  C  1239  1  0.66597400  0.82579700  0.40339000  1
  C  1240  1  0.64527700  0.81310000  0.39623800  1
  C  1241  1  0.64113100  0.81135600  0.37636800  1
  C  1242  1  0.65631900  0.82437300  0.36381500  1
  C  1245  1  0.69404500  0.85028900  0.35870300  1
  C  1246  1  0.70166100  0.87245900  0.36289000  1
  C  1247  1  0.72078800  0.88334100  0.35187900  1
  C  1248  1  0.73072200  0.87275400  0.33548400  1
  C  1249  1  0.72354500  0.85086500  0.33108500  1
  C  1250  1  0.70560300  0.83977300  0.34282700  1
  C  1263  1  0.90650700  0.12644000  0.37005800  1
  C  1264  1  0.90159100  0.12653600  0.38987300  1
  C  1265  1  0.91737800  0.13830500  0.40272400  1
  C  1266  1  0.93833200  0.15078500  0.39570700  1
  C  1267  1  0.94271100  0.15249400  0.37587000  1
  C  1268  1  0.92749400  0.13961800  0.36322200  1
  C  1271  1  0.88935700  0.11419500  0.35779900  1
  C  1272  1  0.88091400  0.09223700  0.36199800  1
  C  1273  1  0.86181200  0.08165400  0.35072700  1
  C  1274  1  0.85290700  0.09224500  0.33399800  1
  C  1275  1  0.86081900  0.11394700  0.32961200  1
  C  1276  1  0.87857600  0.12480400  0.34166500  1
  C  1289  1  0.90745800  0.83861400  0.87069900  1
  C  1290  1  0.90291000  0.83882300  0.89054900  1
  C  1291  1  0.91841800  0.82666300  0.90331400  1
  C  1292  1  0.93796900  0.81274400  0.89608100  1
  C  1293  1  0.94219300  0.81109100  0.87620400  1
  C  1294  1  0.92757300  0.82463900  0.86367600  1
  C  1297  1  0.89049600  0.85127400  0.85867200  1
  C  1298  1  0.88361600  0.87361900  0.86287200  1
  C  1299  1  0.86372200  0.88449500  0.85261300  1
  C  1300  1  0.85172000  0.87351800  0.83720600  1
  C  1301  1  0.85878800  0.85168800  0.83243700  1
  C  1302  1  0.87768100  0.84062700  0.84338000  1
  C  1315  1  0.67665700  0.12588300  0.87003800  1
  C  1316  1  0.68155400  0.12584400  0.88985100  1
  C  1317  1  0.66603300  0.13783800  0.90271700  1
  C  1318  1  0.64614600  0.15150300  0.89561300  1
  C  1319  1  0.64158200  0.15304600  0.87577200  1
  C  1320  1  0.65616700  0.13958500  0.86316500  1
  C  1323  1  0.69360700  0.11338800  0.85785500  1
  C  1324  1  0.70135000  0.09125900  0.86215300  1
  C  1325  1  0.72111100  0.08062500  0.85157000  1
  C  1326  1  0.73154100  0.09139600  0.83543700  1
  C  1327  1  0.72407600  0.11316500  0.83085400  1
  C  1328  1  0.70554000  0.12407500  0.84220600  1
  C  1341  1  0.90701600  0.12671200  0.63190500  1
  C  1342  1  0.90181600  0.12667600  0.61213600  1
  C  1343  1  0.91711500  0.13869800  0.59915200  1
  C  1344  1  0.93705200  0.15240800  0.60609400  1
  C  1345  1  0.94194400  0.15391700  0.62589300  1
  C  1346  1  0.92762200  0.14039700  0.63860400  1
  C  1349  1  0.89032800  0.11415500  0.64422600  1
  C  1350  1  0.88272100  0.09196700  0.64009800  1
  C  1351  1  0.86378400  0.08105300  0.65125900  1
  C  1352  1  0.85401700  0.09163300  0.66771100  1
  C  1353  1  0.86118000  0.11354600  0.67204300  1
  C  1354  1  0.87896200  0.12465700  0.66018400  1
  C  1367  1  0.67726300  0.83852000  0.63260300  1
  C  1368  1  0.68275000  0.83842400  0.61287600  1
  C  1369  1  0.66742000  0.82657600  0.59978100  1
  C  1370  1  0.64716300  0.81312100  0.60657700  1
  C  1371  1  0.64195300  0.81172700  0.62633100  1
  C  1372  1  0.65627700  0.82514200  0.63913200  1
  C  1375  1  0.69399100  0.85087200  0.64508700  1
  C  1376  1  0.70245800  0.87283400  0.64093200  1
  C  1377  1  0.72134500  0.88346100  0.65236400  1
  C  1378  1  0.73002400  0.87290000  0.66916900  1
  C  1379  1  0.72209800  0.85118600  0.67350300  1
  C  1380  1  0.70452300  0.84029900  0.66132700  1
  C  1393  1  0.17677900  0.62676200  0.13159500  1
  C  1394  1  0.18146800  0.62795300  0.11179000  1
  C  1395  1  0.16556800  0.64053100  0.09960400  1
  C  1396  1  0.14477700  0.65270300  0.10731500  1
  C  1397  1  0.14022000  0.65274600  0.12718300  1
  C  1398  1  0.15580800  0.63934200  0.13917800  1
  C  1401  1  0.19404500  0.61381700  0.14310700  1
  C  1402  1  0.20120700  0.59173800  0.13822500  1
  C  1403  1  0.22117600  0.58060900  0.14820800  1
  C  1404  1  0.23305600  0.59110500  0.16391800  1
  C  1405  1  0.22576900  0.61269500  0.16928900  1
  C  1406  1  0.20669400  0.62398700  0.15869900  1
  C  1419  1  0.40671400  0.33819800  0.13232300  1
  C  1420  1  0.40172700  0.33685400  0.11255600  1
  C  1421  1  0.41768300  0.32447700  0.10026300  1
  C  1422  1  0.43876600  0.31255500  0.10784400  1
  C  1423  1  0.44359500  0.31258700  0.12767500  1
  C  1424  1  0.42801900  0.32588200  0.13975400  1
  C  1427  1  0.38944200  0.35097700  0.14399000  1
  C  1428  1  0.38141600  0.37282600  0.13900900  1
  C  1429  1  0.36156800  0.38372300  0.14930500  1
  C  1430  1  0.35120600  0.37346200  0.16571000  1
  C  1431  1  0.35890500  0.35193400  0.17091200  1
  C  1432  1  0.37766100  0.34078700  0.15993400  1
  C  1445  1  0.17709900  0.33753100  0.37105000  1
  C  1446  1  0.18240700  0.33624400  0.39077200  1
  C  1447  1  0.16669900  0.32384300  0.40321200  1
  C  1448  1  0.14558400  0.31181000  0.39583000  1
  C  1449  1  0.14040400  0.31183200  0.37604800  1
  C  1450  1  0.15569300  0.32517900  0.36383000  1
  C  1453  1  0.19411300  0.35033200  0.35920300  1
  C  1454  1  0.20200100  0.37227000  0.36394200  1
  C  1455  1  0.22102300  0.38343200  0.35303800  1
  C  1456  1  0.23071300  0.37330900  0.33634500  1
  C  1457  1  0.22333600  0.35159700  0.33147400  1
  C  1458  1  0.20533000  0.34027200  0.34299200  1
  C  1471  1  0.40628700  0.62688000  0.37028400  1
  C  1472  1  0.40077100  0.62825700  0.38997200  1
  C  1473  1  0.41654700  0.64046000  0.40252300  1
  C  1474  1  0.43793500  0.65225000  0.39528500  1
  C  1475  1  0.44334700  0.65215800  0.37554400  1
  C  1476  1  0.42802400  0.63894900  0.36323200  1
  C  1479  1  0.38920300  0.61430000  0.35828000  1
  C  1480  1  0.38045600  0.59259900  0.36304400  1
  C  1481  1  0.36145100  0.58172700  0.35188600  1
  C  1482  1  0.35279600  0.59182700  0.33485900  1
  C  1483  1  0.36095600  0.61332200  0.32997600  1
  C  1484  1  0.37879500  0.62442000  0.34179600  1
  C  1497  1  0.40704000  0.33818500  0.87091400  1
  C  1498  1  0.40178000  0.33709500  0.89063800  1
  C  1499  1  0.41728100  0.32455700  0.90313900  1
  C  1500  1  0.43735300  0.31134800  0.89565000  1
  C  1501  1  0.44270700  0.31145100  0.87588000  1
  C  1502  1  0.42800400  0.32533400  0.86368400  1
  C  1505  1  0.39021800  0.35122700  0.85914000  1
  C  1506  1  0.38309100  0.37333600  0.86394900  1
  C  1507  1  0.36332600  0.38451600  0.85379500  1
  C  1508  1  0.35160100  0.37403200  0.83801900  1
  C  1509  1  0.35885600  0.35240500  0.83273100  1
  C  1510  1  0.37775300  0.34107200  0.84346100  1
  C  1523  1  0.17679700  0.62615800  0.87023400  1
  C  1524  1  0.18238500  0.62741600  0.88990900  1
  C  1525  1  0.16687400  0.63979700  0.90251500  1
  C  1526  1  0.14649100  0.65276800  0.89516200  1
  C  1527  1  0.14083200  0.65255300  0.87544000  1
  C  1528  1  0.15549600  0.63874900  0.86316500  1
  C  1531  1  0.19361200  0.61327700  0.85830100  1
  C  1532  1  0.20162000  0.59139900  0.86320600  1
  C  1533  1  0.22126100  0.58045800  0.85273500  1
  C  1534  1  0.23143100  0.59070900  0.83626300  1
  C  1535  1  0.22374600  0.61226700  0.83114500  1
  C  1536  1  0.20517500  0.62344900  0.84226700  1
  C  1549  1  0.40672800  0.62710000  0.63170300  1
  C  1550  1  0.40088900  0.62827100  0.61206600  1
  C  1551  1  0.41619400  0.64064400  0.59932500  1
  C  1552  1  0.43660000  0.65370700  0.60650400  1
  C  1553  1  0.44254400  0.65354100  0.62617900  1
  C  1554  1  0.42811400  0.63972500  0.63857800  1
  C  1557  1  0.39013500  0.61422000  0.64379400  1
  C  1558  1  0.38225400  0.59225800  0.63913500  1
  C  1559  1  0.36341800  0.58107400  0.65019000  1
  C  1560  1  0.35389700  0.59120900  0.66693100  1
  C  1561  1  0.36127600  0.61294500  0.67172400  1
  C  1562  1  0.37912100  0.62428100  0.66008100  1
  C  1575  1  0.17726100  0.33831300  0.63241400  1
  C  1576  1  0.18336600  0.33702000  0.61282700  1
  C  1577  1  0.16804300  0.32481300  0.59996600  1
  C  1578  1  0.14733500  0.31199500  0.60698800  1
  C  1579  1  0.14110400  0.31226800  0.62660700  1
  C  1580  1  0.15553200  0.32597500  0.63910300  1
  C  1583  1  0.19390300  0.35097800  0.64467400  1
  C  1584  1  0.20266400  0.37270200  0.63999700  1
  C  1585  1  0.22147200  0.38358700  0.65131900  1
  C  1586  1  0.22993300  0.37346900  0.66838800  1
  C  1587  1  0.22176100  0.35194800  0.67318200  1
  C  1588  1  0.20408300  0.34085100  0.66123100  1
  C  1601  1  0.68449900  0.13371700  0.05064200  1
  C  1602  1  0.69964900  0.14628600  0.03789900  1
  C  1604  1  0.68050400  0.12854800  0.01096600  1
  C  1605  1  0.66493900  0.11521000  0.02304400  1
  C  1606  1  0.66714700  0.11801200  0.04290500  1
  C  1608  1  0.67872300  0.12618300  0.99103200  1
  C  1609  1  0.69228100  0.13740400  0.96000400  1
  C  1610  1  0.67567200  0.12187200  0.95128200  1
  C  1611  1  0.66037600  0.10824000  0.96310100  1
  C  1614  1  0.66155700  0.11031400  0.98308000  1
  C  1615  1  0.64620600  0.09710600  0.99518500  1
  C  1616  1  0.64783900  0.09957600  0.01503200  1
  C  1621  1  0.67411200  0.11981500  0.93180300  1
  C  1622  1  0.68707000  0.13642700  0.07005700  1
  C  1625  1  0.89898700  0.83179100  0.05125000  1
  C  1626  1  0.88392700  0.81920900  0.03845000  1
  C  1628  1  0.90359300  0.83665100  0.01158500  1
  C  1629  1  0.91906900  0.85000500  0.02372100  1
  C  1630  1  0.91655200  0.84735900  0.04357700  1
  C  1632  1  0.90570500  0.83884500  0.99165500  1
  C  1633  1  0.89253000  0.82745700  0.96057700  1
  C  1634  1  0.90938200  0.84283300  0.95190500  1
  C  1635  1  0.92460000  0.85647400  0.96378200  1
  C  1638  1  0.92310500  0.85456000  0.98376200  1
  C  1639  1  0.93835900  0.86778900  0.99592500  1
  C  1640  1  0.93640100  0.86548600  0.01577100  1
  C  1645  1  0.91112000  0.84482000  0.93242500  1
  C  1646  1  0.89623100  0.82915900  0.07065500  1
  C  1649  1  0.68657800  0.83084100  0.45200900  1
  C  1650  1  0.70180400  0.81828900  0.46473300  1
  C  1652  1  0.68269300  0.83600900  0.49168800  1
  C  1653  1  0.66705900  0.84933200  0.47962600  1
  C  1654  1  0.66921500  0.84653200  0.45976500  1
  C  1656  1  0.68094700  0.83836200  0.51162500  1
  C  1657  1  0.69457300  0.82712500  0.54264700  1
  C  1658  1  0.67794400  0.84263700  0.55137600  1
  C  1659  1  0.66259300  0.85626300  0.53957000  1
  C  1662  1  0.66375100  0.85420500  0.51959100  1
  C  1663  1  0.64833400  0.86739900  0.50750000  1
  C  1664  1  0.64993000  0.86494000  0.48765200  1
  C  1669  1  0.67632100  0.84462400  0.57085300  1
  C  1670  1  0.68900400  0.82809500  0.43259200  1
  C  1673  1  0.89692200  0.13308500  0.45135000  1
  C  1674  1  0.88184000  0.14570500  0.46410400  1
  C  1676  1  0.90145700  0.12829300  0.49102600  1
  C  1677  1  0.91694400  0.11489600  0.47893300  1
  C  1678  1  0.91446100  0.11750600  0.45907200  1
  C  1680  1  0.90356100  0.12615200  0.51096300  1
  C  1681  1  0.89041700  0.13766300  0.54201300  1
  C  1682  1  0.90727000  0.12229800  0.55072100  1
  C  1683  1  0.92247500  0.10860200  0.53888300  1
  C  1686  1  0.92096600  0.11044800  0.51889900  1
  C  1687  1  0.93622500  0.09717300  0.50677700  1
  C  1688  1  0.93427600  0.09942200  0.48692600  1
  C  1693  1  0.90913600  0.12043200  0.57020400  1
  C  1694  1  0.89430900  0.13573600  0.43193700  1
  C  1697  1  0.18539700  0.63729800  0.05071200  1
  C  1698  1  0.20055500  0.64987800  0.03798100  1
  C  1700  1  0.18131200  0.63225700  0.01101500  1
  C  1701  1  0.16571400  0.61893900  0.02308600  1
  C  1702  1  0.16797700  0.62166700  0.04294300  1
  C  1704  1  0.17955900  0.62984900  0.99108000  1
  C  1705  1  0.19332500  0.64080600  0.96001800  1
  C  1706  1  0.17678100  0.62518900  0.95135000  1
  C  1707  1  0.16133800  0.61171700  0.96319300  1
  C  1710  1  0.16239000  0.61396100  0.98315600  1
  C  1711  1  0.14695900  0.60082400  0.99525700  1
  C  1712  1  0.14856500  0.60333500  0.01509500  1
  C  1717  1  0.17548000  0.62275000  0.93190500  1
  C  1718  1  0.18807400  0.63978700  0.07014900  1
  C  1721  1  0.39790900  0.32792700  0.05135600  1
  C  1722  1  0.38289000  0.31529900  0.03856500  1
  C  1724  1  0.40255300  0.33271800  0.01167400  1
  C  1725  1  0.41800800  0.34609100  0.02380900  1
  C  1726  1  0.41546400  0.34348800  0.04365800  1
  C  1728  1  0.40461500  0.33498200  0.99174300  1
  C  1729  1  0.39127400  0.32384400  0.96062300  1
  C  1730  1  0.40799100  0.33936400  0.95201100  1
  C  1731  1  0.42329800  0.35288200  0.96392200  1
  C  1734  1  0.42194600  0.35078000  0.98388600  1
  C  1735  1  0.43722600  0.36397400  0.99605200  1
  C  1736  1  0.43531700  0.36160700  0.01588700  1
  C  1741  1  0.40947400  0.34174400  0.93255900  1
  C  1742  1  0.39507300  0.32548900  0.07078100  1
  C  1745  1  0.18727200  0.32744200  0.45193100  1
  C  1746  1  0.20258000  0.31492600  0.46462900  1
  C  1748  1  0.18334800  0.33246800  0.49163700  1
  C  1749  1  0.16760500  0.34572500  0.47959800  1
  C  1750  1  0.16979100  0.34300600  0.45973600  1
  C  1752  1  0.18166000  0.33486100  0.51157600  1
  C  1753  1  0.19560600  0.32393600  0.54261700  1
  C  1754  1  0.17900100  0.33949000  0.55130600  1
  C  1755  1  0.16342100  0.35290700  0.53949500  1
  C  1758  1  0.16441300  0.35067600  0.51953100  1
  C  1759  1  0.14883900  0.36375200  0.50745900  1
  C  1760  1  0.15037700  0.36125300  0.48761900  1
  C  1765  1  0.17769300  0.34186600  0.57075100  1
  C  1766  1  0.18978800  0.32492300  0.43249000  1
  C  1769  1  0.39608400  0.63672700  0.45124400  1
  C  1770  1  0.38097100  0.64935100  0.46397800  1
  C  1772  1  0.40061900  0.63202800  0.49094400  1
  C  1773  1  0.41615800  0.61865700  0.47886500  1
  C  1774  1  0.41366500  0.62121200  0.45900600  1
  C  1776  1  0.40265100  0.62982400  0.51088300  1
  C  1777  1  0.38924400  0.64104700  0.54196300  1
  C  1778  1  0.40601000  0.62558500  0.55062700  1
  C  1779  1  0.42137900  0.61205600  0.53876900  1
  C  1782  1  0.42003700  0.61408900  0.51880100  1
  C  1783  1  0.43539800  0.60089300  0.50668900  1
  C  1784  1  0.43351900  0.60320200  0.48684600  1
  C  1789  1  0.40758400  0.62332900  0.57008000  1
  C  1790  1  0.39339700  0.63917000  0.43180800  1
  C  1793  1  0.81922500  0.92869400  0.13804900  1
  C  1794  1  0.79354300  0.93283000  0.14415600  1
  C  1796  1  0.79592900  0.97092500  0.13546100  1
  C  1797  1  0.82175600  0.96790700  0.12887600  1
  C  1798  1  0.83320100  0.94668900  0.13032900  1
  C  1800  1  0.78409000  0.99200800  0.13468800  1
  C  1801  1  0.74785900  0.01545600  0.14165900  1
  C  1802  1  0.76077100  0.03447600  0.13478000  1
  C  1803  1  0.78604700  0.03129900  0.12732600  1
  C  1806  1  0.79801700  0.01027900  0.12723300  1
  C  1807  1  0.82351200  0.00712100  0.12044600  1
  C  1808  1  0.83526600  0.98615800  0.12127300  1
  C  1813  1  0.75088700  0.05586600  0.13678600  1
  C  1814  1  0.82940700  0.90753700  0.13997300  1
  C  1817  1  0.81850700  0.03632100  0.36149500  1
  C  1818  1  0.79280100  0.03191700  0.35555600  1
  C  1820  1  0.79590900  0.99378300  0.36403900  1
  C  1821  1  0.82176100  0.99705200  0.37048000  1
  C  1822  1  0.83282900  0.01841000  0.36907000  1
  C  1824  1  0.78447400  0.97253800  0.36470600  1
  C  1825  1  0.74862900  0.94868900  0.35770000  1
  C  1826  1  0.76201500  0.92975500  0.36428500  1
  C  1827  1  0.78731700  0.93316200  0.37161500  1
  C  1830  1  0.79884700  0.95435100  0.37188700  1
  C  1831  1  0.82435800  0.95776500  0.37855600  1
  C  1832  1  0.83569800  0.97889000  0.37785400  1
  C  1837  1  0.75254300  0.90828400  0.36200100  1
  C  1838  1  0.82843900  0.05757900  0.35943700  1
  C  1841  1  0.76425700  0.03597900  0.86406100  1
  C  1842  1  0.78994900  0.03198400  0.85790900  1
  C  1844  1  0.78789600  0.99389200  0.86665400  1
  C  1845  1  0.76207000  0.99676800  0.87328400  1
  C  1846  1  0.75045000  0.01791700  0.87182900  1
  C  1848  1  0.79990900  0.97288100  0.86743300  1
  C  1849  1  0.83630700  0.94963800  0.86042800  1
  C  1850  1  0.82357400  0.93055400  0.86735600  1
  C  1851  1  0.79829600  0.93359300  0.87485000  1
  C  1854  1  0.78615600  0.95454100  0.87493600  1
  C  1855  1  0.76065800  0.95756000  0.88176400  1
  C  1856  1  0.74873200  0.97845100  0.88093200  1
  C  1861  1  0.83362100  0.90922200  0.86535200  1
  C  1862  1  0.75390000  0.05707200  0.86213300  1
  C  1865  1  0.76500100  0.92857000  0.64169100  1
  C  1866  1  0.79070600  0.93285500  0.64769400  1
  C  1868  1  0.78790500  0.97098600  0.63915000  1
  C  1869  1  0.76206200  0.96783900  0.63264800  1
  C  1870  1  0.75083800  0.94653900  0.63405700  1
  C  1872  1  0.79949500  0.99216900  0.63848100  1
  C  1873  1  0.83548000  0.01584300  0.64553900  1
  C  1874  1  0.82226000  0.03483200  0.63889000  1
  C  1875  1  0.79696800  0.03154500  0.63150500  1
  C  1878  1  0.78528500  0.01041600  0.63123700  1
  C  1879  1  0.75978000  0.00712200  0.62450900  1
  C  1880  1  0.74828700  0.98605800  0.62521400  1
  C  1885  1  0.83187800  0.05625500  0.64116700  1
  C  1886  1  0.75491200  0.90736600  0.64374700  1
  C  1889  1  0.31873000  0.42836900  0.13615400  1
  C  1890  1  0.29285300  0.43252100  0.14180500  1
  C  1892  1  0.29567700  0.47070800  0.13347600  1
  C  1893  1  0.32169200  0.46767800  0.12731400  1
  C  1894  1  0.33300200  0.44640800  0.12880200  1
  C  1896  1  0.28400100  0.49186300  0.13276300  1
  C  1897  1  0.24776900  0.51539600  0.13951600  1
  C  1898  1  0.26103600  0.53447300  0.13313300  1
  C  1899  1  0.28648500  0.53128300  0.12600600  1
  C  1902  1  0.29828000  0.51019100  0.12578600  1
  C  1903  1  0.32395400  0.50701200  0.11937600  1
  C  1904  1  0.33554500  0.48598000  0.12014800  1
  C  1909  1  0.25131300  0.55588800  0.13539200  1
  C  1910  1  0.32889200  0.40722500  0.13836100  1
  C  1913  1  0.31809400  0.53658600  0.36319000  1
  C  1914  1  0.29222900  0.53216900  0.35763600  1
  C  1916  1  0.29569200  0.49396300  0.36580800  1
  C  1917  1  0.32170100  0.49724200  0.37189400  1
  C  1918  1  0.33266000  0.51863900  0.37045500  1
  C  1920  1  0.28438900  0.47266300  0.36642600  1
  C  1921  1  0.24853800  0.44874600  0.35960100  1
  C  1922  1  0.26221200  0.42977000  0.36576700  1
  C  1923  1  0.28765800  0.43318800  0.37282200  1
  C  1926  1  0.29905000  0.45443200  0.37320200  1
  C  1927  1  0.32470800  0.45786200  0.37955200  1
  C  1928  1  0.33591800  0.47904000  0.37889700  1
  C  1933  1  0.25287000  0.40828900  0.36325700  1
  C  1934  1  0.32800700  0.55783400  0.36089500  1
  C  1937  1  0.26449000  0.53610300  0.86586700  1
  C  1938  1  0.29038300  0.53211200  0.86017600  1
  C  1940  1  0.28792900  0.49392600  0.86856000  1
  C  1941  1  0.26190600  0.49679400  0.87476400  1
  C  1942  1  0.25040100  0.51798600  0.87326800  1
  C  1944  1  0.29979900  0.47285300  0.86928300  1
  C  1945  1  0.33622600  0.44955500  0.86250000  1
  C  1946  1  0.32315500  0.43040100  0.86892900  1
  C  1947  1  0.29770100  0.43343100  0.87609600  1
  C  1950  1  0.28570900  0.45444200  0.87630800  1
  C  1951  1  0.26002800  0.45746100  0.88275600  1
  C  1952  1  0.24824300  0.47841400  0.88197700  1
  C  1957  1  0.33306600  0.40905200  0.86667700  1
  C  1958  1  0.25413500  0.55717600  0.86365900  1
  C  1961  1  0.26519100  0.42848000  0.64008700  1
  C  1962  1  0.29106200  0.43276300  0.64569900  1
  C  1964  1  0.28792400  0.47096900  0.63746000  1
  C  1965  1  0.26191900  0.46782500  0.63131700  1
  C  1966  1  0.25079100  0.44649100  0.63276000  1
  C  1968  1  0.29939600  0.49220200  0.63683500  1
  C  1969  1  0.33540600  0.51592000  0.64370300  1
  C  1970  1  0.32190800  0.53496000  0.63747800  1
  C  1971  1  0.29646600  0.53167800  0.63037200  1
  C  1974  1  0.28490500  0.51050100  0.62999700  1
  C  1975  1  0.25924900  0.50720400  0.62359300  1
  C  1976  1  0.24787200  0.48609000  0.62425300  1
  C  1981  1  0.33141300  0.55639000  0.63997600  1
  C  1982  1  0.25510900  0.40729300  0.64237500  1
  C  1985  1  0.48894900  0.26882700  0.13891900  1
  C  1986  1  0.48858300  0.24599600  0.14330600  1
  C  1988  1  0.53465600  0.24279200  0.14051200  1
  C  1989  1  0.53652100  0.26576400  0.13648500  1
  C  1990  1  0.51355900  0.27853200  0.13577900  1
  C  1992  1  0.55708400  0.22928400  0.13998600  1
  C  1993  1  0.57646500  0.19326400  0.14129800  1
  C  1994  1  0.60124000  0.20154600  0.13642200  1
  C  1995  1  0.60328200  0.22472300  0.13386900  1
  C  1998  1  0.58149800  0.23875900  0.13548400  1
  C  1999  1  0.58327000  0.26168200  0.13198300  1
  C  2000  1  0.56099500  0.27504900  0.13245800  1
  C  2005  1  0.62237200  0.18798800  0.13205200  1
  C  2006  1  0.46581900  0.27994500  0.13507100  1
  C  2009  1  0.09524100  0.69671800  0.13859100  1
  C  2010  1  0.09571800  0.71958800  0.14282100  1
  C  2012  1  0.04960100  0.72281900  0.14043200  1
  C  2013  1  0.04763400  0.69981400  0.13657300  1
  C  2014  1  0.07056200  0.68701500  0.13574100  1
  C  2016  1  0.02718000  0.73634200  0.14002900  1
  C  2017  1  0.00785200  0.77238700  0.14129700  1
  C  2018  1  0.98298000  0.76408000  0.13671400  1
  C  2019  1  0.98087200  0.74088300  0.13432500  1
  C  2022  1  0.00267600  0.72684500  0.13582000  1
  C  2023  1  0.00081200  0.70389600  0.13248100  1
  C  2024  1  0.02307800  0.69051400  0.13283500  1
  C  2029  1  0.96177300  0.77760700  0.13246000  1
  C  2030  1  0.11828200  0.68553300  0.13461200  1
  C  2033  1  0.48879200  0.69597600  0.36466600  1
  C  2034  1  0.48837300  0.71885600  0.36045900  1
  C  2036  1  0.53446200  0.72203700  0.36310900  1
  C  2037  1  0.53638300  0.69902300  0.36694900  1
  C  2038  1  0.51343900  0.68624300  0.36764200  1
  C  2040  1  0.55688500  0.73553600  0.36361900  1
  C  2041  1  0.57624800  0.77155700  0.36241600  1
  C  2042  1  0.60108700  0.76321600  0.36707500  1
  C  2043  1  0.60315700  0.74001600  0.36947800  1
  C  2046  1  0.58135400  0.72600800  0.36791300  1
  C  2047  1  0.58317800  0.70305000  0.37123800  1
  C  2048  1  0.56090600  0.68969300  0.37078200  1
  C  2053  1  0.62232500  0.77671200  0.37128900  1
  C  2054  1  0.46567200  0.68479100  0.36836800  1
  C  2057  1  0.09527300  0.26782600  0.36499400  1
  C  2058  1  0.09578200  0.24491300  0.36092800  1
  C  2060  1  0.04965700  0.24171000  0.36318300  1
  C  2061  1  0.04765400  0.26475400  0.36687200  1
  C  2062  1  0.07056900  0.27755700  0.36769400  1
  C  2064  1  0.02724100  0.22819800  0.36356800  1
  C  2065  1  0.00791700  0.19215900  0.36238600  1
  C  2066  1  0.98300000  0.20052300  0.36676400  1
  C  2067  1  0.98088100  0.22374000  0.36902400  1
  C  2070  1  0.00269900  0.23774600  0.36758400  1
  C  2071  1  0.00080200  0.26072700  0.37076200  1
  C  2072  1  0.02306700  0.27409600  0.37043100  1
  C  2077  1  0.96169000  0.18705800  0.37083900  1
  C  2078  1  0.11831600  0.27906600  0.36883900  1
  C  2081  1  0.09515200  0.69632100  0.86477700  1
  C  2082  1  0.09531200  0.71914600  0.86035800  1
  C  2084  1  0.04921900  0.72207300  0.86322600  1
  C  2085  1  0.04756600  0.69910500  0.86732300  1
  C  2086  1  0.07063800  0.68648100  0.86800700  1
  C  2088  1  0.02666300  0.73542700  0.86370300  1
  C  2089  1  0.00691900  0.77128800  0.86217000  1
  C  2090  1  0.98221200  0.76286300  0.86705400  1
  C  2091  1  0.98040600  0.73969300  0.86975400  1
  C  2094  1  0.00233800  0.72580800  0.86824000  1
  C  2095  1  0.00078600  0.70289400  0.87184100  1
  C  2096  1  0.02318500  0.68967600  0.87140400  1
  C  2101  1  0.96090400  0.77629500  0.87124700  1
  C  2102  1  0.11839200  0.68530100  0.86846500  1
  C  2105  1  0.48809800  0.26751800  0.86508200  1
  C  2106  1  0.48787300  0.24464800  0.86084800  1
  C  2108  1  0.53402000  0.24176900  0.86330000  1
  C  2109  1  0.53572900  0.26478000  0.86720200  1
  C  2110  1  0.51266300  0.27740100  0.86800400  1
  C  2112  1  0.55660000  0.22843500  0.86366300  1
  C  2113  1  0.57636500  0.19257700  0.86220400  1
  C  2114  1  0.60115200  0.20107700  0.86677700  1
  C  2115  1  0.60297400  0.22427200  0.86928700  1
  C  2118  1  0.58099500  0.23812200  0.86788700  1
  C  2119  1  0.58259200  0.26107100  0.87130000  1
  C  2120  1  0.56017500  0.27426800  0.87097800  1
  C  2125  1  0.62257100  0.18771700  0.87084700  1
  C  2126  1  0.46492400  0.27857700  0.86890200  1
  C  2129  1  0.09532700  0.26845700  0.63692700  1
  C  2130  1  0.09553800  0.24558400  0.64116000  1
  C  2132  1  0.04942400  0.24268900  0.63846900  1
  C  2133  1  0.04771700  0.26570100  0.63456600  1
  C  2134  1  0.07077100  0.27833200  0.63388400  1
  C  2136  1  0.02687200  0.22934500  0.63801500  1
  C  2137  1  0.00714900  0.19348000  0.63942600  1
  C  2138  1  0.98237500  0.20197000  0.63477100  1
  C  2139  1  0.98053900  0.22516400  0.63223500  1
  C  2142  1  0.00249000  0.23902200  0.63370100  1
  C  2143  1  0.00088500  0.26197300  0.63028600  1
  C  2144  1  0.02328100  0.27517900  0.63069800  1
  C  2149  1  0.96096500  0.18860200  0.63072500  1
  C  2150  1  0.11855700  0.27953800  0.63336900  1
  C  2153  1  0.48807700  0.69750200  0.63664400  1
  C  2154  1  0.48781800  0.72041900  0.64069600  1
  C  2156  1  0.53397700  0.72326000  0.63840900  1
  C  2157  1  0.53572300  0.70020600  0.63469800  1
  C  2158  1  0.51267000  0.68758300  0.63390100  1
  C  2160  1  0.55655300  0.73658000  0.63806400  1
  C  2161  1  0.57631400  0.77243700  0.63940500  1
  C  2162  1  0.60114800  0.76387400  0.63505400  1
  C  2163  1  0.60298600  0.74065300  0.63270200  1
  C  2166  1  0.58099000  0.72683600  0.63405500  1
  C  2167  1  0.58262200  0.70385200  0.63082600  1
  C  2168  1  0.56020500  0.69067000  0.63112800  1
  C  2173  1  0.62266800  0.77716700  0.63115000  1
  C  2174  1  0.46490200  0.68639200  0.63294200  1
  C  2177  1  0.75776100  0.14304000  0.20777700  1
  C  2178  1  0.75224400  0.15657600  0.22365000  1
  C  2180  1  0.79095200  0.14521100  0.23965400  1
  C  2181  1  0.79793400  0.13165500  0.22397300  1
  C  2182  1  0.78126600  0.13092200  0.20809100  1
  C  2184  1  0.80669800  0.14554200  0.25609400  1
  C  2185  1  0.81381500  0.15797700  0.28798200  1
  C  2186  1  0.83603500  0.14454600  0.28984600  1
  C  2187  1  0.84387300  0.13190500  0.27393000  1
  C  2190  1  0.82933200  0.13218500  0.25693500  1
  C  2191  1  0.83630800  0.11904000  0.24116400  1
  C  2192  1  0.82075000  0.11882900  0.22476300  1
  C  2197  1  0.84834100  0.14233300  0.30717600  1
  C  2198  1  0.74017000  0.14100400  0.19292100  1
  C  2201  1  0.82811400  0.82157700  0.20971800  1
  C  2202  1  0.83412800  0.80857000  0.22582300  1
  C  2204  1  0.79516400  0.81947900  0.24171400  1
  C  2205  1  0.78769300  0.83247500  0.22579900  1
  C  2206  1  0.80425000  0.83317300  0.20986600  1
  C  2208  1  0.77949500  0.81920700  0.25818800  1
  C  2209  1  0.77282200  0.80737100  0.29029300  1
  C  2210  1  0.75018100  0.82032000  0.29193700  1
  C  2211  1  0.74193100  0.83240400  0.27580900  1
  C  2214  1  0.75645100  0.83206100  0.25881500  1
  C  2215  1  0.74901000  0.84465300  0.24282100  1
  C  2216  1  0.76449500  0.84480700  0.22639500  1
  C  2221  1  0.73769700  0.82253200  0.30919400  1
  C  2222  1  0.84554300  0.82367100  0.19477900  1
  C  2225  1  0.82666600  0.82211400  0.79452000  1
  C  2226  1  0.83202700  0.80863900  0.77858300  1
  C  2228  1  0.79300300  0.81985800  0.76291600  1
  C  2229  1  0.78617400  0.83334800  0.77867500  1
  C  2230  1  0.80308000  0.83412200  0.79442100  1
  C  2232  1  0.77700600  0.81949400  0.74660700  1
  C  2233  1  0.76949300  0.80711800  0.71475300  1
  C  2234  1  0.74716600  0.82045600  0.71309100  1
  C  2235  1  0.73948500  0.83301800  0.72909500  1
  C  2238  1  0.75427700  0.83275100  0.74597500  1
  C  2239  1  0.74746000  0.84582500  0.76182500  1
  C  2240  1  0.76326600  0.84606800  0.77809700  1
  C  2245  1  0.73466700  0.82272300  0.69584100  1
  C  2246  1  0.84443700  0.82418100  0.80925500  1
  C  2249  1  0.75509100  0.14287800  0.79257900  1
  C  2250  1  0.74924300  0.15582400  0.77640700  1
  C  2252  1  0.78850700  0.14503800  0.76084900  1
  C  2253  1  0.79581200  0.13211000  0.77684500  1
  C  2254  1  0.77902200  0.13138000  0.79264400  1
  C  2256  1  0.80442400  0.14533300  0.74450300  1
  C  2257  1  0.81149900  0.15710100  0.71242800  1
  C  2258  1  0.83423100  0.14423300  0.71098700  1
  C  2259  1  0.84231300  0.13223100  0.72720400  1
  C  2262  1  0.82754600  0.13257000  0.74408500  1
  C  2263  1  0.83481600  0.12004900  0.76016000  1
  C  2264  1  0.81908700  0.11987300  0.77646200  1
  C  2269  1  0.84691000  0.14196400  0.69381300  1
  C  2270  1  0.73748200  0.14076300  0.80740100  1
  C  2273  1  0.25743800  0.64136400  0.20797000  1
  C  2274  1  0.25227200  0.65524600  0.22368700  1
  C  2276  1  0.29076100  0.64351800  0.23977500  1
  C  2277  1  0.29737700  0.62956700  0.22426900  1
  C  2278  1  0.28064500  0.62884100  0.20842300  1
  C  2280  1  0.30661000  0.64392600  0.25616100  1
  C  2281  1  0.31420700  0.65691900  0.28781500  1
  C  2282  1  0.33617400  0.64320800  0.28980700  1
  C  2283  1  0.34363600  0.63011700  0.27406400  1
  C  2286  1  0.32897500  0.63025600  0.25712300  1
  C  2287  1  0.33558300  0.61669900  0.24152400  1
  C  2288  1  0.31992600  0.61641000  0.22517600  1
  C  2293  1  0.34857600  0.64122900  0.30712000  1
  C  2294  1  0.23987900  0.63956500  0.19306300  1
  C  2297  1  0.32840800  0.32316400  0.20998400  1
  C  2298  1  0.33414400  0.30989200  0.22598300  1
  C  2300  1  0.29534700  0.32111900  0.24192300  1
  C  2301  1  0.28816500  0.33442600  0.22613100  1
  C  2302  1  0.30477400  0.33510400  0.21022700  1
  C  2304  1  0.27958900  0.32079200  0.25834900  1
  C  2305  1  0.27252300  0.30850500  0.29027800  1
  C  2306  1  0.25007100  0.32167800  0.29200300  1
  C  2307  1  0.24212200  0.33412800  0.27600100  1
  C  2310  1  0.25674800  0.33389800  0.25905500  1
  C  2311  1  0.24959900  0.34681800  0.24318400  1
  C  2312  1  0.26517100  0.34703000  0.22680100  1
  C  2317  1  0.23749200  0.32369400  0.30924100  1
  C  2318  1  0.34580000  0.32501300  0.19499300  1
  C  2321  1  0.32682700  0.32363300  0.79428500  1
  C  2322  1  0.33184200  0.30984800  0.77848000  1
  C  2324  1  0.29302100  0.32145700  0.76275800  1
  C  2325  1  0.28655300  0.33530000  0.77836900  1
  C  2326  1  0.30352500  0.33603700  0.79407500  1
  C  2328  1  0.27691900  0.32105300  0.74650600  1
  C  2329  1  0.26893200  0.30819900  0.71486100  1
  C  2330  1  0.24685300  0.32182000  0.71310100  1
  C  2331  1  0.23954000  0.33478800  0.72895700  1
  C  2334  1  0.25445100  0.33462100  0.74578000  1
  C  2335  1  0.24799900  0.34806800  0.76148100  1
  C  2336  1  0.26390500  0.34835200  0.77769900  1
  C  2341  1  0.23425600  0.32389900  0.69587200  1
  C  2342  1  0.34458100  0.32545100  0.80906100  1
  C  2345  1  0.25462100  0.64120600  0.79233800  1
  C  2346  1  0.24908400  0.65447900  0.77630300  1
  C  2348  1  0.28819400  0.64339500  0.76069700  1
  C  2349  1  0.29517800  0.63009700  0.77654200  1
  C  2350  1  0.27831300  0.62934900  0.79229600  1
  C  2352  1  0.30421900  0.64378600  0.74441300  1
  C  2353  1  0.31173800  0.65609900  0.71254800  1
  C  2354  1  0.33427000  0.64298900  0.71101100  1
  C  2355  1  0.34202300  0.63056800  0.72708100  1
  C  2358  1  0.32713000  0.63075300  0.74390100  1
  C  2359  1  0.33407500  0.61784500  0.75982700  1
  C  2360  1  0.31823700  0.61757100  0.77606900  1
  C  2365  1  0.34704800  0.64094000  0.69385600  1
  C  2366  1  0.23702700  0.63930400  0.80719600  1
  N  23  1  0.95217600  0.12270200  0.18376400  1
  N  24  1  0.94223100  0.06046300  0.14490900  1
  N  25  1  0.83544000  0.16671100  0.13338600  1
  N  26  1  0.87999200  0.13662700  0.08072100  1
  N  49  1  0.05932700  0.84190300  0.18550100  1
  N  50  1  0.06588500  0.90369000  0.14568800  1
  N  51  1  0.17491800  0.79888900  0.13374700  1
  N  52  1  0.12952200  0.82865100  0.08135800  1
  N  75  1  0.94690600  0.84212000  0.31554600  1
  N  76  1  0.94252100  0.90355300  0.35633500  1
  N  77  1  0.83542800  0.79799900  0.37006900  1
  N  78  1  0.88178500  0.82763300  0.42207400  1
  N  101  1  0.06437400  0.12277500  0.31387500  1
  N  102  1  0.06544600  0.06173600  0.35530300  1
  N  103  1  0.17482200  0.16576300  0.36969600  1
  N  104  1  0.12772900  0.13645900  0.42139700  1
  N  127  1  0.05876800  0.84249900  0.81837800  1
  N  128  1  0.06853800  0.90474600  0.85719700  1
  N  129  1  0.17396100  0.79756600  0.86988000  1
  N  130  1  0.12809700  0.82768200  0.92201400  1
  N  153  1  0.94985400  0.12251700  0.81664900  1
  N  154  1  0.94361600  0.06077400  0.85647700  1
  N  155  1  0.83584400  0.16643800  0.86956600  1
  N  156  1  0.88278100  0.13685700  0.92140200  1
  N  179  1  0.06402200  0.12235200  0.68754200  1
  N  180  1  0.06818600  0.06087300  0.64682000  1
  N  181  1  0.17398100  0.16732200  0.63198300  1
  N  182  1  0.12641100  0.13761700  0.58049400  1
  N  205  1  0.94481900  0.84230600  0.68921200  1
  N  206  1  0.94410000  0.90333300  0.64779900  1
  N  207  1  0.83596400  0.79845800  0.63229000  1
  N  208  1  0.88455800  0.82758600  0.58114200  1
  N  231  1  0.45187900  0.62145000  0.18363700  1
  N  232  1  0.44247700  0.56042600  0.14327200  1
  N  233  1  0.33318700  0.66428700  0.13380200  1
  N  234  1  0.38105800  0.63941200  0.08086600  1
  N  257  1  0.55953900  0.34303300  0.18540900  1
  N  258  1  0.56540800  0.40347800  0.14403500  1
  N  259  1  0.67707600  0.30118100  0.13416300  1
  N  260  1  0.62831600  0.32561500  0.08153500  1
  N  283  1  0.44666700  0.34319500  0.31578100  1
  N  284  1  0.44275600  0.40355000  0.35781100  1
  N  285  1  0.33318700  0.30031300  0.36969900  1
  N  286  1  0.38262300  0.32502300  0.42191400  1
  N  309  1  0.56455900  0.62178100  0.31407000  1
  N  310  1  0.56503300  0.56193500  0.35678400  1
  N  311  1  0.67698100  0.66355500  0.36932900  1
  N  312  1  0.62677700  0.63927700  0.42121200  1
  N  335  1  0.55893600  0.34359000  0.81844600  1
  N  336  1  0.56814400  0.40465700  0.85872700  1
  N  337  1  0.67608700  0.29981500  0.86954500  1
  N  338  1  0.62684800  0.32492000  0.92185400  1
  N  361  1  0.44942300  0.62124300  0.81671300  1
  N  362  1  0.44382600  0.56075700  0.85799800  1
  N  363  1  0.33352300  0.66407200  0.86924100  1
  N  364  1  0.38372400  0.63946500  0.92121500  1
  N  387  1  0.56415700  0.62141800  0.68737300  1
  N  388  1  0.56780400  0.56099500  0.64544300  1
  N  389  1  0.67609500  0.66515300  0.63225800  1
  N  390  1  0.62539100  0.64018500  0.58065100  1
  N  413  1  0.44444700  0.34339200  0.68903500  1
  N  414  1  0.44428900  0.40333300  0.64644900  1
  N  415  1  0.33364200  0.30077100  0.63254400  1
  N  416  1  0.38527900  0.32520300  0.58131300  1
  N  419  1  0.91021600  0.14339800  0.01885600  1
  N  429  1  0.90639200  0.13894800  0.97923700  1
  N  443  1  0.09991300  0.82194400  0.01941400  1
  N  453  1  0.10437000  0.82606600  0.97980800  1
  N  467  1  0.91241900  0.82117500  0.48377900  1
  N  477  1  0.90866100  0.82559800  0.52341200  1
  N  491  1  0.09779300  0.14300400  0.48314900  1
  N  501  1  0.10224300  0.13898800  0.52277700  1
  N  515  1  0.41108800  0.64704400  0.01892800  1
  N  525  1  0.40732300  0.64250200  0.97925000  1
  N  539  1  0.59888100  0.31800900  0.01952000  1
  N  549  1  0.60323900  0.32228100  0.97985500  1
  N  563  1  0.41318300  0.31774900  0.48368900  1
  N  573  1  0.40954600  0.32225600  0.52338100  1
  N  587  1  0.59691200  0.64668600  0.48303300  1
  N  597  1  0.60121800  0.64254100  0.52272500  1
  N  611  1  0.99618500  0.95331100  0.14278600  1
  N  621  1  0.97284500  0.99541000  0.14146400  1
  N  635  1  0.99579300  0.01131100  0.35689400  1
  N  645  1  0.97322000  0.96889200  0.35803100  1
  N  659  1  0.01372500  0.01156700  0.85928500  1
  N  669  1  0.03740800  0.96961500  0.86061900  1
  N  683  1  0.01411600  0.95340500  0.64635500  1
  N  693  1  0.03699500  0.99570100  0.64521100  1
  N  707  1  0.49562700  0.45305100  0.14041900  1
  N  717  1  0.47259500  0.49528300  0.13921200  1
  N  731  1  0.49532600  0.51152400  0.35898500  1
  N  741  1  0.47300100  0.46900000  0.36002500  1
  N  755  1  0.51404900  0.51165500  0.86157200  1
  N  765  1  0.53746400  0.46958800  0.86279700  1
  N  779  1  0.51437900  0.45334700  0.64434100  1
  N  789  1  0.53703400  0.49573200  0.64328500  1
  N  803  1  0.72396100  0.23402700  0.14380600  1
  N  813  1  0.76886600  0.20705200  0.14273000  1
  N  827  1  0.28661700  0.73158600  0.14344700  1
  N  837  1  0.24171700  0.75859700  0.14261900  1
  N  851  1  0.72373300  0.73083300  0.35997100  1
  N  861  1  0.76863100  0.75779500  0.36102300  1
  N  875  1  0.28669500  0.23291300  0.36031100  1
  N  885  1  0.24179800  0.20592100  0.36111000  1
  N  899  1  0.28607800  0.73097500  0.85986800  1
  N  909  1  0.24091200  0.75764600  0.86083500  1
  N  923  1  0.72335400  0.23282400  0.86023900  1
  N  933  1  0.76857800  0.20618600  0.86097300  1
  N  947  1  0.28632200  0.23375000  0.64165100  1
  N  957  1  0.24115700  0.20709600  0.64072200  1
  N  971  1  0.72328800  0.73224400  0.64130200  1
  N  981  1  0.76851100  0.75885700  0.64059600  1
  N  995  1  0.98171700  0.15706900  0.23878000  1
  N  1005  1  0.01314700  0.15783500  0.27153800  1
  N  1019  1  0.03100000  0.80809900  0.24100200  1
  N  1029  1  0.99970400  0.80744000  0.27384100  1
  N  1043  1  0.02857600  0.80810500  0.76358500  1
  N  1053  1  0.99665200  0.80727400  0.73108500  1
  N  1067  1  0.97884600  0.15632500  0.76135900  1
  N  1077  1  0.01062900  0.15702700  0.72877200  1
  N  1091  1  0.48180000  0.65572800  0.23878500  1
  N  1101  1  0.51341900  0.65663700  0.27143100  1
  N  1115  1  0.53097100  0.30944600  0.24113600  1
  N  1125  1  0.49951300  0.30868600  0.27387600  1
  N  1139  1  0.52833100  0.30935400  0.76352100  1
  N  1149  1  0.49621200  0.30845400  0.73113500  1
  N  1163  1  0.47875300  0.65499300  0.76129500  1
  N  1173  1  0.51074000  0.65587500  0.72883000  1
  N  1207  1  0.73905100  0.12270200  0.18376400  1
  N  1208  1  0.72910600  0.06046300  0.14490900  1
  N  1209  1  0.62231500  0.16671100  0.13338600  1
  N  1210  1  0.66686700  0.13662700  0.08072100  1
  N  1233  1  0.84620200  0.84190300  0.18550100  1
  N  1234  1  0.85276000  0.90369000  0.14568800  1
  N  1235  1  0.96179300  0.79888900  0.13374700  1
  N  1236  1  0.91639700  0.82865100  0.08135800  1
  N  1259  1  0.73378100  0.84212000  0.31554600  1
  N  1260  1  0.72939600  0.90355300  0.35633500  1
  N  1261  1  0.62230300  0.79799900  0.37006900  1
  N  1262  1  0.66866000  0.82763300  0.42207400  1
  N  1285  1  0.85124900  0.12277500  0.31387500  1
  N  1286  1  0.85232100  0.06173600  0.35530300  1
  N  1287  1  0.96169700  0.16576300  0.36969600  1
  N  1288  1  0.91460400  0.13645900  0.42139700  1
  N  1311  1  0.84564300  0.84249900  0.81837800  1
  N  1312  1  0.85541300  0.90474600  0.85719700  1
  N  1313  1  0.96083600  0.79756600  0.86988000  1
  N  1314  1  0.91497200  0.82768200  0.92201400  1
  N  1337  1  0.73672900  0.12251700  0.81664900  1
  N  1338  1  0.73049100  0.06077400  0.85647700  1
  N  1339  1  0.62271900  0.16643800  0.86956600  1
  N  1340  1  0.66965600  0.13685700  0.92140200  1
  N  1363  1  0.85089700  0.12235200  0.68754200  1
  N  1364  1  0.85506100  0.06087300  0.64682000  1
  N  1365  1  0.96085600  0.16732200  0.63198300  1
  N  1366  1  0.91328600  0.13761700  0.58049400  1
  N  1389  1  0.73169400  0.84230600  0.68921200  1
  N  1390  1  0.73097500  0.90333300  0.64779900  1
  N  1391  1  0.62283900  0.79845800  0.63229000  1
  N  1392  1  0.67143300  0.82758600  0.58114200  1
  N  1415  1  0.23875400  0.62145000  0.18363700  1
  N  1416  1  0.22935200  0.56042600  0.14327200  1
  N  1417  1  0.12006200  0.66428700  0.13380200  1
  N  1418  1  0.16793300  0.63941200  0.08086600  1
  N  1441  1  0.34641400  0.34303300  0.18540900  1
  N  1442  1  0.35228300  0.40347800  0.14403500  1
  N  1443  1  0.46395100  0.30118100  0.13416300  1
  N  1444  1  0.41519100  0.32561500  0.08153500  1
  N  1467  1  0.23354200  0.34319500  0.31578100  1
  N  1468  1  0.22963100  0.40355000  0.35781100  1
  N  1469  1  0.12006200  0.30031300  0.36969900  1
  N  1470  1  0.16949800  0.32502300  0.42191400  1
  N  1493  1  0.35143400  0.62178100  0.31407000  1
  N  1494  1  0.35190800  0.56193500  0.35678400  1
  N  1495  1  0.46385600  0.66355500  0.36932900  1
  N  1496  1  0.41365200  0.63927700  0.42121200  1
  N  1519  1  0.34581100  0.34359000  0.81844600  1
  N  1520  1  0.35501900  0.40465700  0.85872700  1
  N  1521  1  0.46296200  0.29981500  0.86954500  1
  N  1522  1  0.41372300  0.32492000  0.92185400  1
  N  1545  1  0.23629800  0.62124300  0.81671300  1
  N  1546  1  0.23070100  0.56075700  0.85799800  1
  N  1547  1  0.12039800  0.66407200  0.86924100  1
  N  1548  1  0.17059900  0.63946500  0.92121500  1
  N  1571  1  0.35103200  0.62141800  0.68737300  1
  N  1572  1  0.35467900  0.56099500  0.64544300  1
  N  1573  1  0.46297000  0.66515300  0.63225800  1
  N  1574  1  0.41226600  0.64018500  0.58065100  1
  N  1597  1  0.23132200  0.34339200  0.68903500  1
  N  1598  1  0.23116400  0.40333300  0.64644900  1
  N  1599  1  0.12051700  0.30077100  0.63254400  1
  N  1600  1  0.17215400  0.32520300  0.58131300  1
  N  1603  1  0.69709100  0.14339800  0.01885600  1
  N  1613  1  0.69326700  0.13894800  0.97923700  1
  N  1627  1  0.88678800  0.82194400  0.01941400  1
  N  1637  1  0.89124500  0.82606600  0.97980800  1
  N  1651  1  0.69929400  0.82117500  0.48377900  1
  N  1661  1  0.69553600  0.82559800  0.52341200  1
  N  1675  1  0.88466800  0.14300400  0.48314900  1
  N  1685  1  0.88911800  0.13898800  0.52277700  1
  N  1699  1  0.19796300  0.64704400  0.01892800  1
  N  1709  1  0.19419800  0.64250200  0.97925000  1
  N  1723  1  0.38575600  0.31800900  0.01952000  1
  N  1733  1  0.39011400  0.32228100  0.97985500  1
  N  1747  1  0.20005800  0.31774900  0.48368900  1
  N  1757  1  0.19642100  0.32225600  0.52338100  1
  N  1771  1  0.38378700  0.64668600  0.48303300  1
  N  1781  1  0.38809300  0.64254100  0.52272500  1
  N  1795  1  0.78306000  0.95331100  0.14278600  1
  N  1805  1  0.75972000  0.99541000  0.14146400  1
  N  1819  1  0.78266800  0.01131100  0.35689400  1
  N  1829  1  0.76009500  0.96889200  0.35803100  1
  N  1843  1  0.80060000  0.01156700  0.85928500  1
  N  1853  1  0.82428300  0.96961500  0.86061900  1
  N  1867  1  0.80099100  0.95340500  0.64635500  1
  N  1877  1  0.82387000  0.99570100  0.64521100  1
  N  1891  1  0.28250200  0.45305100  0.14041900  1
  N  1901  1  0.25947000  0.49528300  0.13921200  1
  N  1915  1  0.28220100  0.51152400  0.35898500  1
  N  1925  1  0.25987600  0.46900000  0.36002500  1
  N  1939  1  0.30092400  0.51165500  0.86157200  1
  N  1949  1  0.32433900  0.46958800  0.86279700  1
  N  1963  1  0.30125400  0.45334700  0.64434100  1
  N  1973  1  0.32390900  0.49573200  0.64328500  1
  N  1987  1  0.51083600  0.23402700  0.14380600  1
  N  1997  1  0.55574100  0.20705200  0.14273000  1
  N  2011  1  0.07349200  0.73158600  0.14344700  1
  N  2021  1  0.02859200  0.75859700  0.14261900  1
  N  2035  1  0.51060800  0.73083300  0.35997100  1
  N  2045  1  0.55550600  0.75779500  0.36102300  1
  N  2059  1  0.07357000  0.23291300  0.36031100  1
  N  2069  1  0.02867300  0.20592100  0.36111000  1
  N  2083  1  0.07295300  0.73097500  0.85986800  1
  N  2093  1  0.02778700  0.75764600  0.86083500  1
  N  2107  1  0.51022900  0.23282400  0.86023900  1
  N  2117  1  0.55545300  0.20618600  0.86097300  1
  N  2131  1  0.07319700  0.23375000  0.64165100  1
  N  2141  1  0.02803200  0.20709600  0.64072200  1
  N  2155  1  0.51016300  0.73224400  0.64130200  1
  N  2165  1  0.55538600  0.75885700  0.64059600  1
  N  2179  1  0.76859200  0.15706900  0.23878000  1
  N  2189  1  0.80002200  0.15783500  0.27153800  1
  N  2203  1  0.81787500  0.80809900  0.24100200  1
  N  2213  1  0.78657900  0.80744000  0.27384100  1
  N  2227  1  0.81545100  0.80810500  0.76358500  1
  N  2237  1  0.78352700  0.80727400  0.73108500  1
  N  2251  1  0.76572100  0.15632500  0.76135900  1
  N  2261  1  0.79750400  0.15702700  0.72877200  1
  N  2275  1  0.26867500  0.65572800  0.23878500  1
  N  2285  1  0.30029400  0.65663700  0.27143100  1
  N  2299  1  0.31784600  0.30944600  0.24113600  1
  N  2309  1  0.28638800  0.30868600  0.27387600  1
  N  2323  1  0.31520600  0.30935400  0.76352100  1
  N  2333  1  0.28308700  0.30845400  0.73113500  1
  N  2347  1  0.26562800  0.65499300  0.76129500  1
  N  2357  1  0.29761500  0.65587500  0.72883000  1
  O  8  1  0.84197900  0.16294500  0.09470700  1
  O  15  1  0.96469600  0.08095000  0.17518300  1
  O  17  1  0.86485400  0.14136700  0.15824300  1
  O  18  1  0.90210500  0.08019900  0.12508200  1
  O  34  1  0.16794700  0.80267700  0.09512700  1
  O  41  1  0.04570200  0.88319900  0.17714000  1
  O  43  1  0.14572500  0.82413300  0.15876600  1
  O  44  1  0.10591900  0.88459700  0.12545600  1
  O  60  1  0.84320500  0.80158900  0.40865500  1
  O  67  1  0.96153700  0.88338100  0.32430300  1
  O  69  1  0.86389500  0.82347400  0.34487500  1
  O  70  1  0.90440000  0.88370800  0.37786400  1
  O  86  1  0.16669600  0.16214600  0.40821100  1
  O  93  1  0.04859000  0.08185900  0.32243400  1
  O  95  1  0.14650400  0.14042200  0.34433500  1
  O  96  1  0.10361900  0.08088500  0.37720800  1
  O  112  1  0.16572900  0.80065400  0.90847200  1
  O  119  1  0.04645600  0.88434700  0.82674700  1
  O  121  1  0.14594400  0.82354600  0.84470100  1
  O  122  1  0.10831700  0.88491000  0.87734600  1
  O  138  1  0.84464400  0.16347500  0.90808800  1
  O  145  1  0.96331100  0.08113900  0.82482300  1
  O  147  1  0.86361200  0.14051700  0.84424700  1
  O  148  1  0.90396300  0.07997200  0.87705300  1
  O  164  1  0.16457700  0.16440600  0.59350700  1
  O  171  1  0.04955000  0.08100600  0.67897000  1
  O  173  1  0.14686600  0.14122300  0.65745200  1
  O  174  1  0.10597800  0.08076900  0.62500200  1
  O  190  1  0.84588700  0.80123500  0.59390000  1
  O  197  1  0.96047200  0.88329500  0.68082300  1
  O  199  1  0.86287500  0.82448200  0.65790900  1
  O  200  1  0.90631600  0.88410200  0.62557100  1
  O  216  1  0.34158000  0.66392000  0.09545000  1
  O  223  1  0.46459200  0.58000300  0.17414100  1
  O  225  1  0.36343500  0.63883200  0.15813200  1
  O  226  1  0.40287700  0.58098500  0.12340200  1
  O  242  1  0.66822500  0.30149300  0.09588700  1
  O  249  1  0.54561100  0.38398200  0.17605800  1
  O  251  1  0.64701800  0.32653100  0.15864900  1
  O  252  1  0.60495200  0.38355100  0.12376900  1
  O  268  1  0.34264800  0.30068800  0.40793300  1
  O  275  1  0.46148600  0.38418400  0.32531100  1
  O  277  1  0.36252600  0.32585200  0.34500600  1
  O  278  1  0.40510100  0.38295200  0.37934700  1
  O  294  1  0.66714800  0.66321700  0.40748600  1
  O  301  1  0.54847900  0.58118400  0.32347100  1
  O  303  1  0.64776300  0.63815300  0.34447500  1
  O  304  1  0.60277000  0.58184400  0.37869800  1
  O  320  1  0.66598100  0.29963100  0.90773900  1
  O  327  1  0.54641300  0.38514000  0.82770600  1
  O  329  1  0.64726200  0.32585500  0.84483600  1
  O  330  1  0.60741700  0.38403100  0.87890900  1
  O  346  1  0.34413700  0.66437100  0.90734100  1
  O  353  1  0.46317700  0.58018500  0.82582200  1
  O  355  1  0.36209300  0.63807500  0.84438600  1
  O  356  1  0.40462300  0.58073500  0.87858400  1
  O  372  1  0.66498700  0.66531600  0.59419200  1
  O  379  1  0.54945900  0.58034500  0.67804600  1
  O  381  1  0.64813200  0.63904800  0.65728800  1
  O  382  1  0.60514100  0.58160900  0.62362000  1
  O  398  1  0.34521100  0.30049700  0.59458000  1
  O  405  1  0.46041300  0.38408500  0.67986700  1
  O  407  1  0.36140600  0.32679600  0.65773200  1
  O  408  1  0.40689300  0.38341700  0.62423200  1
  O  1192  1  0.62885400  0.16294500  0.09470700  1
  O  1199  1  0.75157100  0.08095000  0.17518300  1
  O  1201  1  0.65172900  0.14136700  0.15824300  1
  O  1202  1  0.68898000  0.08019900  0.12508200  1
  O  1218  1  0.95482200  0.80267700  0.09512700  1
  O  1225  1  0.83257700  0.88319900  0.17714000  1
  O  1227  1  0.93260000  0.82413300  0.15876600  1
  O  1228  1  0.89279400  0.88459700  0.12545600  1
  O  1244  1  0.63008000  0.80158900  0.40865500  1
  O  1251  1  0.74841200  0.88338100  0.32430300  1
  O  1253  1  0.65077000  0.82347400  0.34487500  1
  O  1254  1  0.69127500  0.88370800  0.37786400  1
  O  1270  1  0.95357100  0.16214600  0.40821100  1
  O  1277  1  0.83546500  0.08185900  0.32243400  1
  O  1279  1  0.93337900  0.14042200  0.34433500  1
  O  1280  1  0.89049400  0.08088500  0.37720800  1
  O  1296  1  0.95260400  0.80065400  0.90847200  1
  O  1303  1  0.83333100  0.88434700  0.82674700  1
  O  1305  1  0.93281900  0.82354600  0.84470100  1
  O  1306  1  0.89519200  0.88491000  0.87734600  1
  O  1322  1  0.63151900  0.16347500  0.90808800  1
  O  1329  1  0.75018600  0.08113900  0.82482300  1
  O  1331  1  0.65048700  0.14051700  0.84424700  1
  O  1332  1  0.69083800  0.07997200  0.87705300  1
  O  1348  1  0.95145200  0.16440600  0.59350700  1
  O  1355  1  0.83642500  0.08100600  0.67897000  1
  O  1357  1  0.93374100  0.14122300  0.65745200  1
  O  1358  1  0.89285300  0.08076900  0.62500200  1
  O  1374  1  0.63276200  0.80123500  0.59390000  1
  O  1381  1  0.74734700  0.88329500  0.68082300  1
  O  1383  1  0.64975000  0.82448200  0.65790900  1
  O  1384  1  0.69319100  0.88410200  0.62557100  1
  O  1400  1  0.12845500  0.66392000  0.09545000  1
  O  1407  1  0.25146700  0.58000300  0.17414100  1
  O  1409  1  0.15031000  0.63883200  0.15813200  1
  O  1410  1  0.18975200  0.58098500  0.12340200  1
  O  1426  1  0.45510000  0.30149300  0.09588700  1
  O  1433  1  0.33248600  0.38398200  0.17605800  1
  O  1435  1  0.43389300  0.32653100  0.15864900  1
  O  1436  1  0.39182700  0.38355100  0.12376900  1
  O  1452  1  0.12952300  0.30068800  0.40793300  1
  O  1459  1  0.24836100  0.38418400  0.32531100  1
  O  1461  1  0.14940100  0.32585200  0.34500600  1
  O  1462  1  0.19197600  0.38295200  0.37934700  1
  O  1478  1  0.45402300  0.66321700  0.40748600  1
  O  1485  1  0.33535400  0.58118400  0.32347100  1
  O  1487  1  0.43463800  0.63815300  0.34447500  1
  O  1488  1  0.38964500  0.58184400  0.37869800  1
  O  1504  1  0.45285600  0.29963100  0.90773900  1
  O  1511  1  0.33333333  0.38514000  0.82770600  1
  O  1513  1  0.43413700  0.32585500  0.84483600  1
  O  1514  1  0.39429200  0.38403100  0.87890900  1
  O  1530  1  0.13101200  0.66437100  0.90734100  1
  O  1537  1  0.25005200  0.58018500  0.82582200  1
  O  1539  1  0.14896800  0.63807500  0.84438600  1
  O  1540  1  0.19149800  0.58073500  0.87858400  1
  O  1556  1  0.45186200  0.66531600  0.59419200  1
  O  1563  1  0.33633400  0.58034500  0.67804600  1
  O  1565  1  0.43500700  0.63904800  0.65728800  1
  O  1566  1  0.39201600  0.58160900  0.62362000  1
  O  1582  1  0.13208600  0.30049700  0.59458000  1
  O  1589  1  0.24728800  0.38408500  0.67986700  1
  O  1591  1  0.14828100  0.32679600  0.65773200  1
  O  1592  1  0.19376800  0.38341700  0.62423200  1
