# generated using pymatgen
data_H10C14N3
_symmetry_space_group_name_H-M   'P 1'
_cell_length_a   37.26560000
_cell_length_b   61.70120000
_cell_length_c   61.70120000
_cell_angle_alpha   120.00000000
_cell_angle_beta   90.00000000
_cell_angle_gamma   90.00000000
_symmetry_Int_Tables_number   1
_chemical_formula_structural   H10C14N3
_chemical_formula_sum   'H480 C672 N144'
_cell_volume   122864.37358628
_cell_formula_units_Z   48
loop_
 _symmetry_equiv_pos_site_id
 _symmetry_equiv_pos_as_xyz
  1  'x, y, z'
loop_
 _atom_site_type_symbol
 _atom_site_label
 _atom_site_symmetry_multiplicity
 _atom_site_fract_x
 _atom_site_fract_y
 _atom_site_fract_z
 _atom_site_occupancy
  H  1  1  0.81770200  0.98899800  0.60120800  1
  H  4  1  0.75898400  0.99172200  0.58711500  1
  H  6  1  0.62897400  0.99103900  0.33463000  1
  H  7  1  0.75549300  0.99215000  0.35778500  1
  H  8  1  0.94898100  0.99724800  0.62711500  1
  H  15  1  0.52507400  0.97952200  0.57852500  1
  H  18  1  0.38322300  0.98066700  0.31567700  1
  H  19  1  0.92035200  0.98053400  0.33657800  1
  H  20  1  0.37174500  0.97902900  0.60462900  1
  H  23  1  0.55125100  0.96884700  0.29610400  1
  H  25  1  0.80417600  0.97536300  0.32330300  1
  H  28  1  0.58464900  0.97430100  0.59251800  1
  H  34  1  0.88797500  0.97654300  0.28661800  1
  H  42  1  0.80348100  0.68326500  0.08224500  1
  H  43  1  0.90727100  0.68485200  0.05590100  1
  H  44  1  0.81761600  0.67263600  0.01004400  1
  H  51  1  0.84480200  0.65937400  0.09648500  1
  H  52  1  0.91671700  0.69767900  0.15619700  1
  H  53  1  0.90716500  0.71860600  0.10138900  1
  H  64  1  0.80349400  0.45941700  0.31571500  1
  H  65  1  0.90728200  0.43147600  0.31411500  1
  H  66  1  0.81762100  0.39780600  0.32628600  1
  H  73  1  0.84480000  0.49754100  0.33962200  1
  H  74  1  0.91671300  0.51897900  0.30133500  1
  H  75  1  0.90713700  0.44322600  0.28035300  1
  H  84  1  0.80359700  0.91679400  0.53963800  1
  H  85  1  0.90737300  0.94314500  0.56759600  1
  H  92  1  0.84491400  0.90252300  0.50152100  1
  H  93  1  0.91679900  0.84279700  0.48015700  1
  H  94  1  0.90724100  0.89765900  0.55589200  1
  H  104  1  0.30361600  0.35628700  0.87614000  1
  H  105  1  0.40739800  0.35467100  0.90247700  1
  H  106  1  0.31773600  0.36687200  0.94832500  1
  H  113  1  0.34494900  0.38019800  0.86192900  1
  H  114  1  0.41687300  0.34193600  0.80221300  1
  H  115  1  0.40728500  0.32092700  0.85697100  1
  H  126  1  0.30354600  0.58027100  0.64267400  1
  H  127  1  0.40732500  0.60822400  0.64428000  1
  H  128  1  0.31765800  0.64186000  0.63207100  1
  H  135  1  0.34490600  0.54214800  0.61876400  1
  H  136  1  0.41680300  0.52074200  0.65708000  1
  H  137  1  0.40719600  0.59648300  0.67804000  1
  H  148  1  0.30357000  0.12287500  0.41881900  1
  H  149  1  0.40735500  0.09652800  0.39087600  1
  H  150  1  0.31769000  0.05068800  0.35721700  1
  H  157  1  0.34486800  0.13709800  0.45694200  1
  H  158  1  0.41678200  0.19682200  0.47837700  1
  H  159  1  0.40722600  0.14203900  0.40262800  1
  H  170  1  0.03804700  0.57466300  0.88388300  1
  H  171  1  0.97384400  0.62446100  0.87233000  1
  H  172  1  0.05131400  0.65198100  0.92829900  1
  H  179  1  0.01900500  0.54493800  0.84862400  1
  H  180  1  0.93285400  0.51815600  0.79878400  1
  H  181  1  0.93736400  0.59386400  0.85162500  1
  H  192  1  0.03800600  0.11510000  0.62930100  1
  H  193  1  0.97394200  0.12679500  0.69075600  1
  H  194  1  0.05123800  0.07070900  0.66223200  1
  H  201  1  0.01911500  0.15042600  0.63490100  1
  H  202  1  0.93297000  0.20027000  0.65790800  1
  H  203  1  0.93738900  0.14741700  0.68076800  1
  H  214  1  0.03797100  0.36969200  0.42438400  1
  H  215  1  0.97389000  0.30828200  0.37454700  1
  H  216  1  0.05121700  0.33686800  0.34706900  1
  H  223  1  0.01886500  0.36420900  0.45411900  1
  H  224  1  0.93281500  0.34099900  0.48083300  1
  H  225  1  0.93741100  0.31811400  0.40513700  1
  H  236  1  0.53801900  0.46496100  0.07452300  1
  H  237  1  0.47384800  0.41518700  0.08613600  1
  H  238  1  0.55127000  0.38763400  0.03013200  1
  H  245  1  0.51899900  0.49470600  0.10978100  1
  H  246  1  0.43285000  0.52151000  0.15962500  1
  H  247  1  0.43738200  0.44579300  0.10684800  1
  H  258  1  0.53794400  0.92444300  0.32901700  1
  H  259  1  0.47374800  0.91289800  0.26766300  1
  H  266  1  0.51888900  0.88919000  0.32348400  1
  H  267  1  0.43271300  0.83937100  0.30044000  1
  H  268  1  0.43725400  0.89220500  0.27756500  1
  H  279  1  0.53801100  0.66986600  0.53402100  1
  H  280  1  0.47398400  0.73134600  0.58378000  1
  H  281  1  0.55125400  0.70280700  0.61134300  1
  H  288  1  0.51913600  0.67547600  0.50429400  1
  H  289  1  0.43300000  0.69849400  0.47745900  1
  H  290  1  0.43742000  0.72135400  0.55317200  1
  H  301  1  0.05716600  0.36321200  0.86680600  1
  H  302  1  0.94723700  0.36636100  0.88404300  1
  H  303  1  0.02510400  0.38018000  0.93891600  1
  H  310  1  0.00595800  0.39446400  0.85373200  1
  H  311  1  0.97429200  0.34354500  0.77992000  1
  H  312  1  0.97778400  0.32084200  0.83386200  1
  H  323  1  0.05709400  0.56397000  0.63576600  1
  H  324  1  0.94716500  0.57807500  0.63264000  1
  H  325  1  0.02503200  0.61908900  0.61876600  1
  H  332  1  0.00585600  0.51964400  0.60454200  1
  H  333  1  0.97418400  0.49680400  0.65550100  1
  H  334  1  0.97773300  0.57343700  0.67816200  1
  H  345  1  0.05710700  0.13215700  0.43508000  1
  H  346  1  0.94718200  0.11490900  0.42099100  1
  H  347  1  0.02506100  0.06003500  0.37995600  1
  H  354  1  0.00593700  0.14527500  0.47941900  1
  H  355  1  0.97425300  0.21906500  0.50224000  1
  H  356  1  0.97769700  0.16505700  0.42561200  1
  H  367  1  0.55704000  0.67638800  0.09163500  1
  H  368  1  0.44711000  0.67320000  0.07438500  1
  H  369  1  0.52497800  0.65934000  0.01950100  1
  H  376  1  0.50582100  0.64514400  0.10472900  1
  H  377  1  0.47416200  0.69609700  0.17853200  1
  H  378  1  0.47766100  0.71875700  0.12455700  1
  H  389  1  0.55703200  0.47565900  0.32267900  1
  H  390  1  0.44710400  0.46154900  0.32581400  1
  H  391  1  0.52498900  0.42051000  0.33964200  1
  H  398  1  0.50583400  0.51998000  0.35390900  1
  H  399  1  0.47420700  0.54284100  0.30295900  1
  H  400  1  0.47764500  0.46620400  0.28029800  1
  H  411  1  0.55713900  0.90741100  0.52338800  1
  H  412  1  0.44720900  0.92463400  0.53750300  1
  H  419  1  0.50590100  0.89432700  0.47907200  1
  H  420  1  0.47424700  0.82051600  0.45619600  1
  H  421  1  0.47778700  0.87446200  0.53283900  1
  H  431  1  0.78396200  0.48042500  0.08372000  1
  H  432  1  0.87733500  0.44177800  0.08310000  1
  H  433  1  0.80427100  0.40837200  0.02352200  1
  H  440  1  0.83466700  0.51384700  0.10244300  1
  H  441  1  0.86579100  0.53899900  0.17672800  1
  H  442  1  0.85193400  0.46213500  0.12694600  1
  H  453  1  0.78405200  0.91517500  0.33521400  1
  H  454  1  0.87744700  0.91591800  0.29726500  1
  H  461  1  0.83490600  0.89657300  0.35001400  1
  H  462  1  0.86604700  0.82228300  0.30089700  1
  H  463  1  0.85207600  0.87202800  0.27378100  1
  H  474  1  0.78390100  0.66381700  0.51861100  1
  H  475  1  0.87733500  0.70176400  0.55724500  1
  H  476  1  0.80424300  0.67562200  0.59065700  1
  H  483  1  0.83469100  0.64906800  0.48519400  1
  H  484  1  0.86585300  0.69819000  0.46003300  1
  H  485  1  0.85193300  0.72528800  0.53689500  1
  H  496  1  0.28401000  0.55917000  0.87458800  1
  H  497  1  0.37742100  0.59784500  0.87532200  1
  H  498  1  0.30424600  0.63124400  0.93483300  1
  H  505  1  0.33482900  0.52578700  0.85596200  1
  H  506  1  0.36603000  0.50061500  0.78168500  1
  H  507  1  0.35203000  0.57747500  0.83142200  1
  H  518  1  0.28396200  0.12434600  0.62314100  1
  H  519  1  0.37732400  0.12370100  0.66116600  1
  H  520  1  0.30424400  0.06413000  0.63497400  1
  H  527  1  0.33468200  0.14305400  0.60844200  1
  H  528  1  0.36583100  0.21733500  0.65757100  1
  H  529  1  0.35194400  0.16755900  0.68465900  1
  H  540  1  0.28402400  0.37578700  0.43980100  1
  H  541  1  0.37740800  0.33782700  0.40110500  1
  H  542  1  0.30414200  0.36387100  0.36770000  1
  H  549  1  0.33487500  0.39059200  0.47319700  1
  H  550  1  0.36603800  0.34149700  0.49839200  1
  H  551  1  0.35205200  0.31435500  0.42152800  1
  H  562  1  0.93184300  0.80192600  0.24120200  1
  H  563  1  0.96537400  0.77011800  0.20777100  1
  H  564  1  0.88339600  0.76136500  0.15710700  1
  H  566  1  0.82991300  0.78482900  0.17206800  1
  H  567  1  0.82320900  0.80566600  0.20188400  1
  H  569  1  0.97494400  0.75277200  0.16085500  1
  H  571  1  0.85945500  0.83419400  0.23576800  1
  H  578  1  0.93169500  0.49972300  0.19707200  1
  H  579  1  0.96525100  0.49813700  0.22889000  1
  H  580  1  0.88340400  0.45611300  0.23759900  1
  H  582  1  0.82993300  0.44753900  0.21410700  1
  H  583  1  0.82319200  0.45651300  0.19326900  1
  H  585  1  0.97491200  0.46853900  0.24620500  1
  H  587  1  0.85941000  0.46192800  0.16476100  1
  H  594  1  0.93172900  0.75784000  0.49938200  1
  H  595  1  0.96532300  0.79125400  0.50102000  1
  H  596  1  0.88339900  0.84196800  0.54294200  1
  H  598  1  0.82988100  0.82703600  0.55143900  1
  H  599  1  0.82313100  0.79722200  0.54245000  1
  H  601  1  0.97494800  0.83816500  0.53063200  1
  H  603  1  0.85933400  0.76330900  0.53708600  1
  H  610  1  0.43172600  0.23769500  0.71715800  1
  H  611  1  0.46530900  0.26951100  0.75054400  1
  H  612  1  0.38355000  0.27819800  0.80132800  1
  H  614  1  0.33007700  0.25470400  0.78644000  1
  H  615  1  0.32330100  0.23387000  0.75662900  1
  H  617  1  0.47505000  0.28681100  0.79743900  1
  H  619  1  0.35948200  0.20536900  0.72268000  1
  H  626  1  0.43183300  0.53995300  0.76132800  1
  H  627  1  0.46537900  0.54158800  0.72953100  1
  H  628  1  0.38341600  0.58351400  0.72078600  1
  H  630  1  0.32992400  0.59201000  0.74424000  1
  H  631  1  0.32321000  0.58302100  0.76506900  1
  H  633  1  0.47496100  0.57118600  0.71221600  1
  H  635  1  0.35945300  0.57765900  0.79359700  1
  H  642  1  0.43184100  0.28182300  0.45909200  1
  H  643  1  0.46539200  0.24841300  0.45749600  1
  H  644  1  0.38346100  0.19771000  0.41557200  1
  H  646  1  0.32997200  0.21264200  0.40704200  1
  H  647  1  0.32324800  0.24245300  0.41600500  1
  H  649  1  0.47500400  0.20150000  0.42794100  1
  H  651  1  0.35947100  0.27634700  0.42136100  1
  H  658  1  0.90358800  0.53384000  0.71386700  1
  H  659  1  0.87420200  0.53434400  0.74829500  1
  H  660  1  0.95160900  0.58443000  0.79750500  1
  H  662  1  0.00049500  0.59640700  0.78145200  1
  H  663  1  0.00554200  0.58670800  0.75133500  1
  H  665  1  0.86426300  0.56435000  0.79568400  1
  H  667  1  0.96682200  0.57616100  0.71682200  1
  H  674  1  0.90368800  0.28520600  0.75850500  1
  H  675  1  0.87431600  0.25079700  0.72455200  1
  H  676  1  0.95156300  0.20153500  0.72550300  1
  H  678  1  0.00039500  0.21755500  0.75358100  1
  H  679  1  0.00547000  0.24766800  0.77400300  1
  H  681  1  0.86429100  0.20341300  0.70715300  1
  H  683  1  0.96677100  0.28220800  0.79793200  1
  H  690  1  0.90356400  0.24036800  0.46517700  1
  H  691  1  0.87420200  0.27428900  0.46465000  1
  H  692  1  0.95163600  0.27337000  0.41455900  1
  H  694  1  0.00050500  0.24532800  0.40259500  1
  H  695  1  0.00553400  0.22492000  0.41230900  1
  H  697  1  0.86429600  0.29164900  0.43461500  1
  H  699  1  0.96678700  0.20097600  0.42286900  1
  H  706  1  0.40357100  0.50584500  0.24459600  1
  H  707  1  0.37420900  0.50534900  0.21016200  1
  H  708  1  0.45155900  0.45520000  0.16095600  1
  H  710  1  0.50040800  0.44319400  0.17701000  1
  H  711  1  0.50545300  0.45289800  0.20712800  1
  H  713  1  0.36425300  0.47533300  0.16277100  1
  H  715  1  0.46672000  0.46348200  0.24164600  1
  H  722  1  0.40351200  0.75444900  0.19985000  1
  H  723  1  0.37410700  0.78887600  0.23376400  1
  H  724  1  0.45148400  0.83809800  0.23288200  1
  H  726  1  0.50037900  0.82205400  0.20486100  1
  H  727  1  0.50544800  0.79193600  0.18445000  1
  H  729  1  0.36414300  0.83626600  0.25113300  1
  H  731  1  0.46674500  0.75741200  0.16048700  1
  H  738  1  0.40368900  0.79910400  0.49313200  1
  H  739  1  0.37432700  0.76514600  0.49358600  1
  H  740  1  0.45160200  0.76609000  0.54378000  1
  H  742  1  0.50043200  0.79417000  0.55583300  1
  H  743  1  0.50549300  0.81459700  0.54614700  1
  H  745  1  0.36432000  0.74773900  0.52356400  1
  H  747  1  0.46678500  0.83852800  0.53554600  1
  H  754  1  0.64546700  0.68847100  0.07021300  1
  H  755  1  0.70889000  0.68589500  0.06684200  1
  H  756  1  0.70082900  0.64707100  0.98816200  1
  H  758  1  0.64382700  0.63755400  0.96903500  1
  H  759  1  0.60589200  0.64539500  0.98509500  1
  H  761  1  0.75888200  0.65586100  0.00731200  1
  H  763  1  0.58453700  0.67859400  0.02472600  1
  H  770  1  0.64544500  0.44216000  0.31054200  1
  H  771  1  0.70887100  0.44138100  0.31310400  1
  H  772  1  0.70089100  0.40148100  0.35188900  1
  H  774  1  0.64391000  0.39184300  0.36140700  1
  H  775  1  0.60595600  0.40006000  0.35358200  1
  H  777  1  0.75892300  0.41189000  0.34311900  1
  H  779  1  0.58456100  0.40651700  0.32040500  1
  H  783  1  0.64557200  0.92882200  0.55689100  1
  H  784  1  0.70899200  0.93219300  0.55766400  1
  H  785  1  0.70093400  0.01087400  0.59753000  1
  H  787  1  0.64392900  0.03000200  0.60716200  1
  H  788  1  0.60599400  0.01394100  0.59895500  1
  H  796  1  0.14558300  0.35106600  0.88819400  1
  H  797  1  0.20900600  0.35364000  0.89155200  1
  H  798  1  0.20098200  0.39247600  0.97023300  1
  H  800  1  0.14398900  0.40199900  0.98937500  1
  H  801  1  0.10604500  0.39415600  0.97332200  1
  H  803  1  0.25902500  0.38368900  0.95106900  1
  H  805  1  0.08467100  0.36095600  0.93369400  1
  H  812  1  0.14552400  0.59746400  0.64784800  1
  H  813  1  0.20894700  0.59826800  0.64527700  1
  H  814  1  0.20088000  0.63818500  0.60651500  1
  H  816  1  0.14387600  0.64780500  0.59700900  1
  H  817  1  0.10594300  0.63957000  0.60483500  1
  H  819  1  0.25893400  0.62780300  0.61528200  1
  H  821  1  0.08459100  0.63309900  0.63801400  1
  H  828  1  0.14551600  0.11078700  0.40157900  1
  H  829  1  0.20894100  0.10744800  0.40079100  1
  H  830  1  0.20096600  0.02876400  0.36090700  1
  H  832  1  0.14398300  0.00960700  0.35128000  1
  H  833  1  0.10602900  0.02564800  0.35949800  1
  H  835  1  0.25899500  0.04794400  0.37130500  1
  H  837  1  0.08462800  0.06528400  0.36595000  1
  H  844  1  0.20440600  0.56178700  0.91440400  1
  H  845  1  0.14137000  0.55742100  0.90766900  1
  H  846  1  0.12910100  0.63567100  0.95039900  1
  H  848  1  0.17991200  0.66145700  0.96764500  1
  H  849  1  0.22126100  0.65037600  0.96361600  1
  H  851  1  0.08091700  0.57732000  0.91537000  1
  H  853  1  0.25557700  0.61363600  0.95160300  1
  H  860  1  0.20438500  0.08452000  0.58592000  1
  H  861  1  0.14134600  0.09125200  0.58827500  1
  H  862  1  0.12907100  0.04863300  0.62391200  1
  H  864  1  0.17988200  0.03142200  0.63249700  1
  H  865  1  0.22123100  0.03543500  0.62543300  1
  H  867  1  0.08089600  0.08357600  0.60047900  1
  H  869  1  0.25553100  0.04734600  0.60060600  1
  H  876  1  0.20439300  0.41277600  0.43720700  1
  H  877  1  0.14134600  0.41050000  0.44160700  1
  H  878  1  0.12892700  0.37539600  0.36339500  1
  H  880  1  0.17971100  0.36689900  0.33758600  1
  H  881  1  0.22108700  0.37381800  0.34863700  1
  H  883  1  0.08081800  0.39852000  0.42175300  1
  H  885  1  0.25548800  0.39837800  0.38541500  1
  H  892  1  0.70436800  0.47777600  0.04384200  1
  H  893  1  0.64133400  0.48214200  0.05060000  1
  H  894  1  0.62911100  0.40387300  0.00810300  1
  H  896  1  0.67993600  0.37808600  0.99090400  1
  H  897  1  0.72127400  0.38917700  0.99488000  1
  H  899  1  0.58088500  0.46223800  0.04299300  1
  H  901  1  0.75553800  0.42592100  0.00672500  1
  H  904  1  0.70438700  0.95479800  0.37222300  1
  H  905  1  0.64135000  0.94806900  0.36988400  1
  H  907  1  0.67975900  0.00835900  0.32614700  1
  H  908  1  0.72112400  0.00428500  0.33313500  1
  H  910  1  0.58085200  0.95588800  0.35782500  1
  H  917  1  0.70440100  0.62655500  0.52123300  1
  H  918  1  0.64135600  0.62887300  0.51684700  1
  H  919  1  0.62905800  0.66444700  0.59509800  1
  H  921  1  0.67986900  0.67304100  0.62090000  1
  H  922  1  0.72122000  0.66600400  0.60982600  1
  H  924  1  0.58089300  0.64103600  0.53672600  1
  H  926  1  0.75557700  0.64124800  0.57307400  1
  H  933  1  0.92172900  0.65100800  0.91327500  1
  H  934  1  0.88324400  0.64417800  0.94002500  1
  H  935  1  0.94890300  0.69028300  0.00182200  1
  H  937  1  0.00092900  0.70874500  0.99579200  1
  H  938  1  0.01294600  0.70439000  0.96804800  1
  H  940  1  0.86911400  0.65037300  0.98105700  1
  H  942  1  0.97593200  0.69624000  0.92696600  1
  H  949  1  0.92174100  0.32270200  0.34796800  1
  H  950  1  0.88323900  0.35626500  0.35477200  1
  H  951  1  0.94891400  0.37195200  0.30867000  1
  H  953  1  0.00095900  0.34747300  0.29023000  1
  H  954  1  0.01298100  0.32409500  0.29460200  1
  H  956  1  0.86910100  0.39108700  0.34855900  1
  H  958  1  0.97600100  0.29116800  0.30276500  1
  H  965  1  0.92176000  0.08579000  0.67636400  1
  H  966  1  0.88328800  0.05902500  0.64278400  1
  H  968  1  0.00100700  0.00330000  0.65161800  1
  H  969  1  0.01300700  0.03105100  0.67500300  1
  H  971  1  0.86919200  0.01799000  0.60794700  1
  H  973  1  0.97599800  0.07214400  0.70791900  1
  H  980  1  0.42174300  0.38860500  0.04514000  1
  H  981  1  0.38330000  0.39540500  0.01835000  1
  H  982  1  0.44902600  0.34927400  0.95660300  1
  H  984  1  0.50103400  0.33082900  0.96268200  1
  H  985  1  0.51301000  0.33520800  0.99044300  1
  H  987  1  0.36924200  0.38919000  0.97730000  1
  H  989  1  0.47594300  0.34338700  0.03151600  1
  H  996  1  0.42178600  0.71698100  0.61039900  1
  H  997  1  0.38328200  0.68342000  0.60360000  1
  H  998  1  0.44894000  0.66774800  0.64971900  1
  H  1000  1  0.50098500  0.69222900  0.66815900  1
  H  1001  1  0.51301000  0.71560300  0.66378400  1
  H  1003  1  0.36913700  0.64860300  0.60982000  1
  H  1005  1  0.47604000  0.74852500  0.65559700  1
  H  1009  1  0.42165700  0.95389200  0.28207500  1
  H  1010  1  0.44899600  0.04241300  0.33136300  1
  H  1012  1  0.50101200  0.03634500  0.30684700  1
  H  1013  1  0.51297500  0.00859300  0.28344600  1
  H  1015  1  0.36918800  0.02170300  0.35054300  1
  H  1017  1  0.47588400  0.96753700  0.25051900  1
  H  1024  1  0.92042800  0.41642900  0.01842100  1
  H  1025  1  0.94168000  0.41393800  0.98080300  1
  H  1026  1  0.87177600  0.35362300  0.93843700  1
  H  1028  1  0.83302000  0.33934300  0.95928600  1
  H  1029  1  0.83230000  0.35204500  0.99012600  1
  H  1031  1  0.90869000  0.37613500  0.91951500  1
  H  1033  1  0.88810500  0.37053700  0.02254100  1
  H  1040  1  0.92036200  0.66236300  0.58253900  1
  H  1041  1  0.94158700  0.62722400  0.58502200  1
  H  1042  1  0.87174300  0.64521900  0.64537700  1
  H  1044  1  0.83302600  0.68036900  0.65967500  1
  H  1045  1  0.83231200  0.69850600  0.64697100  1
  H  1047  1  0.90861500  0.60376200  0.62284600  1
  H  1049  1  0.88812900  0.71239400  0.62845900  1
  H  1054  1  0.94162600  0.01811600  0.37174300  1
  H  1055  1  0.87170800  0.06057600  0.35392800  1
  H  1057  1  0.83292900  0.03978700  0.31880600  1
  H  1058  1  0.83219500  0.00895200  0.30062000  1
  H  1060  1  0.90864100  0.07942900  0.39532500  1
  H  1067  1  0.42027800  0.62309500  0.93999900  1
  H  1068  1  0.44147200  0.62555700  0.97761800  1
  H  1069  1  0.37176700  0.68599800  0.01999000  1
  H  1071  1  0.33311200  0.70033900  0.99914500  1
  H  1072  1  0.33238800  0.68763100  0.96830400  1
  H  1074  1  0.40856500  0.66349000  0.03893500  1
  H  1076  1  0.38814700  0.66906800  0.93590200  1
  H  1083  1  0.42032400  0.37713700  0.37577700  1
  H  1084  1  0.44158700  0.41229400  0.37334300  1
  H  1085  1  0.37161700  0.39447300  0.31309200  1
  H  1087  1  0.33283600  0.35935500  0.29878100  1
  H  1088  1  0.33211600  0.34117700  0.31143700  1
  H  1090  1  0.40857000  0.43588500  0.33563600  1
  H  1092  1  0.38793200  0.32717800  0.32983100  1
  H  1097  1  0.42039100  0.05901900  0.62181700  1
  H  1098  1  0.44164600  0.02140200  0.58668600  1
  H  1100  1  0.33298900  0.99987600  0.63975900  1
  H  1101  1  0.33226700  0.03071400  0.65789800  1
  H  1102  1  0.40865900  0.96011000  0.56319500  1
  H  1104  1  0.38806600  0.06312800  0.67182700  1
  H  1111  1  0.89759800  0.58385200  0.13871400  1
  H  1112  1  0.90640100  0.62047400  0.13574500  1
  H  1113  1  0.81447200  0.65331100  0.17984500  1
  H  1115  1  0.77998000  0.63035900  0.19381800  1
  H  1116  1  0.79022400  0.60155400  0.18707000  1
  H  1118  1  0.86755100  0.67813100  0.17193100  1
  H  1120  1  0.84429500  0.57693500  0.17976900  1
  H  1127  1  0.89763200  0.61530000  0.41518600  1
  H  1128  1  0.90641400  0.57570600  0.37856400  1
  H  1129  1  0.81451500  0.58700100  0.34572400  1
  H  1131  1  0.78005000  0.62394100  0.36867500  1
  H  1132  1  0.79030300  0.64599600  0.39748100  1
  H  1134  1  0.86757700  0.55425500  0.32090600  1
  H  1136  1  0.84439800  0.66329300  0.42209500  1
  H  1143  1  0.89783000  0.86033900  0.38381500  1
  H  1144  1  0.90657100  0.86330500  0.42341000  1
  H  1145  1  0.81466500  0.81916300  0.41206900  1
  H  1147  1  0.78022800  0.80518400  0.37511800  1
  H  1148  1  0.79050600  0.81194000  0.35307300  1
  H  1150  1  0.86771400  0.82707900  0.44482700  1
  H  1152  1  0.84461700  0.81925400  0.33579800  1
  H  1159  1  0.39780700  0.45576500  0.81973400  1
  H  1160  1  0.40657100  0.41914300  0.82271000  1
  H  1161  1  0.31465000  0.38632600  0.77859100  1
  H  1163  1  0.28019500  0.40928500  0.76460800  1
  H  1164  1  0.29046400  0.43808500  0.77135300  1
  H  1166  1  0.36769400  0.36149300  0.78650700  1
  H  1168  1  0.34457800  0.46268100  0.77865300  1
  H  1175  1  0.39782900  0.42440000  0.54324200  1
  H  1176  1  0.40657100  0.46399900  0.57986400  1
  H  1177  1  0.31462300  0.45269600  0.61265400  1
  H  1179  1  0.28017300  0.41575300  0.58968700  1
  H  1180  1  0.29045900  0.39369600  0.56088900  1
  H  1182  1  0.36766100  0.48544700  0.63750000  1
  H  1184  1  0.34457800  0.37640100  0.53631300  1
  H  1191  1  0.39766500  0.17935500  0.57473100  1
  H  1192  1  0.40648300  0.17638500  0.53514000  1
  H  1193  1  0.31449200  0.22041400  0.54635000  1
  H  1195  1  0.27996700  0.23436600  0.58326100  1
  H  1196  1  0.29021500  0.22763300  0.60532700  1
  H  1198  1  0.36761600  0.21253400  0.51364300  1
  H  1200  1  0.34429900  0.22037500  0.62267500  1
  H  1207  1  0.95298300  0.42893100  0.81732600  1
  H  1208  1  0.94927800  0.46833400  0.81942900  1
  H  1209  1  0.03763100  0.44966900  0.77075200  1
  H  1211  1  0.06684300  0.41060300  0.75618900  1
  H  1212  1  0.05405900  0.38986500  0.76418100  1
  H  1214  1  0.98473200  0.48466400  0.77969300  1
  H  1216  1  0.99876500  0.37685800  0.77490600  1
  H  1223  1  0.95262800  0.18220100  0.55048700  1
  H  1224  1  0.94893900  0.18013000  0.58781000  1
  H  1225  1  0.03825100  0.22795700  0.61735100  1
  H  1227  1  0.06767700  0.24226300  0.59270000  1
  H  1228  1  0.05469200  0.23439600  0.56403900  1
  H  1230  1  0.98503800  0.21940700  0.64366500  1
  H  1232  1  0.99917200  0.22411700  0.54053300  1
  H  1239  1  0.95282700  0.44879400  0.57010400  1
  H  1240  1  0.94914900  0.41150300  0.53069200  1
  H  1241  1  0.03748300  0.38148700  0.54937200  1
  H  1243  1  0.06666000  0.40598100  0.58845400  1
  H  1244  1  0.05386300  0.43470700  0.60919600  1
  H  1246  1  0.98490900  0.35538400  0.51429900  1
  H  1248  1  0.99856800  0.45844800  0.62218600  1
  H  1255  1  0.45267800  0.61082500  0.14136900  1
  H  1256  1  0.44901800  0.57141000  0.13925000  1
  H  1257  1  0.53783700  0.58989600  0.18752000  1
  H  1259  1  0.56711600  0.62892500  0.20198800  1
  H  1260  1  0.55421100  0.64970100  0.19407700  1
  H  1262  1  0.48491400  0.55493200  0.17874500  1
  H  1264  1  0.49879600  0.66280600  0.18356400  1
  H  1271  1  0.45287700  0.85790500  0.40820800  1
  H  1272  1  0.44914700  0.86000200  0.37090400  1
  H  1273  1  0.53750700  0.81133200  0.34088200  1
  H  1275  1  0.56674300  0.79677900  0.36538500  1
  H  1276  1  0.55397200  0.80477300  0.39411800  1
  H  1278  1  0.48457900  0.82026800  0.31483400  1
  H  1280  1  0.49868800  0.81549800  0.41786100  1
  H  1287  1  0.45266700  0.59103600  0.38814100  1
  H  1288  1  0.44901800  0.62835200  0.42754200  1
  H  1289  1  0.53817000  0.65794900  0.40916000  1
  H  1291  1  0.56751800  0.63331700  0.37016900  1
  H  1292  1  0.55453900  0.60465300  0.34938500  1
  H  1294  1  0.48505600  0.68423700  0.44407400  1
  H  1296  1  0.49901300  0.58113100  0.33621800  1
  C  2  1  0.68913200  0.99354300  0.58882400  1
  C  3  1  0.65115800  0.99204300  0.58842600  1
  C  5  1  0.68252000  0.98788400  0.34388800  1
  C  9  1  0.40551100  0.98830200  0.31237200  1
  C  10  1  0.90862700  0.99714300  0.34053400  1
  C  11  1  0.88240700  0.99794600  0.32440200  1
  C  12  1  0.40851400  0.99669500  0.59242700  1
  C  13  1  0.38102800  0.99603500  0.60786300  1
  C  16  1  0.64495200  0.98393700  0.34311300  1
  C  17  1  0.45872900  0.98208000  0.28663800  1
  C  21  1  0.82836300  0.97266500  0.58730200  1
  C  22  1  0.86589300  0.96903000  0.58636000  1
  C  26  1  0.71125100  0.97200800  0.57775000  1
  C  27  1  0.74847900  0.97462000  0.57912500  1
  C  29  1  0.62912500  0.96896300  0.35198300  1
  C  30  1  0.70485900  0.97679700  0.35446300  1
  C  31  1  0.74192100  0.97638600  0.35230800  1
  C  32  1  0.42819400  0.97247100  0.29253400  1
  C  33  1  0.87742800  0.97653000  0.30138000  1
  C  35  1  0.42408600  0.97463000  0.57423800  1
  C  36  1  0.85768100  0.68463900  0.07266000  1
  C  37  1  0.82024600  0.68155400  0.06830000  1
  C  38  1  0.80523200  0.67666600  0.04531900  1
  C  39  1  0.82826800  0.67505300  0.02637500  1
  C  40  1  0.86579600  0.67774800  0.03001900  1
  C  41  1  0.88005500  0.68291300  0.05329600  1
  C  45  1  0.87225400  0.68917700  0.09596700  1
  C  46  1  0.86224700  0.67395400  0.10613500  1
  C  47  1  0.87743400  0.67737300  0.12856400  1
  C  48  1  0.90340700  0.69632900  0.14105600  1
  C  49  1  0.91378300  0.71178900  0.13135300  1
  C  50  1  0.89855200  0.70786400  0.10874900  1
  C  58  1  0.85769300  0.44845000  0.31433200  1
  C  59  1  0.82025600  0.44717500  0.31741600  1
  C  60  1  0.80524000  0.42906500  0.32227800  1
  C  61  1  0.82827200  0.41171400  0.32385600  1
  C  62  1  0.86580300  0.41267800  0.32119000  1
  C  63  1  0.88006600  0.43081000  0.31605600  1
  C  67  1  0.87227900  0.46723200  0.30982200  1
  C  68  1  0.86229800  0.49262600  0.32507300  1
  C  69  1  0.87746400  0.51164300  0.32165700  1
  C  70  1  0.90348000  0.50518600  0.30272900  1
  C  71  1  0.91379400  0.48002000  0.28721400  1
  C  72  1  0.89855300  0.46133300  0.29112100  1
  C  80  1  0.85779300  0.92638500  0.55060800  1
  C  81  1  0.82035800  0.93074800  0.55186400  1
  C  82  1  0.80533800  0.95373200  0.56994700  1
  C  83  1  0.88016000  0.94575600  0.56824400  1
  C  86  1  0.87237500  0.90307600  0.53185600  1
  C  87  1  0.86238600  0.89288900  0.50645400  1
  C  88  1  0.87750500  0.87041900  0.48745400  1
  C  89  1  0.90356200  0.85799300  0.49393500  1
  C  90  1  0.91389400  0.86770600  0.51910400  1
  C  91  1  0.89865200  0.89029900  0.53778400  1
  C  98  1  0.35781300  0.35490000  0.88572100  1
  C  99  1  0.32037600  0.35799700  0.89008500  1
  C  100  1  0.30536000  0.36287600  0.91306300  1
  C  101  1  0.32839200  0.36446100  0.93199600  1
  C  102  1  0.36591700  0.36174500  0.92834600  1
  C  103  1  0.38018200  0.35661000  0.90508100  1
  C  107  1  0.37239500  0.35038200  0.86242500  1
  C  108  1  0.36240200  0.36562600  0.85227600  1
  C  109  1  0.37760100  0.36222900  0.82985700  1
  C  110  1  0.40360600  0.34329400  0.81737300  1
  C  111  1  0.41395300  0.32781600  0.82706000  1
  C  112  1  0.39868700  0.33169100  0.84963100  1
  C  120  1  0.35774300  0.59124100  0.64405700  1
  C  121  1  0.32030700  0.59251200  0.64097100  1
  C  122  1  0.30528700  0.61060800  0.63609000  1
  C  123  1  0.32831700  0.62794500  0.63448400  1
  C  124  1  0.36584700  0.62700200  0.63718000  1
  C  125  1  0.38011000  0.60888700  0.64233900  1
  C  129  1  0.37232200  0.57247200  0.64858900  1
  C  130  1  0.36233700  0.54707700  0.63335100  1
  C  131  1  0.37753400  0.52806600  0.63676400  1
  C  132  1  0.40348800  0.53453300  0.65573300  1
  C  133  1  0.41383800  0.55969800  0.67120900  1
  C  134  1  0.39860100  0.57837700  0.66728700  1
  C  142  1  0.35776700  0.11329000  0.40785100  1
  C  143  1  0.32033100  0.10893300  0.40657800  1
  C  144  1  0.30531200  0.08595900  0.38847200  1
  C  145  1  0.32834100  0.06702600  0.37112000  1
  C  146  1  0.36587400  0.07065600  0.37208300  1
  C  147  1  0.38013900  0.09392400  0.39021200  1
  C  151  1  0.37235700  0.13658300  0.42663200  1
  C  152  1  0.36237000  0.14672900  0.45202500  1
  C  153  1  0.37753100  0.16916400  0.47104100  1
  C  154  1  0.40355200  0.18163300  0.46458400  1
  C  155  1  0.41387500  0.17197600  0.43941800  1
  C  156  1  0.39863600  0.14938100  0.42073400  1
  C  164  1  0.00107400  0.59511600  0.87453700  1
  C  165  1  0.02938400  0.59202900  0.88833800  1
  C  166  1  0.04807200  0.61249200  0.90777400  1
  C  167  1  0.03751300  0.63695900  0.91467000  1
  C  168  1  0.00898500  0.64101200  0.90227600  1
  C  169  1  0.99225400  0.62037500  0.88197400  1
  C  173  1  0.98319500  0.57405500  0.85346700  1
  C  174  1  0.99635000  0.54903200  0.84214600  1
  C  175  1  0.97878300  0.52859300  0.82204200  1
  C  176  1  0.94722200  0.53292900  0.81221500  1
  C  177  1  0.93326300  0.55724700  0.82255200  1
  C  178  1  0.95036200  0.57708000  0.84342200  1
  C  186  1  0.00109600  0.12450000  0.65914100  1
  C  187  1  0.02934400  0.11065400  0.64222000  1
  C  188  1  0.04794600  0.09115900  0.64318900  1
  C  189  1  0.03743700  0.08432900  0.66082300  1
  C  190  1  0.00899300  0.09679000  0.67732400  1
  C  191  1  0.99227800  0.11709300  0.67698300  1
  C  195  1  0.98326200  0.14559000  0.65916200  1
  C  196  1  0.99646600  0.15691500  0.64547700  1
  C  197  1  0.97888100  0.17699400  0.64511600  1
  C  198  1  0.94733600  0.18686100  0.65929100  1
  C  199  1  0.93333700  0.17651400  0.67325600  1
  C  200  1  0.95041500  0.15563300  0.67221100  1
  C  208  1  0.00103900  0.33986800  0.40391100  1
  C  209  1  0.02932300  0.35677800  0.40701300  1
  C  210  1  0.04792700  0.35583400  0.38656400  1
  C  211  1  0.03741300  0.33825000  0.36208700  1
  C  212  1  0.00895800  0.32174700  0.35802000  1
  C  213  1  0.99223400  0.32205600  0.37864700  1
  C  217  1  0.98319600  0.33981000  0.42496000  1
  C  218  1  0.99629900  0.35355000  0.44999300  1
  C  219  1  0.97869900  0.35387800  0.47041100  1
  C  220  1  0.94725700  0.33959600  0.46606100  1
  C  221  1  0.93331900  0.32560400  0.44173500  1
  C  222  1  0.95041100  0.32668400  0.42192000  1
  C  230  1  0.50107100  0.44452000  0.08390200  1
  C  231  1  0.52937900  0.44759500  0.07009400  1
  C  232  1  0.54800200  0.42712900  0.05062600  1
  C  233  1  0.53749100  0.40266300  0.04377200  1
  C  234  1  0.50897900  0.39862100  0.05618400  1
  C  235  1  0.49225100  0.41926500  0.07648100  1
  C  239  1  0.48320200  0.46558900  0.10497400  1
  C  240  1  0.49635600  0.49061000  0.11627000  1
  C  241  1  0.47875800  0.51104800  0.13633900  1
  C  242  1  0.44722000  0.50673100  0.14620200  1
  C  243  1  0.43328700  0.48240900  0.13592000  1
  C  244  1  0.45038900  0.46257500  0.11504700  1
  C  252  1  0.50097400  0.91510400  0.29921700  1
  C  253  1  0.52929000  0.92889800  0.31610300  1
  C  254  1  0.54799100  0.94832600  0.31507200  1
  C  255  1  0.53744000  0.95522200  0.29749900  1
  C  256  1  0.50890900  0.94283400  0.28105400  1
  C  257  1  0.49216200  0.92253900  0.28139300  1
  C  260  1  0.48308100  0.89403900  0.29921200  1
  C  261  1  0.49623000  0.88271700  0.31291500  1
  C  262  1  0.47865100  0.86261900  0.31325500  1
  C  263  1  0.44708600  0.85280000  0.29909600  1
  C  264  1  0.43313400  0.86313500  0.28511300  1
  C  265  1  0.45024400  0.88400000  0.28614600  1
  C  273  1  0.50111700  0.69972000  0.55446000  1
  C  274  1  0.52935500  0.68279000  0.55138600  1
  C  275  1  0.54795300  0.68375800  0.57185000  1
  C  276  1  0.53745300  0.70139700  0.59631300  1
  C  277  1  0.50901900  0.71790700  0.60035300  1
  C  278  1  0.49231000  0.71756800  0.57970900  1
  C  282  1  0.48328800  0.69974200  0.53339200  1
  C  283  1  0.49649000  0.68605700  0.50838100  1
  C  284  1  0.47890600  0.68569700  0.48794300  1
  C  285  1  0.44736700  0.69987800  0.49225200  1
  C  286  1  0.43337100  0.71384400  0.51656300  1
  C  287  1  0.45044500  0.71279600  0.53639700  1
  C  295  1  0.00091900  0.36380100  0.87188200  1
  C  296  1  0.03717700  0.36600300  0.87936700  1
  C  297  1  0.04637600  0.37133100  0.90368500  1
  C  298  1  0.01862700  0.37553500  0.92096800  1
  C  299  1  0.98218400  0.37388000  0.91410700  1
  C  300  1  0.97352800  0.36763300  0.88931400  1
  C  304  1  0.99271900  0.35838300  0.84726300  1
  C  305  1  0.99780000  0.37687500  0.84046600  1
  C  306  1  0.99144400  0.37163600  0.81579300  1
  C  307  1  0.97982400  0.34738100  0.79774300  1
  C  308  1  0.97499900  0.32842600  0.80394000  1
  C  309  1  0.98128700  0.33424400  0.82892400  1
  C  317  1  0.00084600  0.56846200  0.63518200  1
  C  318  1  0.03710500  0.57373100  0.63296100  1
  C  319  1  0.04630400  0.59271300  0.62762000  1
  C  320  1  0.01855400  0.60578600  0.62340800  1
  C  321  1  0.98211100  0.60059500  0.62508300  1
  C  322  1  0.97345600  0.58205500  0.63134100  1
  C  326  1  0.99264400  0.54927400  0.64061900  1
  C  327  1  0.99769100  0.52398000  0.62213500  1
  C  328  1  0.99132600  0.50455600  0.62738700  1
  C  329  1  0.97970600  0.51078000  0.65164800  1
  C  330  1  0.97491700  0.53593900  0.67059700  1
  C  331  1  0.98121900  0.55509300  0.66476600  1
  C  339  1  0.00086000  0.12707000  0.43059900  1
  C  340  1  0.03712100  0.11958500  0.42532800  1
  C  341  1  0.04632500  0.09527300  0.40632900  1
  C  342  1  0.01857800  0.07798000  0.39326200  1
  C  343  1  0.98213400  0.08483600  0.39846300  1
  C  344  1  0.97347400  0.10963200  0.41700700  1
  C  348  1  0.99265700  0.15169700  0.44978200  1
  C  349  1  0.99776300  0.15852600  0.47507800  1
  C  350  1  0.99146100  0.18321600  0.49449300  1
  C  351  1  0.97977000  0.20123500  0.48826500  1
  C  352  1  0.97492100  0.19500600  0.46310500  1
  C  353  1  0.98121300  0.17001800  0.44395800  1
  C  361  1  0.50078900  0.67578100  0.08655100  1
  C  362  1  0.53704800  0.67356400  0.07906200  1
  C  363  1  0.54624900  0.66823200  0.05474300  1
  C  364  1  0.51850000  0.66400000  0.03745200  1
  C  365  1  0.48205400  0.66565400  0.04431200  1
  C  366  1  0.47339900  0.67192600  0.06911300  1
  C  370  1  0.49258900  0.68121800  0.11117600  1
  C  371  1  0.49766600  0.66273600  0.11798800  1
  C  372  1  0.49130900  0.66799000  0.14266600  1
  C  373  1  0.47968700  0.69224900  0.16070400  1
  C  374  1  0.47488300  0.71119700  0.15449500  1
  C  375  1  0.48116300  0.70536300  0.12950600  1
  C  383  1  0.50078400  0.47116300  0.32326600  1
  C  384  1  0.53704300  0.46588600  0.32547100  1
  C  385  1  0.54624900  0.44689700  0.33079900  1
  C  386  1  0.51850500  0.43381200  0.33499900  1
  C  387  1  0.48205900  0.43901200  0.33334200  1
  C  388  1  0.47339700  0.45755900  0.32709400  1
  C  392  1  0.49258100  0.49035700  0.31783700  1
  C  393  1  0.49767400  0.51564900  0.33631700  1
  C  394  1  0.49134100  0.53507500  0.33106200  1
  C  395  1  0.47972400  0.52885900  0.30680400  1
  C  396  1  0.47488300  0.50370300  0.28786100  1
  C  397  1  0.48115500  0.48454600  0.29369300  1
  C  405  1  0.50088900  0.91248200  0.52788500  1
  C  406  1  0.53714700  0.91997500  0.53315500  1
  C  407  1  0.54634900  0.94429400  0.55214000  1
  C  408  1  0.51859700  0.96157700  0.56522000  1
  C  409  1  0.48215300  0.95471000  0.56002900  1
  C  410  1  0.47349900  0.92991400  0.54148400  1
  C  413  1  0.49269100  0.88786100  0.50868900  1
  C  414  1  0.49773800  0.88106400  0.48339900  1
  C  415  1  0.49138100  0.85639000  0.46396600  1
  C  416  1  0.47976700  0.83834300  0.47017900  1
  C  417  1  0.47497200  0.84454200  0.49533600  1
  C  418  1  0.48127000  0.86952400  0.51449700  1
  C  425  1  0.83319200  0.46491500  0.08652300  1
  C  426  1  0.80118700  0.46559900  0.07454900  1
  C  427  1  0.79091400  0.44540800  0.05110200  1
  C  428  1  0.81309500  0.42399200  0.03931800  1
  C  429  1  0.84530800  0.42287800  0.05075400  1
  C  430  1  0.85475000  0.44315200  0.07439100  1
  C  434  1  0.84166600  0.48490200  0.11102300  1
  C  435  1  0.84068700  0.51004900  0.11641800  1
  C  436  1  0.84875000  0.53009300  0.14048800  1
  C  437  1  0.85850000  0.52471700  0.15944800  1
  C  438  1  0.85935800  0.49992600  0.15485000  1
  C  439  1  0.85103300  0.48019400  0.13053700  1
  C  447  1  0.83332100  0.91245100  0.31697000  1
  C  448  1  0.80125800  0.92437000  0.32957400  1
  C  449  1  0.79087500  0.94777300  0.33276800  1
  C  450  1  0.81306200  0.95961700  0.32320100  1
  C  451  1  0.84527100  0.94818200  0.31063300  1
  C  452  1  0.85484500  0.92459900  0.30734200  1
  C  455  1  0.84185900  0.88796900  0.31247900  1
  C  456  1  0.84091500  0.88258900  0.33224200  1
  C  457  1  0.84905800  0.85853700  0.32823300  1
  C  458  1  0.85873600  0.83955800  0.30388900  1
  C  459  1  0.85950700  0.84413100  0.28367600  1
  C  460  1  0.85120800  0.86844800  0.28825700  1
  C  468  1  0.83315900  0.68209600  0.53411800  1
  C  469  1  0.80110500  0.66949800  0.53345200  1
  C  470  1  0.79082000  0.66625900  0.55364800  1
  C  471  1  0.81306800  0.67576700  0.57502200  1
  C  472  1  0.84528100  0.68832300  0.57613800  1
  C  473  1  0.85473600  0.69169200  0.55586900  1
  C  477  1  0.84167100  0.68659700  0.51413100  1
  C  478  1  0.84070400  0.66684100  0.48898600  1
  C  479  1  0.84883700  0.67085400  0.46894500  1
  C  480  1  0.85852500  0.69519900  0.47431400  1
  C  481  1  0.85935400  0.71540000  0.49910100  1
  C  482  1  0.85104000  0.71081900  0.51883600  1
  C  490  1  0.33324600  0.57470800  0.87183700  1
  C  491  1  0.30119000  0.57402300  0.88376100  1
  C  492  1  0.29085300  0.59422800  0.90717200  1
  C  493  1  0.31303700  0.61563900  0.91900900  1
  C  494  1  0.34530800  0.61674700  0.90762500  1
  C  495  1  0.35479400  0.59647400  0.88399700  1
  C  499  1  0.34180100  0.55471900  0.84736000  1
  C  500  1  0.34087800  0.52957600  0.84198500  1
  C  501  1  0.34901900  0.50953300  0.81793500  1
  C  502  1  0.35872300  0.51489900  0.79895900  1
  C  503  1  0.35951200  0.53968300  0.80353200  1
  C  504  1  0.35117200  0.55941900  0.82784200  1
  C  512  1  0.33318700  0.12713600  0.64145500  1
  C  513  1  0.30118200  0.11516900  0.62879300  1
  C  514  1  0.29089900  0.09172000  0.62553000  1
  C  515  1  0.31307200  0.07992900  0.63515600  1
  C  516  1  0.34528700  0.09135900  0.64771200  1
  C  517  1  0.35473500  0.11499800  0.65108200  1
  C  521  1  0.34167500  0.15163400  0.64596800  1
  C  522  1  0.34070300  0.15703000  0.62621500  1
  C  523  1  0.34877800  0.18109700  0.63023900  1
  C  524  1  0.35853200  0.20005600  0.65457500  1
  C  525  1  0.35938600  0.19546000  0.67477000  1
  C  526  1  0.35104800  0.17114800  0.67019000  1
  C  534  1  0.33333333  0.35753700  0.42428000  1
  C  535  1  0.30122500  0.37014200  0.42496500  1
  C  536  1  0.29084300  0.37333600  0.40475600  1
  C  537  1  0.31302700  0.36376500  0.38334200  1
  C  538  1  0.34523300  0.35119600  0.38221000  1
  C  539  1  0.35480800  0.34790300  0.40250000  1
  C  543  1  0.34183100  0.35305300  0.44427300  1
  C  544  1  0.34088900  0.37282200  0.46941400  1
  C  545  1  0.34903600  0.36882300  0.48946200  1
  C  546  1  0.35872000  0.34448100  0.48410500  1
  C  547  1  0.35949300  0.32426300  0.45932300  1
  C  548  1  0.35118500  0.32883500  0.43958200  1
  C  556  1  0.92030200  0.79296200  0.22380100  1
  C  557  1  0.94022700  0.77415700  0.20405500  1
  C  558  1  0.92697800  0.76225800  0.17934000  1
  C  559  1  0.89276400  0.76928500  0.17508100  1
  C  560  1  0.87200100  0.78811600  0.19480100  1
  C  561  1  0.88633300  0.80050400  0.21959500  1
  C  568  1  0.94982600  0.74694300  0.15981800  1
  C  570  1  0.87011400  0.82147600  0.23921700  1
  C  572  1  0.92018300  0.49127100  0.20603000  1
  C  573  1  0.94012300  0.49035000  0.22484000  1
  C  574  1  0.92692000  0.47751100  0.23672700  1
  C  575  1  0.89273500  0.46618300  0.22968600  1
  C  576  1  0.87195800  0.46704700  0.21084700  1
  C  577  1  0.88624500  0.47947700  0.19847200  1
  C  584  1  0.94979500  0.47332300  0.25204100  1
  C  586  1  0.87002700  0.47810700  0.17748900  1
  C  588  1  0.92021100  0.77524800  0.50782200  1
  C  589  1  0.94017400  0.79498500  0.50877300  1
  C  590  1  0.92695900  0.81970800  0.52159800  1
  C  591  1  0.89274200  0.82398700  0.53288100  1
  C  592  1  0.87194300  0.80427700  0.53198500  1
  C  593  1  0.88624000  0.77947400  0.51957100  1
  C  600  1  0.94984500  0.83921700  0.52582300  1
  C  602  1  0.86998800  0.75985800  0.52091700  1
  C  604  1  0.42023500  0.24664900  0.73457700  1
  C  605  1  0.44019200  0.26545700  0.75429600  1
  C  606  1  0.42702400  0.27733700  0.77903100  1
  C  607  1  0.39285600  0.27029100  0.78333900  1
  C  608  1  0.37206200  0.25145200  0.76364700  1
  C  609  1  0.38631700  0.23908300  0.73883100  1
  C  616  1  0.44992500  0.29264400  0.79851900  1
  C  618  1  0.37008400  0.21809800  0.71922500  1
  C  620  1  0.42029700  0.54839400  0.75236600  1
  C  621  1  0.44023000  0.54934300  0.73356800  1
  C  622  1  0.42698900  0.56216800  0.72167700  1
  C  623  1  0.39277600  0.57345300  0.72870000  1
  C  624  1  0.37200600  0.57255700  0.74752400  1
  C  625  1  0.38632700  0.56014300  0.75990600  1
  C  632  1  0.44985000  0.56638800  0.70637600  1
  C  634  1  0.37010600  0.56149100  0.78087800  1
  C  636  1  0.42031300  0.26441900  0.45066000  1
  C  637  1  0.44025100  0.24468500  0.44973300  1
  C  638  1  0.42702200  0.21996400  0.43692000  1
  C  639  1  0.39281600  0.21568700  0.42562300  1
  C  640  1  0.37204100  0.23539500  0.42649500  1
  C  641  1  0.38635100  0.26019400  0.43889800  1
  C  648  1  0.44988700  0.20045400  0.43272600  1
  C  650  1  0.37012200  0.27980700  0.43753400  1
  C  652  1  0.91500100  0.54397700  0.73123000  1
  C  653  1  0.89754700  0.54427700  0.75154500  1
  C  654  1  0.91082500  0.55896500  0.77610500  1
  C  655  1  0.94238400  0.57306400  0.77967900  1
  C  656  1  0.96065800  0.57289200  0.75941500  1
  C  657  1  0.94639100  0.55831100  0.73474600  1
  C  664  1  0.89042100  0.56152900  0.79613300  1
  C  666  1  0.96020200  0.55951900  0.71443300  1
  C  668  1  0.91507200  0.26783600  0.75129100  1
  C  669  1  0.89762500  0.24753300  0.73125900  1
  C  670  1  0.91086100  0.22296300  0.72139900  1
  C  671  1  0.94237100  0.21936900  0.73195500  1
  C  672  1  0.96063600  0.23961900  0.75206400  1
  C  673  1  0.94641100  0.26429700  0.76214000  1
  C  680  1  0.89046000  0.20294900  0.70391100  1
  C  682  1  0.96021200  0.28460100  0.78367300  1
  C  684  1  0.91498700  0.24758500  0.45503400  1
  C  685  1  0.89754700  0.26759600  0.45472000  1
  C  686  1  0.91084000  0.27745500  0.44002400  1
  C  687  1  0.94240000  0.26691900  0.42593100  1
  C  688  1  0.96065900  0.24682900  0.42611400  1
  C  689  1  0.94637700  0.23675500  0.44070300  1
  C  696  1  0.89045400  0.29491800  0.43744800  1
  C  698  1  0.96017200  0.21523500  0.43950700  1
  C  700  1  0.41497800  0.49569500  0.22723200  1
  C  701  1  0.39753600  0.49540100  0.20691500  1
  C  702  1  0.41080600  0.48069800  0.18235600  1
  C  703  1  0.44234100  0.46657700  0.17878200  1
  C  704  1  0.46059900  0.46674300  0.19904700  1
  C  705  1  0.44634200  0.48133800  0.22371600  1
  C  712  1  0.39041700  0.47814300  0.16232500  1
  C  714  1  0.46013800  0.48012700  0.24403100  1
  C  716  1  0.41491700  0.77181500  0.20707300  1
  C  717  1  0.39744700  0.79212800  0.22708100  1
  C  718  1  0.41071200  0.81669100  0.23694900  1
  C  719  1  0.44226900  0.82027000  0.22642500  1
  C  720  1  0.46055700  0.80000900  0.20634000  1
  C  721  1  0.44630200  0.77533700  0.19625800  1
  C  728  1  0.39030100  0.83671700  0.25440800  1
  C  730  1  0.46012700  0.75502400  0.17474100  1
  C  732  1  0.41508000  0.79188800  0.50328400  1
  C  733  1  0.39764100  0.77185200  0.50355400  1
  C  734  1  0.41088600  0.76198900  0.51825700  1
  C  735  1  0.44240000  0.77254400  0.53240300  1
  C  736  1  0.46065900  0.79265500  0.53226200  1
  C  737  1  0.44642300  0.80273400  0.51766600  1
  C  744  1  0.39049200  0.74449900  0.52078400  1
  C  746  1  0.46021800  0.82427100  0.51889600  1
  C  748  1  0.65659200  0.67934500  0.05267900  1
  C  749  1  0.69413900  0.67791900  0.05068600  1
  C  750  1  0.71114900  0.66616500  0.02702700  1
  C  751  1  0.68903000  0.65569200  0.00549100  1
  C  752  1  0.65105400  0.65678300  0.00699300  1
  C  753  1  0.63462300  0.66891100  0.03108900  1
  C  760  1  0.74837700  0.66494600  0.02441600  1
  C  762  1  0.59776900  0.67189000  0.03411100  1
  C  764  1  0.65658700  0.43374400  0.31965600  1
  C  765  1  0.69413600  0.43318800  0.32107400  1
  C  766  1  0.71117100  0.42127600  0.33281200  1
  C  767  1  0.68907500  0.41019400  0.34327800  1
  C  768  1  0.65109700  0.41059600  0.34219700  1
  C  769  1  0.63464200  0.42257100  0.33008500  1
  C  776  1  0.74840200  0.41989300  0.33402300  1
  C  778  1  0.59778500  0.42260800  0.32711700  1
  C  780  1  0.65669400  0.94635600  0.56529800  1
  C  781  1  0.69424100  0.94834900  0.56585200  1
  C  782  1  0.63472800  0.96794600  0.57646200  1
  C  789  1  0.59787300  0.96492500  0.57642600  1
  C  790  1  0.15671400  0.36019400  0.90572700  1
  C  791  1  0.19426000  0.36161900  0.90771100  1
  C  792  1  0.21128100  0.37337700  0.93136600  1
  C  793  1  0.18917500  0.38385200  0.95290700  1
  C  794  1  0.15119900  0.38276400  0.95141400  1
  C  795  1  0.13475800  0.37063400  0.92732200  1
  C  802  1  0.24851100  0.37459600  0.93396800  1
  C  804  1  0.09790100  0.36766000  0.92430900  1
  C  806  1  0.15664600  0.60588800  0.63873700  1
  C  807  1  0.19419300  0.60645900  0.63731300  1
  C  808  1  0.21120300  0.61838400  0.62557900  1
  C  809  1  0.18908100  0.62946200  0.61512200  1
  C  810  1  0.15110500  0.62904500  0.61621000  1
  C  811  1  0.13467700  0.61705700  0.62831600  1
  C  818  1  0.24843100  0.61978300  0.62436500  1
  C  820  1  0.09782300  0.61700900  0.63129200  1
  C  822  1  0.15665700  0.09325900  0.39316700  1
  C  823  1  0.19420900  0.09128600  0.39260500  1
  C  824  1  0.21124400  0.06763700  0.38069500  1
  C  825  1  0.18914800  0.04608900  0.36962000  1
  C  826  1  0.15117000  0.04757000  0.37002700  1
  C  827  1  0.13471500  0.07165700  0.38200000  1
  C  834  1  0.24847400  0.06504400  0.37930800  1
  C  836  1  0.09785500  0.07465900  0.38204100  1
  C  838  1  0.18887200  0.57760600  0.92278200  1
  C  839  1  0.15161800  0.57498400  0.91890600  1
  C  840  1  0.12919500  0.59623200  0.92844100  1
  C  841  1  0.14505400  0.62007700  0.94334800  1
  C  842  1  0.18262200  0.62323600  0.94729800  1
  C  843  1  0.20493200  0.60155600  0.93628200  1
  C  850  1  0.09352100  0.59345200  0.92084900  1
  C  852  1  0.24199900  0.60326200  0.93586600  1
  C  854  1  0.18885000  0.07616900  0.59338700  1
  C  855  1  0.15159400  0.08004200  0.59463200  1
  C  856  1  0.12916800  0.07053600  0.60637100  1
  C  857  1  0.14502500  0.05566400  0.61535000  1
  C  858  1  0.18259500  0.05171600  0.61456700  1
  C  859  1  0.20490500  0.06269800  0.60387000  1
  C  866  1  0.09348400  0.07811200  0.61114900  1
  C  868  1  0.24197200  0.06309300  0.60597000  1
  C  870  1  0.18882900  0.40544000  0.42140700  1
  C  871  1  0.15156900  0.40424400  0.42405100  1
  C  872  1  0.12910100  0.39267600  0.40281800  1
  C  873  1  0.14491700  0.38383000  0.37897600  1
  C  874  1  0.18249100  0.38456900  0.37579600  1
  C  875  1  0.20484600  0.39508100  0.39745200  1
  C  882  1  0.09340100  0.38792500  0.40559900  1
  C  884  1  0.24190500  0.39289700  0.39569300  1
  C  886  1  0.68884200  0.46195200  0.03551900  1
  C  887  1  0.65159000  0.46457200  0.03940800  1
  C  888  1  0.62918400  0.44332100  0.02994700  1
  C  889  1  0.64505400  0.41947000  0.01510100  1
  C  890  1  0.68261900  0.41631500  0.01113900  1
  C  891  1  0.70491300  0.43800300  0.02208000  1
  C  898  1  0.59351300  0.44612000  0.03754600  1
  C  900  1  0.74198300  0.43631200  0.02247000  1
  C  902  1  0.68883100  0.96322700  0.36484800  1
  C  903  1  0.65157700  0.95935500  0.36361200  1
  C  909  1  0.59344800  0.96138000  0.34717900  1
  C  911  1  0.68885800  0.63399600  0.53704700  1
  C  912  1  0.65160100  0.63522100  0.53441500  1
  C  913  1  0.62916800  0.64693500  0.55565600  1
  C  914  1  0.64501900  0.65590300  0.57950800  1
  C  915  1  0.68259000  0.65514100  0.58267600  1
  C  916  1  0.70490800  0.64447500  0.56100200  1
  C  923  1  0.59348100  0.65170900  0.55286000  1
  C  925  1  0.74196900  0.64662100  0.56271900  1
  C  927  1  0.92823400  0.65913600  0.93186100  1
  C  928  1  0.90552000  0.65512500  0.94767600  1
  C  929  1  0.91232500  0.66666667  0.97365767  1
  C  930  1  0.94335700  0.68183300  0.98308100  1
  C  931  1  0.96674600  0.68613900  0.96749100  1
  C  932  1  0.95875200  0.67465500  0.94149300  1
  C  939  1  0.88801200  0.66345700  0.98900000  1
  C  941  1  0.97855300  0.67947100  0.92529800  1
  C  943  1  0.92824400  0.33315300  0.33983200  1
  C  944  1  0.90552000  0.35296900  0.34382800  1
  C  945  1  0.91232600  0.36740600  0.33228900  1
  C  946  1  0.94336600  0.36166300  0.31712200  1
  C  947  1  0.96676500  0.34177700  0.31283200  1
  C  948  1  0.95877200  0.32727100  0.32432400  1
  C  955  1  0.88801200  0.38595200  0.33548200  1
  C  957  1  0.97859200  0.30627500  0.31953200  1
  C  959  1  0.92827200  0.06720500  0.66591500  1
  C  960  1  0.90556600  0.05138100  0.64608800  1
  C  961  1  0.91238700  0.02540600  0.63165000  1
  C  962  1  0.94342300  0.01598800  0.63740600  1
  C  963  1  0.96680400  0.03158900  0.65730200  1
  C  964  1  0.95879600  0.05758400  0.67180800  1
  C  970  1  0.88809100  0.01005000  0.61309200  1
  C  972  1  0.97860500  0.07379500  0.69281000  1
  C  974  1  0.42826900  0.38046400  0.02655700  1
  C  975  1  0.40558100  0.38445700  0.01071800  1
  C  976  1  0.41241800  0.37290700  0.98474500  1
  C  977  1  0.44345500  0.35773300  0.97534200  1
  C  978  1  0.46682000  0.35344600  0.99095600  1
  C  979  1  0.45879100  0.36494500  0.01694900  1
  C  986  1  0.38813300  0.37609600  0.96937500  1
  C  988  1  0.47857000  0.36015000  0.03316900  1
  C  990  1  0.42828300  0.70653400  0.61854100  1
  C  991  1  0.40555900  0.68671900  0.61454800  1
  C  992  1  0.41235900  0.67228700  0.62609100  1
  C  993  1  0.44339600  0.67803300  0.64126400  1
  C  994  1  0.46679600  0.69791800  0.64555000  1
  C  995  1  0.45880700  0.71241900  0.63405300  1
  C  1002  1  0.38804500  0.65374100  0.62289900  1
  C  1004  1  0.47863500  0.73341200  0.63883800  1
  C  1006  1  0.41236500  0.01427000  0.32681900  1
  C  1007  1  0.44341200  0.02367700  0.32106600  1
  C  1008  1  0.46677100  0.00807000  0.30115600  1
  C  1014  1  0.38808800  0.02963700  0.34539000  1
  C  1016  1  0.47850600  0.96587000  0.26562100  1
  C  1018  1  0.90870300  0.40374900  0.00182400  1
  C  1019  1  0.92145500  0.40216600  0.97964800  1
  C  1020  1  0.90854500  0.38349100  0.95610100  1
  C  1021  1  0.88105900  0.36739500  0.95544100  1
  C  1022  1  0.86802200  0.36850500  0.97756900  1
  C  1023  1  0.88249400  0.38682600  0.00105900  1
  C  1030  1  0.92411900  0.37961100  0.93403300  1
  C  1032  1  0.87751900  0.38527900  0.02250800  1
  C  1034  1  0.90864200  0.65845200  0.59522400  1
  C  1035  1  0.92137800  0.63785200  0.59680300  1
  C  1036  1  0.90847900  0.63299100  0.61548800  1
  C  1037  1  0.88101600  0.64844300  0.63159900  1
  C  1038  1  0.86799600  0.66946800  0.63049400  1
  C  1039  1  0.88245900  0.67462600  0.61216200  1
  C  1046  1  0.92404700  0.61480000  0.61936400  1
  C  1048  1  0.87751700  0.69762900  0.61371800  1
  C  1050  1  0.92139300  0.01929600  0.36114700  1
  C  1051  1  0.90848600  0.04286100  0.36606800  1
  C  1052  1  0.88098900  0.04356000  0.35066000  1
  C  1053  1  0.86793700  0.02145500  0.32962100  1
  C  1059  1  0.92407100  0.06491100  0.38428000  1
  C  1061  1  0.40858100  0.63579600  0.95659800  1
  C  1062  1  0.42129800  0.63736100  0.97877400  1
  C  1063  1  0.40843300  0.65606400  0.00232200  1
  C  1064  1  0.38101700  0.67220800  0.00298500  1
  C  1065  1  0.36801600  0.67111600  0.98085800  1
  C  1066  1  0.38244700  0.65276300  0.95736400  1
  C  1073  1  0.42398700  0.65992000  0.02438700  1
  C  1075  1  0.37752800  0.65432500  0.93591900  1
  C  1077  1  0.40858600  0.38108900  0.36312600  1
  C  1078  1  0.42134600  0.40169900  0.36157600  1
  C  1079  1  0.40842000  0.40661600  0.34293400  1
  C  1080  1  0.38091200  0.39120800  0.32684100  1
  C  1081  1  0.36786500  0.37017400  0.32791600  1
  C  1082  1  0.38235300  0.36496000  0.34620300  1
  C  1089  1  0.42399700  0.42482000  0.33908100  1
  C  1091  1  0.37738300  0.34194000  0.34460500  1
  C  1093  1  0.40866700  0.04242100  0.61789700  1
  C  1094  1  0.42142100  0.02024500  0.59730200  1
  C  1095  1  0.36798900  0.01816100  0.62888300  1
  C  1096  1  0.38245800  0.04165400  0.63405500  1
  C  1103  1  0.37748500  0.06309900  0.65705100  1
  C  1105  1  0.87932700  0.59809700  0.14721000  1
  C  1106  1  0.88463600  0.61968800  0.14546900  1
  C  1107  1  0.86092800  0.64016800  0.15744400  1
  C  1108  1  0.83178400  0.63847600  0.17114600  1
  C  1109  1  0.82563400  0.61670300  0.17289200  1
  C  1110  1  0.84996600  0.59619300  0.16072600  1
  C  1117  1  0.86666700  0.66165000  0.15621000  1
  C  1119  1  0.84730100  0.57491500  0.16285400  1
  C  1121  1  0.87936200  0.60955600  0.40094000  1
  C  1122  1  0.88465800  0.58622400  0.37935000  1
  C  1123  1  0.86095300  0.57772700  0.35887000  1
  C  1124  1  0.83182400  0.59313300  0.36056000  1
  C  1125  1  0.82568700  0.61665200  0.38233300  1
  C  1126  1  0.85001700  0.62498900  0.40284200  1
  C  1133  1  0.86668700  0.55501100  0.33738600  1
  C  1135  1  0.84736800  0.64839900  0.42411900  1
  C  1137  1  0.87955000  0.85183500  0.38954900  1
  C  1138  1  0.88482100  0.85357300  0.41288100  1
  C  1139  1  0.86110400  0.84158500  0.42136500  1
  C  1140  1  0.83198400  0.82787200  0.40594700  1
  C  1141  1  0.82587100  0.82612900  0.38242800  1
  C  1142  1  0.85021600  0.83830500  0.37410400  1
  C  1149  1  0.86681400  0.84280700  0.44407900  1
  C  1151  1  0.84759300  0.83617200  0.35069300  1
  C  1153  1  0.37952700  0.44152500  0.81123800  1
  C  1154  1  0.38481400  0.41993500  0.81298100  1
  C  1155  1  0.36109800  0.39946000  0.80100400  1
  C  1156  1  0.33196600  0.40115700  0.78729300  1
  C  1157  1  0.32584300  0.42293100  0.78554500  1
  C  1158  1  0.35018400  0.44343400  0.79771300  1
  C  1165  1  0.36682400  0.37797300  0.80223100  1
  C  1167  1  0.34754600  0.46470800  0.79557300  1
  C  1169  1  0.37953800  0.43014200  0.55747500  1
  C  1170  1  0.38481400  0.45347800  0.57906600  1
  C  1171  1  0.36108400  0.46197500  0.59953500  1
  C  1172  1  0.33195000  0.44656600  0.59782800  1
  C  1173  1  0.32583500  0.42304400  0.57605500  1
  C  1174  1  0.35019200  0.41470700  0.55556000  1
  C  1181  1  0.36679500  0.48469100  0.62102100  1
  C  1183  1  0.34756500  0.39129400  0.53428700  1
  C  1185  1  0.37938300  0.18783500  0.56897100  1
  C  1186  1  0.38470100  0.18609500  0.54564200  1
  C  1187  1  0.36098000  0.19804900  0.53712000  1
  C  1188  1  0.33181300  0.21173200  0.55249900  1
  C  1189  1  0.32565200  0.21347600  0.57601500  1
  C  1190  1  0.34999900  0.20133200  0.58437500  1
  C  1197  1  0.36672700  0.19681300  0.51440400  1
  C  1199  1  0.34732400  0.20346000  0.60778100  1
  C  1201  1  0.97171300  0.43304800  0.80775700  1
  C  1202  1  0.96947200  0.45634400  0.80905400  1
  C  1203  1  0.99373600  0.46273700  0.79559900  1
  C  1204  1  0.02019600  0.44517900  0.78075100  1
  C  1205  1  0.02324500  0.42160400  0.77942400  1
  C  1206  1  0.99842700  0.41544000  0.79314400  1
  C  1213  1  0.98960800  0.48505500  0.79573700  1
  C  1215  1  0.99784500  0.39222100  0.79163300  1
  C  1217  1  0.97154300  0.19160100  0.56408300  1
  C  1218  1  0.96930900  0.19032500  0.58609400  1
  C  1219  1  0.99386800  0.20353800  0.60580400  1
  C  1220  1  0.02059600  0.21813700  0.60296000  1
  C  1221  1  0.02363400  0.21944000  0.58069900  1
  C  1222  1  0.99853700  0.20595100  0.56094500  1
  C  1229  1  0.98982700  0.20337900  0.62797900  1
  C  1231  1  0.99799700  0.20741400  0.53921300  1
  C  1233  1  0.97155500  0.43510700  0.56599000  1
  C  1234  1  0.96933100  0.41311200  0.54268800  1
  C  1235  1  0.99359800  0.39326700  0.53629800  1
  C  1236  1  0.02004300  0.39597400  0.55386200  1
  C  1237  1  0.02307600  0.41821400  0.57744200  1
  C  1238  1  0.99825800  0.43809900  0.58360500  1
  C  1245  1  0.98951100  0.37109500  0.51396100  1
  C  1247  1  0.99767400  0.45980800  0.60681900  1
  C  1249  1  0.47150500  0.60666900  0.15085200  1
  C  1250  1  0.46928800  0.58336700  0.14954700  1
  C  1251  1  0.49370800  0.57691900  0.16287700  1
  C  1252  1  0.52028700  0.59442700  0.17761300  1
  C  1253  1  0.52330600  0.61800700  0.17894900  1
  C  1254  1  0.49834500  0.62422400  0.16534900  1
  C  1261  1  0.48965000  0.55457800  0.16270300  1
  C  1263  1  0.49776800  0.64743500  0.16684600  1
  C  1265  1  0.47160200  0.84833600  0.39451800  1
  C  1266  1  0.46934500  0.84962900  0.37251700  1
  C  1267  1  0.49360600  0.83617300  0.35266600  1
  C  1268  1  0.52007500  0.82133200  0.35537400  1
  C  1269  1  0.52314000  0.82000800  0.37762300  1
  C  1270  1  0.49832600  0.83372700  0.39751000  1
  C  1277  1  0.48946500  0.83631000  0.33048500  1
  C  1279  1  0.49776000  0.83222400  0.41922200  1
  C  1281  1  0.47155900  0.60464100  0.39231700  1
  C  1282  1  0.46935000  0.62664700  0.41560900  1
  C  1283  1  0.49387100  0.64637400  0.42208300  1
  C  1284  1  0.52054200  0.64354600  0.40460900  1
  C  1285  1  0.52355600  0.62129000  0.38103900  1
  C  1286  1  0.49849200  0.60152100  0.37479700  1
  C  1293  1  0.48984100  0.66855000  0.44441600  1
  C  1295  1  0.49792100  0.57979700  0.35159600  1
  N  14  1  0.88809300  0.98606700  0.60309400  1
  N  24  1  0.45842300  0.97252200  0.57340600  1
  N  54  1  0.94259200  0.72611700  0.13998800  1
  N  55  1  0.87063500  0.66011300  0.13481500  1
  N  56  1  0.88800600  0.67744100  0.01298300  1
  N  57  1  0.76969100  0.67512600  0.04332800  1
  N  76  1  0.94258900  0.47433000  0.27287600  1
  N  77  1  0.87065700  0.53515100  0.33891800  1
  N  78  1  0.88801500  0.39595200  0.32149900  1
  N  79  1  0.76969900  0.42861600  0.32382500  1
  N  95  1  0.94266400  0.85905000  0.52481900  1
  N  96  1  0.87073900  0.86419700  0.46394900  1
  N  97  1  0.76979500  0.95570900  0.57040400  1
  N  116  1  0.44274100  0.31347100  0.81836100  1
  N  117  1  0.37080400  0.37950000  0.82362100  1
  N  118  1  0.38812000  0.36207500  0.94539800  1
  N  119  1  0.26981800  0.36441200  0.91505200  1
  N  138  1  0.44263400  0.56539600  0.68554800  1
  N  139  1  0.37075800  0.50455400  0.61949200  1
  N  140  1  0.38805300  0.64373200  0.63687400  1
  N  141  1  0.26974500  0.61105100  0.63454500  1
  N  160  1  0.44267100  0.18062500  0.43373000  1
  N  161  1  0.37071200  0.17541700  0.49455000  1
  N  162  1  0.38808000  0.05361500  0.35535700  1
  N  163  1  0.26977200  0.08396400  0.38802600  1
  N  182  1  0.90128800  0.56092300  0.81559800  1
  N  183  1  0.98747000  0.50560600  0.81673500  1
  N  184  1  0.00017300  0.66414600  0.90826400  1
  N  185  1  0.07876200  0.61025100  0.91733000  1
  N  204  1  0.90134300  0.18348100  0.68384800  1
  N  205  1  0.98756000  0.18235700  0.62747200  1
  N  206  1  0.00020700  0.09082700  0.69449400  1
  N  207  1  0.07867900  0.08162100  0.63145000  1
  N  226  1  0.90133900  0.31498300  0.43804900  1
  N  227  1  0.98726200  0.37156600  0.49342600  1
  N  228  1  0.00018600  0.30458800  0.33488200  1
  N  229  1  0.07862800  0.36761800  0.38878900  1
  N  248  1  0.40130100  0.47874600  0.14286200  1
  N  249  1  0.48740200  0.53405700  0.14168600  1
  N  250  1  0.50016700  0.37548900  0.05021100  1
  N  251  1  0.57872400  0.42933600  0.04107600  1
  N  269  1  0.40115900  0.85618300  0.27448200  1
  N  270  1  0.48734000  0.85731000  0.33093200  1
  N  271  1  0.50010200  0.94882300  0.26390600  1
  N  272  1  0.57868700  0.95787800  0.32686800  1
  N  291  1  0.40137600  0.72443600  0.52019000  1
  N  292  1  0.48757900  0.66804800  0.46493400  1
  N  293  1  0.50024500  0.73508400  0.62348500  1
  N  294  1  0.57868100  0.67201500  0.56964800  1
  N  313  1  0.96369300  0.30627100  0.78568200  1
  N  314  1  0.99455300  0.39062300  0.81152500  1
  N  315  1  0.95845500  0.37832400  0.93192200  1
  N  316  1  0.08104100  0.37288000  0.90931200  1
  N  335  1  0.96361900  0.53985200  0.69276000  1
  N  336  1  0.99442100  0.48129700  0.60841000  1
  N  337  1  0.95838300  0.61396900  0.62064300  1
  N  338  1  0.08096800  0.59678900  0.62606600  1
  N  357  1  0.96361300  0.21324900  0.45918400  1
  N  358  1  0.99453200  0.18750500  0.51775400  1
  N  359  1  0.95840700  0.06702100  0.38508900  1
  N  360  1  0.08099000  0.08965100  0.40225800  1
  N  379  1  0.46356500  0.73335500  0.17274100  1
  N  380  1  0.49440500  0.64901400  0.14694800  1
  N  381  1  0.45832700  0.66118600  0.02648900  1
  N  382  1  0.58091100  0.66666667  0.04910267  1
  N  401  1  0.46358600  0.49979600  0.26570000  1
  N  402  1  0.49446700  0.55833400  0.35003400  1
  N  403  1  0.45833500  0.42563200  0.33777600  1
  N  404  1  0.58091700  0.44282500  0.33234500  1
  N  422  1  0.46368000  0.82628300  0.49923400  1
  N  423  1  0.49447500  0.85211800  0.44071100  1
  N  424  1  0.58101100  0.94992600  0.55620900  1
  N  443  1  0.87056100  0.49667900  0.17351900  1
  N  444  1  0.84929800  0.55296400  0.14342400  1
  N  445  1  0.86238900  0.40142900  0.04298100  1
  N  446  1  0.75757800  0.44570200  0.04383700  1
  N  464  1  0.87071200  0.82545800  0.26176400  1
  N  465  1  0.84958200  0.85560000  0.34816900  1
  N  466  1  0.86231800  0.95603600  0.29701100  1
  N  467  1  0.75753300  0.95502900  0.34030600  1
  N  486  1  0.87056900  0.73731400  0.50235000  1
  N  487  1  0.84935900  0.65092200  0.44607100  1
  N  488  1  0.86239100  0.70197100  0.59758100  1
  N  489  1  0.75751800  0.65864100  0.55335800  1
  N  508  1  0.37070400  0.54292700  0.78485900  1
  N  509  1  0.34953700  0.48666200  0.81500100  1
  N  510  1  0.36241800  0.63819100  0.91543200  1
  N  511  1  0.25755200  0.59391700  0.91448700  1
  N  530  1  0.37059700  0.21412700  0.69668200  1
  N  531  1  0.34933300  0.18403200  0.61030300  1
  N  532  1  0.36236200  0.08357600  0.66138200  1
  N  533  1  0.25756500  0.08445900  0.61796200  1
  N  552  1  0.37070400  0.30235600  0.45609200  1
  N  553  1  0.34956200  0.38876300  0.51233100  1
  N  554  1  0.36228100  0.33757200  0.36073200  1
  N  555  1  0.25750300  0.38088600  0.40504400  1
  N  565  1  0.83929200  0.79377800  0.18906800  1
  N  581  1  0.83928200  0.45560600  0.20516500  1
  N  597  1  0.83923500  0.81002900  0.54338100  1
  N  613  1  0.33940500  0.24576500  0.76942400  1
  N  629  1  0.33929700  0.58395300  0.75318500  1
  N  645  1  0.33933800  0.22964600  0.41509000  1
  N  661  1  0.99104700  0.58690000  0.76450400  1
  N  677  1  0.99097800  0.23451000  0.76101400  1
  N  693  1  0.99104900  0.23789700  0.41210900  1
  N  709  1  0.49096800  0.45271300  0.19395900  1
  N  725  1  0.49094400  0.80510300  0.19742300  1
  N  741  1  0.49100600  0.80160300  0.54631500  1
  N  757  1  0.63193200  0.64595600  0.98525400  1
  N  773  1  0.63199900  0.39966700  0.35301600  1
  N  786  1  0.63203600  0.01378200  0.59934700  1
  N  799  1  0.13208500  0.39359400  0.97315700  1
  N  815  1  0.13198300  0.63997200  0.60539800  1
  N  831  1  0.13207200  0.02582100  0.35910200  1
  N  847  1  0.19577600  0.64698000  0.96054600  1
  N  863  1  0.19574700  0.03850000  0.62509800  1
  N  879  1  0.19560200  0.37417100  0.35204900  1
  N  895  1  0.69578900  0.39257000  0.99795500  1
  N  906  1  0.69564200  0.00120700  0.33346500  1
  N  920  1  0.69573600  0.66566200  0.60642400  1
  N  936  1  0.99584500  0.70116400  0.97798800  1
  N  952  1  0.99587400  0.33725300  0.29781700  1
  N  967  1  0.99591100  0.02110300  0.66183600  1
  N  983  1  0.49592700  0.33842200  0.98048500  1
  N  999  1  0.49590300  0.70244500  0.66056900  1
  N  1011  1  0.49589200  0.01854400  0.29662000  1
  N  1027  1  0.84275100  0.35162500  0.97549000  1
  N  1043  1  0.84275100  0.68428600  0.64738800  1
  N  1056  1  0.84265700  0.02357100  0.31484800  1
  N  1070  1  0.34281800  0.68803800  0.98293800  1
  N  1086  1  0.34257400  0.35540100  0.31103700  1
  N  1099  1  0.34271900  0.01608000  0.64368300  1
  N  1114  1  0.79645900  0.61625000  0.18596000  1
  N  1130  1  0.79652800  0.63018700  0.38278500  1
  N  1146  1  0.79671800  0.81305000  0.36888100  1
  N  1162  1  0.29668200  0.42339100  0.77246900  1
  N  1178  1  0.29667100  0.40950600  0.57558600  1
  N  1194  1  0.29645600  0.22652300  0.58952300  1
  N  1210  1  0.04995600  0.40586300  0.76513900  1
  N  1226  1  0.05060800  0.23346800  0.57909700  1
  N  1242  1  0.04977300  0.41967000  0.59319100  1
  N  1258  1  0.55013500  0.63370000  0.19311900  1
  N  1274  1  0.54985900  0.80572800  0.37907800  1
  N  1290  1  0.55047300  0.61970600  0.36537800  1
