# generated using pymatgen
data_H44C51N8
_symmetry_space_group_name_H-M   'P 1'
_cell_length_a   31.72080000
_cell_length_b   36.04520000
_cell_length_c   36.04520000
_cell_angle_alpha   90.00000000
_cell_angle_beta   90.00030000
_cell_angle_gamma   90.00000000
_symmetry_Int_Tables_number   1
_chemical_formula_structural   H44C51N8
_chemical_formula_sum   'H352 C408 N64'
_cell_volume   41213.45377782
_cell_formula_units_Z   8
loop_
 _symmetry_equiv_pos_site_id
 _symmetry_equiv_pos_as_xyz
  1  'x, y, z'
loop_
 _atom_site_type_symbol
 _atom_site_label
 _atom_site_symmetry_multiplicity
 _atom_site_fract_x
 _atom_site_fract_y
 _atom_site_fract_z
 _atom_site_occupancy
  H  25  1  0.00563000  0.06196000  0.11074800  1
  H  26  1  0.01170800  0.08061000  0.04732300  1
  H  27  1  0.03286500  0.18114600  0.95294500  1
  H  28  1  0.03694900  0.24538600  0.93700100  1
  H  29  1  0.00134300  0.27419100  0.04542300  1
  H  30  1  0.98791100  0.17297700  0.14234000  1
  H  31  1  0.92182500  0.19271600  0.04849300  1
  H  32  1  0.85078700  0.26813000  0.11172500  1
  H  33  1  0.91298900  0.28637600  0.14433900  1
  H  34  1  0.08112100  0.18444000  0.07098500  1
  H  35  1  0.06884400  0.28081700  0.16356400  1
  H  36  1  0.13610000  0.25320500  0.15148600  1
  H  39  1  0.04398200  0.13694900  0.01053900  1
  H  40  1  0.98939900  0.13619900  0.00016200  1
  H  42  1  0.99477400  0.29471000  0.13044000  1
  H  43  1  0.98832800  0.26011300  0.16489000  1
  H  45  1  0.15012000  0.17033100  0.08939500  1
  H  46  1  0.16566100  0.18618500  0.13289900  1
  H  48  1  0.85104500  0.20175900  0.03120900  1
  H  49  1  0.82973400  0.24469700  0.04312300  1
  H  51  1  0.03556700  0.31969000  0.00330800  1
  H  52  1  0.98393300  0.31625000  0.98595200  1
  H  54  1  0.03002000  0.09885300  0.17818800  1
  H  55  1  0.99001700  0.12981100  0.18972000  1
  H  80  1  0.00558200  0.93875700  0.63639200  1
  H  81  1  0.01169900  0.92011100  0.69981000  1
  H  82  1  0.03289400  0.81959800  0.79420300  1
  H  83  1  0.03699300  0.75536200  0.81015800  1
  H  84  1  0.00136900  0.72652900  0.70174900  1
  H  85  1  0.98790500  0.82773300  0.60480900  1
  H  86  1  0.92185100  0.80799600  0.69866300  1
  H  87  1  0.85081200  0.73256600  0.63544200  1
  H  88  1  0.91301400  0.71432200  0.60283000  1
  H  89  1  0.08114500  0.81626700  0.67617100  1
  H  90  1  0.06886700  0.71986800  0.58361500  1
  H  91  1  0.13612400  0.74748100  0.59568600  1
  H  94  1  0.04399900  0.86378500  0.73659500  1
  H  95  1  0.98942200  0.86453100  0.74698000  1
  H  97  1  0.99479300  0.70598600  0.61674400  1
  H  98  1  0.98835600  0.74057000  0.58227900  1
  H  100  1  0.15014700  0.83036600  0.65776600  1
  H  101  1  0.16568200  0.81451000  0.61426000  1
  H  103  1  0.85107000  0.79894100  0.71594900  1
  H  104  1  0.82976000  0.75600300  0.70402800  1
  H  106  1  0.03562200  0.68104700  0.74385800  1
  H  107  1  0.98399600  0.68447100  0.76123700  1
  H  109  1  0.02995900  0.90185100  0.56893000  1
  H  110  1  0.98994200  0.87090100  0.55742400  1
  H  135  1  0.00560500  0.76318600  0.93518900  1
  H  136  1  0.01169000  0.82660600  0.95383600  1
  H  137  1  0.03288400  0.92099100  0.05435800  1
  H  138  1  0.03699400  0.93693700  0.11859100  1
  H  139  1  0.00138100  0.82852100  0.14741600  1
  H  140  1  0.98790800  0.73159800  0.04621200  1
  H  141  1  0.92184100  0.82546100  0.06595300  1
  H  142  1  0.85079300  0.76222100  0.14136100  1
  H  143  1  0.91299500  0.72960000  0.15959800  1
  H  144  1  0.08112400  0.80292800  0.05764600  1
  H  145  1  0.06884700  0.71037200  0.15404900  1
  H  146  1  0.13609900  0.72242600  0.12642400  1
  H  149  1  0.04398000  0.86339100  0.01016000  1
  H  150  1  0.98939900  0.87377800  0.00942500  1
  H  152  1  0.99479000  0.74350500  0.16794200  1
  H  153  1  0.98832800  0.70905400  0.13334800  1
  H  155  1  0.15012000  0.78450600  0.04354200  1
  H  156  1  0.16565500  0.74100600  0.05940500  1
  H  158  1  0.85105800  0.84273300  0.07498100  1
  H  159  1  0.82973700  0.83082600  0.11791700  1
  H  161  1  0.03563100  0.87062600  0.19290600  1
  H  162  1  0.98400600  0.88800700  0.18947500  1
  H  164  1  0.02999700  0.69573500  0.97209900  1
  H  165  1  0.98998300  0.68421600  0.00304600  1
  H  190  1  0.00548000  0.23752400  0.81199400  1
  H  191  1  0.01162500  0.17410100  0.79333400  1
  H  192  1  0.03287100  0.07971700  0.69280500  1
  H  193  1  0.03697000  0.06376600  0.62857200  1
  H  194  1  0.00139300  0.17219200  0.59974400  1
  H  195  1  0.98791100  0.26912400  0.70094900  1
  H  196  1  0.92187300  0.17527900  0.68122400  1
  H  197  1  0.85082100  0.23852700  0.60582900  1
  H  198  1  0.91302700  0.27113400  0.58757500  1
  H  199  1  0.08116800  0.19775200  0.68947600  1
  H  200  1  0.06888200  0.29034100  0.59310800  1
  H  201  1  0.13614000  0.27826400  0.62071300  1
  H  204  1  0.04398400  0.13730900  0.73700000  1
  H  205  1  0.98939600  0.12695200  0.73773600  1
  H  207  1  0.99481200  0.25721500  0.57921600  1
  H  208  1  0.98837500  0.29166700  0.61381400  1
  H  210  1  0.15017700  0.21617500  0.70357800  1
  H  211  1  0.16570700  0.25968000  0.68771800  1
  H  213  1  0.85108300  0.15801500  0.67221500  1
  H  214  1  0.82976600  0.16991100  0.62927500  1
  H  216  1  0.03562900  0.13007800  0.55425700  1
  H  217  1  0.98399900  0.11270900  0.55768200  1
  H  219  1  0.02987500  0.30502500  0.77508000  1
  H  220  1  0.98983500  0.31649100  0.74413700  1
  H  245  1  0.52312700  0.56221300  0.61207000  1
  H  246  1  0.52050500  0.58128700  0.54848600  1
  H  247  1  0.52065600  0.68246500  0.45342500  1
  H  248  1  0.51544500  0.74627100  0.43738100  1
  H  249  1  0.48311600  0.77226100  0.54738700  1
  H  250  1  0.50519900  0.67263300  0.64590200  1
  H  251  1  0.42142400  0.67739700  0.56569400  1
  H  252  1  0.35130600  0.73635000  0.64516600  1
  H  253  1  0.41295700  0.77019400  0.66240900  1
  H  254  1  0.58085300  0.70075100  0.55757500  1
  H  255  1  0.56741400  0.79333400  0.65386800  1
  H  256  1  0.63451200  0.78271400  0.62545600  1
  H  259  1  0.54308300  0.64065700  0.50860300  1
  H  260  1  0.48796400  0.63369600  0.50474100  1
  H  262  1  0.48688300  0.79311000  0.63446100  1
  H  263  1  0.49469800  0.75840000  0.66859600  1
  H  265  1  0.66340500  0.76427100  0.55804400  1
  H  266  1  0.64958100  0.71986500  0.54334000  1
  H  268  1  0.33328300  0.66727300  0.62145400  1
  H  269  1  0.35197100  0.65739400  0.57711300  1
  H  271  1  0.50154200  0.82101300  0.50667200  1
  H  272  1  0.45638600  0.81112600  0.48071200  1
  H  274  1  0.54985400  0.59230300  0.67786500  1
  H  275  1  0.51846200  0.62921000  0.69233000  1
  H  300  1  0.52312100  0.43849900  0.13505700  1
  H  301  1  0.52051400  0.41943200  0.19864400  1
  H  302  1  0.52070300  0.31825600  0.29371100  1
  H  303  1  0.51551100  0.25444700  0.30974900  1
  H  304  1  0.48312500  0.22846500  0.19975700  1
  H  305  1  0.50517100  0.32808000  0.10123700  1
  H  306  1  0.42141800  0.32331600  0.18144400  1
  H  307  1  0.35129000  0.26433400  0.10199000  1
  H  308  1  0.41294400  0.23049100  0.08475100  1
  H  309  1  0.58084400  0.29999000  0.18954700  1
  H  310  1  0.56740800  0.20735000  0.09330800  1
  H  311  1  0.63450300  0.21799300  0.12170900  1
  H  314  1  0.54310200  0.36006200  0.23852300  1
  H  315  1  0.48798300  0.36703100  0.24240400  1
  H  317  1  0.48687400  0.20759100  0.11270800  1
  H  318  1  0.49468900  0.24228300  0.07855700  1
  H  320  1  0.66339500  0.23647400  0.18913400  1
  H  321  1  0.64956200  0.28088600  0.20380700  1
  H  323  1  0.33326100  0.33343100  0.12569700  1
  H  324  1  0.35195600  0.34330200  0.17004000  1
  H  326  1  0.50160800  0.17971200  0.24046200  1
  H  327  1  0.45644200  0.18958100  0.26641600  1
  H  329  1  0.54983200  0.40839800  0.06925900  1
  H  330  1  0.51842100  0.37150000  0.05480100  1
  H  355  1  0.52313100  0.26185700  0.43543300  1
  H  356  1  0.52052700  0.32544100  0.45450700  1
  H  357  1  0.52064600  0.42051100  0.55569100  1
  H  358  1  0.51538500  0.43655500  0.61949100  1
  H  359  1  0.48311600  0.32653200  0.64547200  1
  H  360  1  0.50519300  0.22802700  0.54585000  1
  H  361  1  0.42144600  0.30824300  0.55062400  1
  H  362  1  0.35131300  0.22876700  0.60956700  1
  H  363  1  0.41296300  0.21151400  0.64341100  1
  H  364  1  0.58086600  0.31633100  0.57394900  1
  H  365  1  0.56742700  0.22005200  0.66655200  1
  H  366  1  0.63453100  0.24845500  0.65591500  1
  H  369  1  0.54310200  0.36532700  0.51387900  1
  H  370  1  0.48798000  0.36918600  0.50691300  1
  H  372  1  0.48688900  0.23946100  0.66632700  1
  H  373  1  0.49471100  0.20532500  0.63162000  1
  H  375  1  0.66342000  0.31589800  0.63744700  1
  H  376  1  0.64959000  0.33056500  0.59303000  1
  H  378  1  0.33329600  0.25250900  0.54046700  1
  H  379  1  0.35200000  0.29685200  0.53061900  1
  H  381  1  0.50142900  0.36725300  0.69424700  1
  H  382  1  0.45631300  0.39323900  0.68430100  1
  H  384  1  0.54985100  0.19605400  0.46554000  1
  H  385  1  0.51843000  0.18159500  0.50243000  1
  H  410  1  0.52309600  0.73886100  0.31170000  1
  H  411  1  0.52049800  0.67527400  0.29262700  1
  H  412  1  0.52067200  0.58021300  0.19144300  1
  H  413  1  0.51544200  0.56416900  0.12764000  1
  H  414  1  0.48311900  0.67418100  0.10165500  1
  H  415  1  0.50514200  0.77269100  0.20128700  1
  H  416  1  0.42141500  0.69247500  0.19650400  1
  H  417  1  0.35128700  0.77193100  0.13754100  1
  H  418  1  0.41293800  0.78918100  0.10369600  1
  H  419  1  0.58084700  0.68439900  0.17320400  1
  H  420  1  0.56740800  0.78065600  0.08057700  1
  H  421  1  0.63450600  0.75225800  0.09122300  1
  H  424  1  0.54309200  0.63540500  0.23325900  1
  H  425  1  0.48797400  0.63151800  0.24021600  1
  H  427  1  0.48688600  0.76124700  0.08080000  1
  H  428  1  0.49467300  0.79539000  0.11550700  1
  H  430  1  0.66339500  0.68483200  0.10969300  1
  H  431  1  0.64956500  0.67015300  0.15410300  1
  H  433  1  0.33327700  0.74821000  0.20663700  1
  H  434  1  0.35197500  0.70386600  0.21649900  1
  H  436  1  0.50150100  0.63346300  0.05288700  1
  H  437  1  0.45636700  0.60749300  0.06281000  1
  H  439  1  0.54980400  0.80465900  0.28159600  1
  H  440  1  0.51838600  0.81912100  0.24470500  1
  H  451  1  0.06049200  0.98812300  0.22309800  1
  H  452  1  0.03369800  0.04952500  0.22157500  1
  H  454  1  0.86236600  0.03153800  0.10742200  1
  H  455  1  0.83853900  0.98812000  0.11651700  1
  H  456  1  0.87125000  0.99400200  0.07681800  1
  H  458  1  0.87017800  0.92676400  0.09704200  1
  H  459  1  0.88860100  0.89989200  0.13465500  1
  H  460  1  0.92072500  0.90634500  0.09489700  1
  H  462  1  0.03526600  0.92399800  0.22266400  1
  H  464  1  0.93860900  0.07970900  0.17496000  1
  H  475  1  0.06045200  0.01258200  0.52405000  1
  H  476  1  0.03364000  0.95118600  0.52556500  1
  H  478  1  0.86232200  0.96919700  0.63973400  1
  H  479  1  0.83850800  0.01262000  0.63064200  1
  H  480  1  0.87122100  0.00672800  0.67034000  1
  H  482  1  0.87016500  0.07396700  0.65012100  1
  H  483  1  0.88859200  0.10083900  0.61251000  1
  H  484  1  0.92071600  0.09437700  0.65226600  1
  H  486  1  0.03525300  0.07670900  0.52449700  1
  H  488  1  0.93855900  0.92101300  0.57220200  1
  H  499  1  0.06049000  0.65086000  0.86135200  1
  H  500  1  0.03369200  0.65237200  0.92275500  1
  H  502  1  0.86233400  0.76649800  0.90477000  1
  H  503  1  0.83851400  0.75740400  0.86135000  1
  H  504  1  0.87121800  0.79710700  0.86723400  1
  H  506  1  0.87015300  0.77688800  0.79999700  1
  H  507  1  0.88858500  0.73928000  0.77312200  1
  H  508  1  0.92070000  0.77904400  0.77957800  1
  H  510  1  0.03526700  0.65129300  0.79723200  1
  H  512  1  0.93859400  0.69897500  0.95293800  1
  H  523  1  0.06033600  0.34991100  0.88580700  1
  H  524  1  0.03352000  0.34836800  0.82441200  1
  H  526  1  0.86227800  0.23411600  0.84246000  1
  H  527  1  0.83846000  0.24321100  0.88588000  1
  H  528  1  0.87119300  0.20352600  0.88000200  1
  H  530  1  0.87012700  0.22376700  0.94723400  1
  H  531  1  0.88853800  0.26139600  0.97409500  1
  H  532  1  0.92068100  0.22165200  0.96764500  1
  H  534  1  0.03514600  0.34945800  0.94993800  1
  H  536  1  0.93848300  0.30164300  0.79424900  1
  H  547  1  0.55483900  0.47696800  0.72451200  1
  H  548  1  0.54352400  0.54214700  0.72313900  1
  H  550  1  0.37106900  0.55655400  0.60942800  1
  H  551  1  0.33792400  0.51799700  0.61781500  1
  H  552  1  0.37150100  0.51867600  0.57824800  1
  H  554  1  0.35535400  0.45268100  0.59711300  1
  H  555  1  0.36679500  0.42264700  0.63449400  1
  H  556  1  0.40028000  0.42380100  0.59509300  1
  H  558  1  0.51156400  0.41913800  0.72422900  1
  H  560  1  0.45569800  0.58893800  0.68058600  1
  H  571  1  0.55486100  0.52373100  0.02262200  1
  H  572  1  0.54351800  0.45855500  0.02399500  1
  H  574  1  0.37106000  0.44420000  0.13770700  1
  H  575  1  0.33793000  0.48277100  0.12932100  1
  H  576  1  0.37150800  0.48208100  0.16888700  1
  H  578  1  0.35538900  0.54807800  0.15002100  1
  H  579  1  0.36683900  0.57811000  0.11264100  1
  H  580  1  0.40032500  0.57694800  0.15204200  1
  H  582  1  0.51161800  0.58157500  0.02290700  1
  H  584  1  0.45567600  0.41179100  0.06655200  1
  H  595  1  0.55493000  0.14944900  0.35020400  1
  H  596  1  0.54356500  0.15081000  0.41537500  1
  H  598  1  0.37105000  0.26446000  0.42970100  1
  H  599  1  0.33793600  0.25606600  0.39112400  1
  H  600  1  0.37149500  0.29564500  0.39182600  1
  H  602  1  0.35540500  0.27678000  0.32582300  1
  H  603  1  0.36688300  0.23940700  0.29578900  1
  H  604  1  0.40035000  0.27882200  0.29696500  1
  H  606  1  0.51171200  0.14972600  0.29235200  1
  H  608  1  0.45569800  0.19334400  0.46212700  1
  H  619  1  0.55487300  0.85127800  0.39693500  1
  H  620  1  0.54351500  0.84991600  0.33176100  1
  H  622  1  0.37101900  0.73624500  0.31742500  1
  H  623  1  0.33790200  0.74463200  0.35600200  1
  H  624  1  0.37146700  0.70505600  0.35530000  1
  H  626  1  0.35537000  0.72391900  0.42130300  1
  H  627  1  0.36683900  0.76129100  0.45133800  1
  H  628  1  0.40031200  0.72188200  0.45016200  1
  H  630  1  0.51164900  0.85099800  0.45478400  1
  H  632  1  0.45565100  0.80738000  0.28500800  1
  H  643  1  0.69565800  0.27489200  0.08459800  1
  H  644  1  0.74682000  0.24004500  0.05007700  1
  H  646  1  0.86174200  0.15846100  0.18887000  1
  H  647  1  0.82726000  0.14979200  0.22643300  1
  H  648  1  0.86233100  0.18832700  0.22778800  1
  H  650  1  0.79876700  0.20000700  0.26823600  1
  H  651  1  0.74406800  0.20694300  0.26238500  1
  H  652  1  0.77877100  0.24551700  0.26388400  1
  H  654  1  0.67964300  0.30500900  0.14440800  1
  H  656  1  0.82028000  0.17517800  0.08764300  1
  H  667  1  0.69567100  0.72582700  0.66255400  1
  H  668  1  0.74683600  0.76066700  0.69708100  1
  H  670  1  0.86178000  0.84224200  0.55829500  1
  H  671  1  0.82729700  0.85091700  0.52072800  1
  H  672  1  0.86236300  0.81237700  0.51937400  1
  H  674  1  0.79879900  0.80070600  0.47892400  1
  H  675  1  0.74410000  0.79377800  0.48477200  1
  H  676  1  0.77879600  0.75519900  0.48327200  1
  H  678  1  0.67965900  0.69571200  0.60273800  1
  H  680  1  0.82029900  0.82553300  0.65952000  1
  H  691  1  0.69566800  0.78936100  0.14810300  1
  H  692  1  0.74683900  0.82387100  0.11325500  1
  H  694  1  0.86175100  0.68505100  0.03170700  1
  H  695  1  0.82726000  0.64749000  0.02304200  1
  H  696  1  0.86232800  0.64613600  0.06158000  1
  H  698  1  0.79875500  0.60570000  0.07326300  1
  H  699  1  0.74405900  0.61156000  0.08019200  1
  H  700  1  0.77875500  0.61006200  0.11876900  1
  H  702  1  0.67963700  0.72955900  0.17822800  1
  H  704  1  0.82031500  0.78628200  0.04841000  1
  H  715  1  0.69570200  0.21135600  0.59906200  1
  H  716  1  0.74687400  0.17686100  0.63392400  1
  H  718  1  0.86175100  0.31571500  0.71545500  1
  H  719  1  0.82725600  0.35327300  0.72410600  1
  H  720  1  0.86232800  0.35462100  0.68557400  1
  H  722  1  0.79875100  0.39504800  0.67387100  1
  H  723  1  0.74405900  0.38918100  0.66693500  1
  H  724  1  0.77876100  0.39067300  0.62836400  1
  H  726  1  0.67965600  0.27114700  0.56892800  1
  H  728  1  0.82033700  0.21447500  0.69876500  1
  H  739  1  0.29737700  0.70605200  0.10121200  1
  H  740  1  0.24730100  0.74102800  0.06580300  1
  H  742  1  0.14270800  0.83715700  0.20141400  1
  H  743  1  0.17926900  0.84668400  0.23720400  1
  H  744  1  0.14176100  0.81032400  0.24247900  1
  H  746  1  0.20610400  0.79818600  0.28183900  1
  H  747  1  0.26000500  0.78810200  0.27491500  1
  H  748  1  0.22305700  0.75155100  0.28034900  1
  H  750  1  0.31639200  0.68053700  0.16129200  1
  H  752  1  0.17904000  0.81171700  0.10120000  1
  H  763  1  0.29742200  0.29463800  0.64590700  1
  H  764  1  0.24735300  0.25965200  0.68131500  1
  H  766  1  0.14273100  0.16356400  0.54569000  1
  H  767  1  0.17928400  0.15404800  0.50989400  1
  H  768  1  0.14177600  0.19040800  0.50463400  1
  H  770  1  0.20611000  0.20255700  0.46526900  1
  H  771  1  0.26001200  0.21263900  0.47218600  1
  H  772  1  0.22306300  0.24919300  0.46677000  1
  H  774  1  0.31643000  0.32016700  0.58583200  1
  H  776  1  0.17908300  0.18897400  0.64590900  1
  H  787  1  0.29738800  0.22800000  0.16784300  1
  H  788  1  0.24731000  0.19259100  0.13286600  1
  H  790  1  0.14267400  0.32821000  0.03678400  1
  H  791  1  0.17922800  0.36400700  0.02725800  1
  H  792  1  0.14172700  0.36927000  0.06362400  1
  H  794  1  0.20606700  0.40863400  0.07576000  1
  H  795  1  0.25997000  0.40171500  0.08583300  1
  H  796  1  0.22303000  0.40713600  0.12239200  1
  H  798  1  0.31640200  0.28807700  0.19336800  1
  H  800  1  0.17903300  0.22799400  0.06219200  1
  H  811  1  0.29739500  0.77268500  0.57929300  1
  H  812  1  0.24732700  0.80809900  0.61427700  1
  H  814  1  0.14270600  0.67249200  0.71038600  1
  H  815  1  0.17925900  0.63669500  0.71990800  1
  H  816  1  0.14175000  0.63142900  0.68355100  1
  H  818  1  0.20608500  0.59206200  0.67140500  1
  H  819  1  0.25998600  0.59897800  0.66132100  1
  H  820  1  0.22303700  0.59355700  0.62476900  1
  H  822  1  0.31639500  0.71260200  0.55377000  1
  H  824  1  0.17906400  0.77270500  0.68496600  1
  C  1  1  0.03784300  0.22059200  0.09723900  1
  C  2  1  0.03434900  0.24851600  0.12476300  1
  C  3  1  0.95496800  0.25062100  0.11560200  1
  C  4  1  0.95757800  0.22295200  0.08770600  1
  C  5  1  0.91999100  0.21207400  0.06920000  1
  C  6  1  0.88039500  0.22808600  0.07743600  1
  C  7  1  0.87861400  0.25518000  0.10561400  1
  C  8  1  0.91528100  0.26607600  0.12458100  1
  C  9  1  0.07100000  0.26083900  0.14347400  1
  C  10  1  0.11060500  0.24485200  0.13624400  1
  C  11  1  0.11476700  0.21624500  0.10983800  1
  C  12  1  0.07836100  0.20521300  0.09015100  1
  C  13  1  0.99689000  0.16536000  0.08481900  1
  C  14  1  0.00411500  0.13832400  0.05694400  1
  C  15  1  0.01501400  0.18916800  0.00912900  1
  C  16  1  0.00693300  0.21648100  0.03649600  1
  C  17  1  0.02604500  0.20051700  0.97282000  1
  C  18  1  0.02853500  0.23834700  0.96341800  1
  C  19  1  0.01791500  0.26593900  0.98958000  1
  C  20  1  0.00772700  0.25435500  0.02587200  1
  C  21  1  0.99122800  0.15339400  0.12198700  1
  C  22  1  0.99456300  0.11577300  0.13237300  1
  C  23  1  0.00160700  0.08932400  0.10421200  1
  C  24  1  0.00535700  0.10037400  0.06693200  1
  C  37  1  0.99950300  0.20634400  0.07656800  1
  C  38  1  0.01338400  0.14887900  0.01787900  1
  C  41  1  0.99296200  0.26478100  0.13518300  1
  C  44  1  0.15528200  0.19559400  0.10554300  1
  C  47  1  0.84225900  0.21901200  0.05491600  1
  C  50  1  0.01626500  0.30653400  0.98177500  1
  C  53  1  0.99713300  0.10571300  0.17240900  1
  C  56  1  0.03786700  0.78010900  0.64992300  1
  C  57  1  0.03437200  0.75218000  0.62240500  1
  C  58  1  0.95499000  0.75008900  0.63155600  1
  C  59  1  0.95760000  0.77775900  0.65944800  1
  C  60  1  0.92001300  0.78864000  0.67795300  1
  C  61  1  0.88042000  0.77262400  0.66971900  1
  C  62  1  0.87863000  0.74554400  0.64152900  1
  C  63  1  0.91530300  0.73463000  0.62258100  1
  C  64  1  0.07102400  0.73985100  0.60369800  1
  C  65  1  0.11062900  0.75584000  0.61092500  1
  C  66  1  0.11479100  0.78445100  0.63732500  1
  C  67  1  0.07838500  0.79549000  0.65700900  1
  C  68  1  0.99691500  0.83534500  0.66232800  1
  C  69  1  0.00412000  0.86239500  0.69019700  1
  C  70  1  0.01503900  0.81156100  0.73802000  1
  C  71  1  0.00695200  0.78424000  0.71066300  1
  C  72  1  0.02607200  0.80022300  0.77433300  1
  C  73  1  0.02857000  0.76239500  0.78374100  1
  C  74  1  0.01795100  0.73479400  0.75758800  1
  C  75  1  0.00774400  0.74637100  0.72129700  1
  C  76  1  0.99130400  0.84731400  0.62515600  1
  C  77  1  0.99453500  0.88494100  0.61476600  1
  C  78  1  0.00154700  0.91139400  0.64292900  1
  C  79  1  0.00535200  0.90034200  0.68020400  1
  C  92  1  0.99952500  0.79436600  0.67058700  1
  C  93  1  0.01340200  0.85185000  0.72926200  1
  C  96  1  0.99298700  0.73591500  0.61198600  1
  C  99  1  0.15530700  0.80510300  0.64161700  1
  C  102  1  0.84228400  0.78169300  0.69224000  1
  C  105  1  0.01632700  0.69420000  0.76539700  1
  C  108  1  0.99707600  0.89499800  0.57473000  1
  C  111  1  0.03785300  0.77669400  0.09381800  1
  C  112  1  0.03435500  0.74916700  0.12173900  1
  C  113  1  0.95498000  0.75834800  0.12385500  1
  C  114  1  0.95759100  0.78624300  0.09618800  1
  C  115  1  0.92000300  0.80475300  0.08531100  1
  C  116  1  0.88041100  0.79651600  0.10132500  1
  C  117  1  0.87862000  0.76833500  0.12841100  1
  C  118  1  0.91529300  0.74939200  0.13933300  1
  C  119  1  0.07100400  0.73044700  0.13405400  1
  C  120  1  0.11061700  0.73769900  0.11809400  1
  C  121  1  0.11476600  0.76407700  0.08946200  1
  C  122  1  0.07837100  0.78378200  0.07843700  1
  C  123  1  0.99689300  0.78911700  0.03859000  1
  C  124  1  0.00410200  0.81699300  0.01155100  1
  C  125  1  0.01503300  0.86480800  0.06238800  1
  C  126  1  0.00695600  0.83744300  0.08970500  1
  C  127  1  0.02607500  0.90111600  0.07373200  1
  C  128  1  0.02860700  0.91051200  0.11156100  1
  C  129  1  0.01797200  0.88435900  0.13915700  1
  C  130  1  0.00776000  0.84807100  0.12757700  1
  C  131  1  0.99122500  0.75194700  0.02662800  1
  C  132  1  0.99455100  0.74156000  0.98900700  1
  C  133  1  0.00160800  0.76971700  0.96255800  1
  C  134  1  0.00534600  0.80700000  0.97360200  1
  C  147  1  0.99951600  0.79737100  0.07957300  1
  C  148  1  0.01338500  0.85605500  0.02210000  1
  C  151  1  0.99297100  0.73875800  0.13801200  1
  C  154  1  0.15528100  0.76836600  0.06880700  1
  C  157  1  0.84227200  0.81903000  0.09223700  1
  C  160  1  0.01633900  0.89216600  0.17975000  1
  C  163  1  0.99711100  0.70152200  0.97895000  1
  C  166  1  0.03788900  0.22401000  0.65332700  1
  C  167  1  0.03439400  0.25153700  0.62540600  1
  C  168  1  0.95501200  0.24238000  0.62331100  1
  C  169  1  0.95762200  0.21448300  0.65097900  1
  C  170  1  0.92003500  0.19598200  0.66186200  1
  C  171  1  0.88043600  0.20422400  0.64586000  1
  C  172  1  0.87865500  0.23239100  0.61875500  1
  C  173  1  0.91532500  0.25134000  0.60783800  1
  C  174  1  0.07104800  0.27023500  0.61306900  1
  C  175  1  0.11065800  0.26299200  0.62904100  1
  C  176  1  0.11481100  0.23660800  0.65766900  1
  C  177  1  0.07840600  0.21692800  0.66871100  1
  C  178  1  0.99694300  0.21160500  0.70856500  1
  C  179  1  0.00413900  0.18372800  0.73560700  1
  C  180  1  0.01503600  0.13590400  0.68477300  1
  C  181  1  0.00697200  0.16327000  0.65745500  1
  C  182  1  0.02605500  0.09959000  0.67342900  1
  C  183  1  0.02858900  0.09019400  0.63560200  1
  C  184  1  0.01795900  0.11634700  0.60800600  1
  C  185  1  0.00776500  0.15264000  0.61958300  1
  C  186  1  0.99131900  0.24877800  0.72052700  1
  C  187  1  0.99452500  0.25915000  0.75815800  1
  C  188  1  0.00156600  0.23099800  0.78461700  1
  C  189  1  0.00541000  0.19372900  0.77355400  1
  C  202  1  0.99954700  0.20334600  0.66758300  1
  C  203  1  0.01339500  0.14465900  0.72506200  1
  C  206  1  0.99300600  0.26195900  0.60914500  1
  C  209  1  0.15533200  0.23232200  0.67831300  1
  C  212  1  0.84229700  0.18171500  0.65495100  1
  C  215  1  0.01632900  0.10854200  0.56741000  1
  C  218  1  0.99700000  0.29919100  0.76822900  1
  C  221  1  0.53727000  0.72642400  0.59386500  1
  C  222  1  0.53353700  0.75383400  0.62189400  1
  C  223  1  0.45453500  0.74338600  0.62483100  1
  C  224  1  0.45713900  0.71634800  0.59630600  1
  C  225  1  0.41964300  0.69757900  0.58560000  1
  C  226  1  0.38047600  0.70416300  0.60315800  1
  C  227  1  0.37873900  0.73151700  0.63107000  1
  C  228  1  0.41512600  0.75112100  0.64145200  1
  C  229  1  0.56982600  0.77327600  0.63387600  1
  C  230  1  0.60935500  0.76685400  0.61748000  1
  C  231  1  0.61380600  0.74039800  0.58896600  1
  C  232  1  0.57783600  0.71987600  0.57835400  1
  C  233  1  0.50610400  0.66540900  0.58772300  1
  C  234  1  0.51099700  0.63860900  0.55922500  1
  C  235  1  0.50648500  0.68917300  0.51056900  1
  C  236  1  0.49682600  0.71569000  0.53834800  1
  C  237  1  0.51239900  0.70110800  0.47358300  1
  C  238  1  0.50923800  0.73882200  0.46409700  1
  C  239  1  0.49693600  0.76548000  0.49066900  1
  C  240  1  0.49031900  0.75307900  0.52742000  1
  C  241  1  0.50795400  0.65337900  0.62518100  1
  C  242  1  0.51396000  0.61581600  0.63485800  1
  C  243  1  0.51794800  0.58957300  0.60607700  1
  C  244  1  0.51655500  0.60085100  0.56877100  1
  C  257  1  0.49903600  0.70595200  0.57908100  1
  C  258  1  0.51238400  0.64926200  0.51944200  1
  C  261  1  0.49226100  0.76344100  0.63874500  1
  C  264  1  0.65424000  0.73682700  0.56813700  1
  C  267  1  0.34308800  0.68024300  0.59545400  1
  C  270  1  0.49020600  0.80566600  0.48236900  1
  C  273  1  0.51867900  0.60473500  0.67443300  1
  C  276  1  0.53726000  0.27429400  0.15327500  1
  C  277  1  0.53352800  0.24687000  0.12525900  1
  C  278  1  0.45452600  0.25732200  0.12231300  1
  C  279  1  0.45712700  0.28436500  0.15083500  1
  C  280  1  0.41963100  0.30311900  0.16155400  1
  C  281  1  0.38047300  0.29654400  0.14397500  1
  C  282  1  0.37873900  0.26921300  0.11604300  1
  C  283  1  0.41511900  0.24957800  0.10569600  1
  C  284  1  0.56981600  0.22743200  0.11327500  1
  C  285  1  0.60933000  0.23382100  0.12971600  1
  C  286  1  0.61380000  0.26031900  0.15818600  1
  C  287  1  0.57782700  0.28084700  0.16878100  1
  C  288  1  0.50608800  0.33530900  0.15941500  1
  C  289  1  0.51099300  0.36210900  0.18790900  1
  C  290  1  0.50649800  0.31155000  0.23657300  1
  C  291  1  0.49682000  0.28503900  0.20879300  1
  C  292  1  0.51243100  0.29961500  0.27355900  1
  C  293  1  0.50926300  0.26190200  0.28304400  1
  C  294  1  0.49697400  0.23524300  0.25647000  1
  C  295  1  0.49033200  0.24764600  0.21972300  1
  C  296  1  0.50792900  0.34733600  0.12195600  1
  C  297  1  0.51393800  0.38489700  0.11227400  1
  C  298  1  0.51793800  0.41113900  0.14105300  1
  C  299  1  0.51655500  0.39986400  0.17836100  1
  C  312  1  0.49902700  0.29476300  0.16805900  1
  C  313  1  0.51239600  0.35145900  0.22769600  1
  C  316  1  0.49225200  0.23725900  0.10841100  1
  C  319  1  0.65422800  0.26390900  0.17902100  1
  C  322  1  0.34307500  0.32045600  0.15169200  1
  C  325  1  0.49025900  0.19505300  0.26476500  1
  C  328  1  0.51865400  0.39597500  0.07269800  1
  C  331  1  0.53728200  0.28005400  0.59964100  1
  C  332  1  0.53354700  0.25203100  0.62705700  1
  C  333  1  0.45454800  0.24908700  0.61659700  1
  C  334  1  0.45715200  0.27762100  0.58957000  1
  C  335  1  0.41965300  0.28834300  0.57081300  1
  C  336  1  0.38049200  0.27076300  0.57737400  1
  C  337  1  0.37876100  0.24282200  0.60469800  1
  C  338  1  0.41513800  0.23246700  0.62433200  1
  C  339  1  0.56983500  0.24005200  0.64650200  1
  C  340  1  0.60935200  0.25647500  0.64009900  1
  C  341  1  0.61381900  0.28495300  0.61361000  1
  C  342  1  0.57784900  0.29555900  0.59308600  1
  C  343  1  0.50611000  0.28620400  0.53862600  1
  C  344  1  0.51101900  0.31470200  0.51182900  1
  C  345  1  0.50650400  0.36336000  0.56239300  1
  C  346  1  0.49684500  0.33557900  0.58890400  1
  C  347  1  0.51239600  0.40035000  0.57433100  1
  C  348  1  0.50918700  0.40983800  0.61203900  1
  C  349  1  0.49692400  0.38325500  0.63870300  1
  C  350  1  0.49038600  0.34649300  0.62630500  1
  C  351  1  0.50794500  0.24874700  0.52659400  1
  C  352  1  0.51395100  0.23906900  0.48903000  1
  C  353  1  0.51795400  0.26785100  0.46279300  1
  C  354  1  0.51657000  0.30515600  0.47407100  1
  C  367  1  0.49904900  0.29484400  0.57917200  1
  C  368  1  0.51240300  0.35448800  0.52248200  1
  C  371  1  0.49227100  0.23517600  0.63665800  1
  C  374  1  0.65425000  0.30578300  0.61001200  1
  C  377  1  0.34311000  0.27849700  0.55345400  1
  C  380  1  0.49014000  0.39156100  0.67888000  1
  C  383  1  0.51867000  0.19949200  0.47795500  1
  C  386  1  0.53726300  0.72067300  0.14750600  1
  C  387  1  0.53353100  0.74869900  0.12009200  1
  C  388  1  0.45452300  0.75161700  0.13051700  1
  C  389  1  0.45712300  0.72308600  0.15755000  1
  C  390  1  0.41962400  0.71234700  0.17629100  1
  C  391  1  0.38046700  0.72993600  0.16973200  1
  C  392  1  0.37873000  0.75786500  0.14239500  1
  C  393  1  0.41511300  0.76822700  0.12277200  1
  C  394  1  0.56982600  0.76070300  0.10067300  1
  C  395  1  0.60933300  0.74425100  0.10704900  1
  C  396  1  0.61379700  0.71577300  0.13353800  1
  C  397  1  0.57783000  0.70517000  0.15406800  1
  C  398  1  0.50606600  0.71451100  0.20851000  1
  C  399  1  0.51098100  0.68601600  0.23530600  1
  C  400  1  0.50649800  0.63735800  0.18473900  1
  C  401  1  0.49683600  0.66513700  0.15822700  1
  C  402  1  0.51241800  0.60037100  0.17280200  1
  C  403  1  0.50922800  0.59088300  0.13509100  1
  C  404  1  0.49695500  0.61746100  0.10842800  1
  C  405  1  0.49039200  0.65422300  0.12082500  1
  C  406  1  0.50788800  0.75197000  0.22054200  1
  C  407  1  0.51389400  0.76164600  0.25810600  1
  C  408  1  0.51789100  0.73286600  0.28434500  1
  C  409  1  0.51652000  0.69556000  0.27306600  1
  C  422  1  0.49902300  0.70587200  0.16796000  1
  C  423  1  0.51238700  0.64623000  0.22465100  1
  C  426  1  0.49225200  0.76553600  0.11047100  1
  C  429  1  0.65422800  0.69494100  0.13712900  1
  C  432  1  0.34308400  0.72221500  0.19365600  1
  C  435  1  0.49019000  0.60915700  0.06824600  1
  C  438  1  0.51861900  0.80122400  0.26918000  1
  C  441  1  0.01275600  0.96356800  0.18999600  1
  C  442  1  0.97562000  0.97218700  0.16968200  1
  C  443  1  0.96122900  0.00945900  0.16678400  1
  C  444  1  0.98259600  0.03861200  0.18524600  1
  C  445  1  0.01828000  0.02950500  0.20673500  1
  C  446  1  0.03389500  0.99315800  0.20780400  1
  C  448  1  0.90394100  0.98967900  0.12774600  1
  C  449  1  0.91775200  0.95239600  0.13097800  1
  C  453  1  0.86690900  0.00154000  0.10588900  1
  C  457  1  0.89798900  0.91970100  0.11329500  1
  C  465  1  0.01272700  0.03714300  0.55715900  1
  C  466  1  0.97559100  0.02853000  0.57747400  1
  C  467  1  0.96119100  0.99126100  0.58037000  1
  C  468  1  0.98254600  0.96210300  0.56190200  1
  C  469  1  0.01822800  0.97120500  0.54041000  1
  C  470  1  0.03385400  0.00755000  0.53934500  1
  C  472  1  0.90391000  0.01104800  0.61941200  1
  C  473  1  0.91773000  0.04832800  0.61618300  1
  C  477  1  0.86687400  0.99919200  0.64126800  1
  C  481  1  0.89797700  0.08102800  0.63386900  1
  C  489  1  0.01274800  0.68395800  0.83679900  1
  C  490  1  0.97560700  0.70426300  0.84541800  1
  C  491  1  0.96121600  0.70715600  0.88269000  1
  C  492  1  0.98258400  0.68869600  0.91184300  1
  C  493  1  0.01827200  0.66721500  0.90273600  1
  C  494  1  0.03388900  0.66615000  0.86638700  1
  C  496  1  0.90391900  0.74618800  0.86290900  1
  C  497  1  0.91773000  0.74295900  0.82562800  1
  C  501  1  0.86688000  0.76803500  0.87477200  1
  C  505  1  0.89796700  0.76064200  0.79293100  1
  C  513  1  0.01263800  0.31678000  0.91037600  1
  C  514  1  0.97551300  0.29644400  0.90177200  1
  C  515  1  0.96111200  0.29353100  0.86450200  1
  C  516  1  0.98245800  0.31200000  0.83533900  1
  C  517  1  0.01812100  0.33351700  0.84443700  1
  C  518  1  0.03375000  0.33459900  0.88078000  1
  C  520  1  0.90385300  0.25447000  0.88430500  1
  C  521  1  0.91767400  0.25771800  0.92158300  1
  C  525  1  0.86683300  0.23259300  0.87245600  1
  C  529  1  0.89793300  0.24003500  0.95428900  1
  C  537  1  0.50233400  0.46213100  0.69125400  1
  C  538  1  0.46820400  0.47756100  0.67094300  1
  C  539  1  0.46283300  0.51665700  0.66847900  1
  C  540  1  0.49059700  0.54102600  0.68728100  1
  C  541  1  0.52366300  0.52544600  0.70826800  1
  C  542  1  0.53012300  0.48697700  0.70922600  1
  C  544  1  0.40233000  0.50799000  0.62913700  1
  C  545  1  0.40732900  0.46898000  0.63179500  1
  C  549  1  0.36879600  0.52638300  0.60742800  1
  C  553  1  0.38077600  0.44065800  0.61349200  1
  C  561  1  0.50236200  0.53858500  0.05588000  1
  C  562  1  0.46822700  0.52316500  0.07619300  1
  C  563  1  0.46283900  0.48407000  0.07865600  1
  C  564  1  0.49059400  0.45969200  0.05985300  1
  C  565  1  0.52366300  0.47526400  0.03886600  1
  C  566  1  0.53014200  0.51373000  0.03791000  1
  C  568  1  0.40233900  0.49275600  0.11799900  1
  C  569  1  0.40735800  0.53176600  0.11534000  1
  C  573  1  0.36880300  0.47437400  0.13970800  1
  C  577  1  0.38081400  0.56009700  0.13364200  1
  C  585  1  0.50241900  0.18269100  0.33534200  1
  C  586  1  0.46827100  0.20299100  0.35075300  1
  C  587  1  0.46287000  0.20544900  0.38984900  1
  C  588  1  0.49062500  0.18665300  0.41422900  1
  C  589  1  0.52371100  0.16567700  0.39866600  1
  C  590  1  0.53019900  0.16472800  0.36020000  1
  C  592  1  0.40235500  0.24477000  0.38115100  1
  C  593  1  0.40738600  0.24211700  0.34214400  1
  C  597  1  0.36880000  0.26646400  0.39953100  1
  C  601  1  0.38084200  0.26041200  0.31380800  1
  C  609  1  0.50236800  0.81803100  0.41179300  1
  C  610  1  0.46822300  0.79772600  0.39637900  1
  C  611  1  0.46282300  0.79526800  0.35728400  1
  C  612  1  0.49057800  0.81406700  0.33290400  1
  C  613  1  0.52366000  0.83504600  0.34847000  1
  C  614  1  0.53014500  0.83599700  0.38693600  1
  C  616  1  0.40231700  0.75593700  0.36597600  1
  C  617  1  0.40734500  0.75858900  0.40498500  1
  C  621  1  0.36876800  0.73423900  0.34759600  1
  C  625  1  0.38080100  0.74029000  0.43331900  1
  C  633  1  0.71766600  0.25919400  0.13781900  1
  C  634  1  0.74880900  0.23804200  0.15631300  1
  C  635  1  0.77917100  0.21755300  0.13593000  1
  C  636  1  0.77937000  0.21860300  0.09667600  1
  C  637  1  0.74778200  0.23932300  0.07843700  1
  C  638  1  0.71763700  0.25960400  0.09864500  1
  C  640  1  0.80926200  0.19529300  0.19297300  1
  C  641  1  0.77899800  0.21591600  0.21339000  1
  C  645  1  0.84203500  0.17161300  0.20995900  1
  C  649  1  0.77519900  0.21698200  0.25426900  1
  C  657  1  0.71768500  0.74152400  0.60933500  1
  C  658  1  0.74883100  0.76267300  0.59084200  1
  C  659  1  0.77919600  0.78315800  0.61122800  1
  C  660  1  0.77939200  0.78210700  0.65048100  1
  C  661  1  0.74780100  0.76138800  0.66871900  1
  C  662  1  0.71765300  0.74111400  0.64850800  1
  C  664  1  0.80929000  0.80541600  0.55418800  1
  C  665  1  0.77902300  0.78479800  0.53376900  1
  C  669  1  0.84207000  0.82909200  0.53720400  1
  C  673  1  0.77522700  0.78373500  0.49289000  1
  C  681  1  0.71767200  0.73613700  0.13241800  1
  C  682  1  0.74881300  0.71763500  0.11127300  1
  C  683  1  0.77918100  0.73801200  0.09078300  1
  C  684  1  0.77938600  0.77726600  0.09182600  1
  C  685  1  0.74779700  0.79551200  0.11253900  1
  C  686  1  0.71764700  0.77531000  0.13282000  1
  C  688  1  0.80926500  0.68095900  0.06853600  1
  C  689  1  0.77899500  0.66055100  0.08915900  1
  C  693  1  0.84203900  0.66396600  0.04486100  1
  C  697  1  0.77518600  0.61967200  0.09023200  1
  C  705  1  0.71769700  0.26458800  0.61473700  1
  C  706  1  0.74883100  0.28309700  0.63588000  1
  C  707  1  0.77920000  0.26273000  0.65637900  1
  C  708  1  0.77940800  0.22347600  0.65534700  1
  C  709  1  0.74782600  0.20522100  0.63463400  1
  C  710  1  0.71767800  0.22541400  0.61434300  1
  C  712  1  0.80927100  0.31979000  0.67861800  1
  C  713  1  0.77900100  0.34019200  0.65798600  1
  C  717  1  0.84203900  0.33679400  0.70229400  1
  C  721  1  0.77519000  0.38106900  0.65690100  1
  C  729  1  0.27823500  0.72596900  0.15390700  1
  C  730  1  0.24895500  0.74968100  0.17168700  1
  C  731  1  0.21902600  0.77013000  0.15073900  1
  C  732  1  0.21737200  0.76663400  0.11166500  1
  C  733  1  0.24707000  0.74333900  0.09409000  1
  C  734  1  0.27663300  0.72296400  0.11484500  1
  C  736  1  0.19276900  0.79795300  0.20678800  1
  C  737  1  0.22248800  0.77732400  0.22780200  1
  C  741  1  0.16237400  0.82455100  0.22286300  1
  C  745  1  0.22797300  0.77907700  0.26850700  1
  C  753  1  0.27826900  0.27473700  0.59320900  1
  C  754  1  0.24898500  0.25103200  0.57542800  1
  C  755  1  0.21906000  0.23057500  0.59637400  1
  C  756  1  0.21741500  0.23405900  0.63545000  1
  C  757  1  0.24711600  0.25735100  0.65302500  1
  C  758  1  0.27667500  0.27772900  0.63227400  1
  C  760  1  0.19279100  0.20276800  0.54032000  1
  C  761  1  0.22250600  0.22340600  0.51931000  1
  C  765  1  0.16239200  0.17617700  0.52424500  1
  C  769  1  0.22798100  0.22166400  0.47860300  1
  C  777  1  0.27823400  0.28069700  0.14793900  1
  C  778  1  0.24894600  0.29847800  0.12423700  1
  C  779  1  0.21901600  0.27752900  0.10378600  1
  C  780  1  0.21736900  0.23845600  0.10727400  1
  C  781  1  0.24707400  0.22088000  0.13056300  1
  C  782  1  0.27663800  0.24163400  0.15093500  1
  C  784  1  0.19274400  0.33358400  0.07597900  1
  C  785  1  0.22246400  0.35459600  0.09661000  1
  C  789  1  0.16233900  0.34965800  0.04939200  1
  C  793  1  0.22794200  0.39530100  0.09486400  1
  C  801  1  0.27824100  0.71999300  0.59920400  1
  C  802  1  0.24895800  0.70221300  0.62291300  1
  C  803  1  0.21903400  0.72316400  0.64336800  1
  C  804  1  0.21739000  0.76223700  0.63987800  1
  C  805  1  0.24709000  0.77981200  0.61658200  1
  C  806  1  0.27664800  0.75905500  0.59620500  1
  C  808  1  0.19276600  0.66711500  0.67118300  1
  C  809  1  0.22248000  0.64610000  0.65054800  1
  C  813  1  0.16236700  0.65104100  0.69777700  1
  C  817  1  0.22795600  0.60539200  0.65229600  1
  N  447  1  0.92634000  0.01615400  0.14597900  1
  N  450  1  0.95270700  0.94593100  0.15175600  1
  N  461  1  0.03218400  0.92806500  0.19448500  1
  N  463  1  0.96824900  0.07605500  0.18575900  1
  N  471  1  0.92629900  0.98456900  0.60117400  1
  N  474  1  0.95268500  0.05478800  0.59540400  1
  N  485  1  0.03216600  0.07264100  0.55267600  1
  N  487  1  0.96819300  0.92466100  0.56139100  1
  N  495  1  0.92632100  0.72795500  0.88938500  1
  N  498  1  0.95269200  0.72218700  0.81916200  1
  N  509  1  0.03217700  0.67947200  0.80129700  1
  N  511  1  0.96823400  0.68817700  0.94928500  1
  N  519  1  0.92623600  0.27270700  0.85781900  1
  N  522  1  0.95261900  0.27851400  0.92803600  1
  N  533  1  0.03208000  0.32127700  0.94587300  1
  N  535  1  0.96809800  0.31249100  0.79789700  1
  N  543  1  0.43026700  0.52972400  0.64775800  1
  N  546  1  0.43989200  0.45614900  0.65258800  1
  N  557  1  0.51219100  0.42376500  0.69601400  1
  N  559  1  0.48491300  0.58012400  0.68909500  1
  N  567  1  0.43027000  0.47101400  0.09937700  1
  N  570  1  0.43992300  0.54458800  0.09454700  1
  N  581  1  0.51223600  0.57694800  0.05111900  1
  N  583  1  0.48489400  0.42059700  0.05803900  1
  N  591  1  0.43028600  0.22615600  0.40289900  1
  N  594  1  0.43996400  0.22133800  0.32932700  1
  N  605  1  0.51230800  0.17793800  0.29698200  1
  N  607  1  0.48491600  0.18483300  0.45332700  1
  N  615  1  0.43024500  0.77455500  0.34423100  1
  N  618  1  0.43992000  0.77937400  0.41780200  1
  N  629  1  0.51225100  0.82278300  0.45015400  1
  N  631  1  0.48486900  0.81588900  0.29380800  1
  N  639  1  0.80780500  0.19733800  0.15532300  1
  N  642  1  0.75047400  0.23625900  0.19392900  1
  N  653  1  0.68936900  0.28170200  0.15842100  1
  N  655  1  0.80849000  0.19830600  0.07465500  1
  N  663  1  0.80783400  0.80336900  0.59183800  1
  N  666  1  0.75049600  0.76445700  0.55322800  1
  N  677  1  0.68938100  0.71902500  0.58873000  1
  N  679  1  0.80851200  0.80240100  0.67250400  1
  N  687  1  0.80781500  0.71861100  0.07057400  1
  N  690  1  0.75047100  0.68001800  0.10949700  1
  N  701  1  0.68936600  0.71554300  0.15492400  1
  N  703  1  0.80851200  0.79928000  0.07152800  1
  N  711  1  0.80782800  0.28213700  0.67658700  1
  N  714  1  0.75048300  0.32071700  0.63764700  1
  N  725  1  0.68938800  0.28517500  0.59222300  1
  N  727  1  0.80853400  0.20147000  0.67565200  1
  N  735  1  0.19255200  0.79313400  0.16937900  1
  N  738  1  0.24888800  0.75423900  0.20909200  1
  N  749  1  0.30670700  0.70399900  0.17507200  1
  N  751  1  0.18967200  0.78774700  0.08899300  1
  N  759  1  0.19258100  0.20757700  0.57773100  1
  N  762  1  0.24891000  0.24648300  0.53802300  1
  N  773  1  0.30673800  0.29671100  0.57204700  1
  N  775  1  0.18971800  0.21294100  0.65811900  1
  N  783  1  0.19253300  0.29617200  0.08079100  1
  N  786  1  0.24887200  0.33588400  0.11968500  1
  N  797  1  0.30670700  0.30186000  0.16990700  1
  N  799  1  0.18966900  0.21578500  0.08616000  1
  N  807  1  0.19255600  0.70452400  0.66637000  1
  N  810  1  0.24888400  0.66480700  0.62746900  1
  N  821  1  0.30671100  0.69882500  0.57723800  1
  N  823  1  0.18969700  0.78491100  0.66099600  1
