# generated using pymatgen
data_H8C14N5O4
_symmetry_space_group_name_H-M   'P 1'
_cell_length_a   44.56950000
_cell_length_b   44.56950000
_cell_length_c   59.89690000
_cell_angle_alpha   90.00000000
_cell_angle_beta   90.00000000
_cell_angle_gamma   90.00000000
_symmetry_Int_Tables_number   1
_chemical_formula_structural   H8C14N5O4
_chemical_formula_sum   'H512 C896 N320 O256'
_cell_volume   118981.61781695
_cell_formula_units_Z   64
loop_
 _symmetry_equiv_pos_site_id
 _symmetry_equiv_pos_as_xyz
  1  'x, y, z'
loop_
 _atom_site_type_symbol
 _atom_site_label
 _atom_site_symmetry_multiplicity
 _atom_site_fract_x
 _atom_site_fract_y
 _atom_site_fract_z
 _atom_site_occupancy
  H  7  1  0.09001900  0.40970600  0.13769300  1
  H  16  1  0.14035100  0.33004000  0.16473100  1
  H  17  1  0.17129500  0.31581700  0.07855400  1
  H  18  1  0.19066700  0.30129100  0.09911700  1
  H  19  1  0.01458700  0.39862300  0.20679700  1
  H  20  1  0.01354600  0.42698300  0.18949100  1
  H  21  1  0.09117900  0.33608900  0.18163400  1
  H  22  1  0.09243900  0.36875200  0.11158700  1
  H  33  1  0.94600400  0.62682400  0.13743400  1
  H  42  1  0.89578100  0.70640700  0.16463900  1
  H  43  1  0.86460100  0.72064800  0.07850500  1
  H  44  1  0.84526900  0.73515600  0.09909600  1
  H  45  1  0.02092300  0.63684200  0.20699600  1
  H  46  1  0.02164900  0.60832900  0.18980500  1
  H  47  1  0.94507300  0.70028600  0.18150700  1
  H  48  1  0.94360500  0.66780500  0.11141200  1
  H  59  1  0.62833800  0.08908900  0.63545600  1
  H  68  1  0.70665600  0.14029500  0.66442700  1
  H  69  1  0.72205500  0.17161100  0.57838900  1
  H  70  1  0.73620300  0.19099300  0.59909500  1
  H  71  1  0.63456700  0.01548600  0.70588000  1
  H  72  1  0.60680800  0.01488100  0.68803500  1
  H  73  1  0.69925400  0.09146400  0.68181500  1
  H  74  1  0.66947600  0.09213500  0.61081800  1
  H  85  1  0.40891900  0.94606000  0.63722900  1
  H  94  1  0.32943600  0.89567800  0.66463900  1
  H  95  1  0.31514600  0.86413400  0.57856800  1
  H  96  1  0.30072600  0.84480500  0.59919200  1
  H  97  1  0.39769800  0.02250100  0.70575200  1
  H  98  1  0.42597500  0.02340200  0.68834700  1
  H  99  1  0.33552800  0.94492900  0.68144700  1
  H  100  1  0.36773600  0.94345300  0.61127900  1
  H  111  1  0.94680000  0.40902000  0.39902900  1
  H  120  1  0.89310900  0.33092800  0.37111800  1
  H  121  1  0.86502900  0.31476700  0.45756800  1
  H  122  1  0.84520600  0.30047900  0.43714500  1
  H  123  1  0.01496800  0.40215900  0.32587900  1
  H  124  1  0.01881500  0.42830700  0.34460400  1
  H  125  1  0.93791100  0.34015700  0.35146400  1
  H  126  1  0.94278200  0.36851700  0.42385200  1
  H  137  1  0.08836000  0.62745400  0.39948200  1
  H  146  1  0.14215100  0.70530800  0.37130300  1
  H  147  1  0.17069100  0.72151400  0.45767000  1
  H  148  1  0.19039800  0.73580200  0.43718300  1
  H  149  1  0.02081800  0.63320200  0.32584900  1
  H  150  1  0.01721900  0.60693100  0.34450600  1
  H  151  1  0.09732200  0.69602100  0.35169600  1
  H  152  1  0.09267100  0.66786500  0.42419800  1
  H  163  1  0.40895700  0.08892300  0.89903900  1
  H  172  1  0.33087400  0.14277400  0.87112600  1
  H  173  1  0.31450900  0.17068600  0.95759800  1
  H  174  1  0.30019000  0.19050000  0.93719500  1
  H  175  1  0.40277300  0.02158700  0.82532200  1
  H  176  1  0.42869700  0.01749500  0.84415500  1
  H  177  1  0.34024600  0.09813600  0.85138400  1
  H  178  1  0.36853000  0.09311700  0.92384200  1
  H  189  1  0.62774100  0.94733400  0.89951300  1
  H  198  1  0.70567800  0.89355300  0.87132000  1
  H  199  1  0.72157000  0.86497300  0.95771800  1
  H  200  1  0.73583800  0.84518400  0.93727800  1
  H  201  1  0.63318900  0.01496600  0.82591200  1
  H  202  1  0.60712600  0.01862000  0.84471400  1
  H  203  1  0.69607500  0.93830100  0.85155700  1
  H  204  1  0.66815700  0.94304700  0.92416400  1
  H  215  1  0.94650200  0.62605800  0.89834400  1
  H  224  1  0.89846500  0.70896500  0.87279900  1
  H  225  1  0.87110100  0.72547600  0.95960600  1
  H  226  1  0.85360400  0.74312500  0.93941000  1
  H  227  1  0.02184900  0.63778600  0.82930700  1
  H  228  1  0.02268300  0.60911200  0.84632800  1
  H  229  1  0.94603300  0.70058900  0.85525700  1
  H  230  1  0.94254900  0.66399500  0.92516100  1
  H  241  1  0.08936800  0.40926400  0.89855800  1
  H  250  1  0.13730200  0.32649000  0.87280200  1
  H  251  1  0.16487700  0.30981100  0.95956000  1
  H  252  1  0.18235500  0.29222900  0.93932300  1
  H  253  1  0.01454900  0.39867400  0.82903900  1
  H  254  1  0.01405700  0.42749400  0.84594900  1
  H  255  1  0.08956300  0.33489500  0.85532700  1
  H  256  1  0.09324900  0.37124100  0.92527700  1
  H  267  1  0.40794300  0.94738800  0.40051700  1
  H  276  1  0.32623200  0.89853200  0.37305000  1
  H  277  1  0.30851600  0.87063800  0.45966400  1
  H  278  1  0.29132500  0.85307900  0.43927500  1
  H  279  1  0.40066000  0.02111700  0.33028800  1
  H  280  1  0.42877500  0.02152400  0.34782600  1
  H  281  1  0.33589800  0.94573900  0.35510500  1
  H  282  1  0.36965700  0.94286700  0.42598700  1
  H  293  1  0.62682100  0.08924000  0.39870900  1
  H  302  1  0.70960700  0.13731700  0.37282400  1
  H  303  1  0.72604400  0.16547800  0.45950800  1
  H  304  1  0.74359000  0.18291900  0.43923300  1
  H  305  1  0.63873800  0.01291700  0.33022800  1
  H  306  1  0.61010600  0.01223800  0.34731400  1
  H  307  1  0.70122200  0.08965800  0.35542300  1
  H  308  1  0.66493500  0.09343800  0.42541100  1
  H  319  1  0.08840100  0.62669300  0.63675000  1
  H  328  1  0.13977900  0.70808800  0.66329500  1
  H  329  1  0.16451700  0.72642100  0.57632600  1
  H  330  1  0.18247900  0.74372200  0.59646200  1
  H  331  1  0.02059000  0.63412200  0.71000700  1
  H  332  1  0.01692000  0.60764000  0.69153200  1
  H  333  1  0.09669400  0.69660700  0.68350800  1
  H  334  1  0.09401500  0.66432200  0.61112700  1
  H  345  1  0.94819800  0.40867200  0.63635100  1
  H  354  1  0.89673200  0.32754700  0.66316500  1
  H  355  1  0.87145100  0.30923200  0.57627700  1
  H  356  1  0.85354200  0.29201600  0.59647900  1
  H  357  1  0.01556700  0.40212700  0.70992000  1
  H  358  1  0.01894100  0.42885400  0.69158400  1
  H  359  1  0.93993500  0.33900100  0.68330300  1
  H  360  1  0.94241600  0.37105200  0.61083700  1
  H  371  1  0.62679200  0.94773200  0.13672700  1
  H  380  1  0.70814400  0.89615100  0.16329000  1
  H  381  1  0.72656700  0.87154500  0.07631700  1
  H  382  1  0.74389500  0.85360000  0.09644600  1
  H  383  1  0.63351900  0.01462500  0.21060500  1
  H  384  1  0.60727200  0.01855300  0.19200800  1
  H  385  1  0.69653700  0.93907800  0.18359100  1
  H  386  1  0.66436900  0.94194100  0.11113700  1
  H  397  1  0.40840300  0.08794400  0.13635100  1
  H  406  1  0.32721000  0.13942700  0.16321500  1
  H  407  1  0.30891300  0.16461000  0.07630000  1
  H  408  1  0.29167500  0.18253700  0.09647900  1
  H  409  1  0.40234000  0.02058900  0.21001400  1
  H  410  1  0.42871000  0.01710200  0.19144100  1
  H  411  1  0.33900600  0.09634700  0.18350500  1
  H  412  1  0.37076000  0.09374800  0.11091000  1
  H  422  1  0.99927600  0.40096000  0.28875800  1
  H  423  1  0.02659200  0.40875700  0.25537600  1
  H  432  1  0.06779500  0.38831500  0.23225900  1
  H  434  1  0.00854200  0.34119500  0.32221200  1
  H  440  1  0.03604700  0.63491000  0.28884500  1
  H  441  1  0.00891200  0.62726300  0.25537400  1
  H  450  1  0.96794300  0.64794300  0.23213600  1
  H  452  1  0.02656500  0.69444400  0.32230900  1
  H  458  1  0.63396500  0.99911900  0.78889300  1
  H  459  1  0.62546800  0.02598600  0.75541900  1
  H  468  1  0.64484300  0.06665000  0.73154300  1
  H  470  1  0.69432500  0.00904500  0.82195100  1
  H  476  1  0.40106600  0.03763000  0.78828500  1
  H  477  1  0.40890100  0.01065400  0.75474300  1
  H  486  1  0.38879700  0.96936100  0.73144400  1
  H  488  1  0.34133400  0.02766000  0.82209500  1
  H  494  1  0.03627800  0.63549100  0.74711600  1
  H  495  1  0.00955400  0.62785800  0.78079100  1
  H  504  1  0.96850100  0.64850700  0.80407200  1
  H  506  1  0.02619800  0.69474900  0.71356300  1
  H  512  1  0.00034400  0.40043800  0.74695200  1
  H  513  1  0.02690100  0.40796300  0.78069700  1
  H  522  1  0.06764800  0.38708800  0.80415400  1
  H  524  1  0.01046500  0.34129200  0.71347500  1
  H  530  1  0.40138000  0.03648800  0.24703100  1
  H  531  1  0.40972000  0.01020500  0.28078800  1
  H  540  1  0.39016800  0.96968400  0.30482100  1
  H  542  1  0.34151600  0.02575400  0.21386300  1
  H  548  1  0.63546900  0.99859800  0.24761600  1
  H  549  1  0.62784200  0.02501500  0.28143700  1
  H  558  1  0.64819900  0.06624300  0.30482100  1
  H  560  1  0.69464400  0.00941300  0.21365900  1
  H  566  1  0.24142300  0.19158300  0.11887700  1
  H  567  1  0.20182700  0.22552900  0.11259500  1
  H  576  1  0.16690100  0.26109100  0.12679000  1
  H  578  1  0.28919800  0.18682700  0.16779300  1
  H  584  1  0.79416900  0.84457600  0.11891100  1
  H  585  1  0.83392300  0.81080800  0.11263600  1
  H  594  1  0.86895300  0.77536000  0.12681100  1
  H  596  1  0.74671300  0.84942400  0.16788000  1
  H  602  1  0.84505100  0.24170800  0.61905100  1
  H  603  1  0.81134200  0.20189700  0.61283000  1
  H  612  1  0.77607400  0.16679000  0.62724200  1
  H  614  1  0.84993400  0.28921100  0.66793200  1
  H  620  1  0.19133500  0.79400700  0.61897900  1
  H  621  1  0.22511600  0.83373900  0.61270700  1
  H  630  1  0.26054400  0.86876300  0.62690600  1
  H  632  1  0.18686400  0.74608500  0.66782800  1
  H  638  1  0.79441400  0.19114100  0.41697000  1
  H  639  1  0.83372100  0.22543700  0.42327400  1
  H  648  1  0.86867100  0.26093600  0.40861200  1
  H  650  1  0.74662800  0.18609400  0.36804300  1
  H  656  1  0.24090000  0.84508700  0.41686000  1
  H  657  1  0.20153900  0.81086200  0.42315600  1
  H  666  1  0.16667800  0.77530900  0.40852600  1
  H  668  1  0.28861700  0.85014000  0.36800800  1
  H  674  1  0.19110500  0.24155800  0.91705200  1
  H  675  1  0.22536700  0.20218900  0.92329100  1
  H  684  1  0.26081100  0.16721900  0.90857400  1
  H  686  1  0.18544100  0.28876300  0.86800200  1
  H  692  1  0.84506900  0.79395600  0.91715800  1
  H  693  1  0.81093600  0.83340200  0.92346900  1
  H  702  1  0.77550200  0.86842800  0.90896100  1
  H  704  1  0.84998500  0.74623500  0.86818800  1
  H  710  1  0.03482300  0.49690500  0.11450500  1
  H  711  1  0.00609700  0.54150500  0.11408600  1
  H  720  1  0.97189200  0.57576800  0.13302600  1
  H  722  1  0.06974500  0.46373900  0.13676200  1
  H  728  1  0.54378900  0.04184700  0.62592800  1
  H  729  1  0.49944900  0.01346300  0.61920300  1
  H  738  1  0.46132900  0.97778100  0.63219900  1
  H  740  1  0.56910900  0.06790900  0.67813400  1
  H  746  1  0.00098100  0.49672600  0.42192400  1
  H  747  1  0.02935800  0.54151900  0.42238600  1
  H  756  1  0.06354200  0.57585100  0.40350700  1
  H  758  1  0.96644600  0.46338700  0.39992300  1
  H  764  1  0.49648100  0.03434500  0.92197800  1
  H  765  1  0.54133000  0.00606100  0.92246100  1
  H  774  1  0.57574200  0.97185800  0.90344800  1
  H  776  1  0.46323200  0.06900700  0.90009200  1
  H  782  1  0.00095200  0.53898100  0.92135200  1
  H  783  1  0.02947600  0.49425500  0.92180000  1
  H  792  1  0.06355100  0.45987500  0.90293200  1
  H  794  1  0.96633200  0.57234500  0.89903200  1
  H  800  1  0.49209700  0.99405000  0.40969100  1
  H  801  1  0.53658900  0.02214500  0.41650100  1
  H  810  1  0.57487800  0.05766700  0.40362400  1
  H  812  1  0.46643800  0.96864000  0.35739100  1
  H  818  1  0.03483700  0.53925900  0.61402100  1
  H  819  1  0.00669600  0.49432000  0.61355300  1
  H  828  1  0.97281800  0.45976800  0.63240200  1
  H  830  1  0.06916800  0.57274800  0.63604200  1
  H  836  1  0.53956900  0.00180900  0.11394500  1
  H  837  1  0.49455600  0.02983100  0.11348500  1
  H  846  1  0.45990000  0.06365900  0.13250400  1
  H  848  1  0.57299300  0.96733500  0.13579000  1
  H  854  1  0.13078600  0.39902200  0.99743500  1
  H  855  1  0.13255100  0.40008800  0.03709300  1
  H  864  1  0.10548300  0.38203700  0.07133800  1
  H  866  1  0.08443400  0.35879500  0.96639100  1
  H  872  1  0.90520500  0.63674500  0.99747500  1
  H  873  1  0.90327700  0.63603600  0.03712500  1
  H  882  1  0.93026700  0.65430700  0.07129800  1
  H  884  1  0.95172500  0.67728200  0.96636800  1
  H  890  1  0.63805300  0.13162200  0.49749900  1
  H  891  1  0.63741600  0.13353800  0.53715000  1
  H  900  1  0.65520200  0.10664200  0.57120900  1
  H  902  1  0.67819700  0.08461400  0.46614600  1
  H  908  1  0.39766500  0.90428700  0.49751500  1
  H  909  1  0.39880000  0.90255900  0.53717300  1
  H  918  1  0.38132600  0.92983100  0.57128000  1
  H  920  1  0.35749400  0.95130100  0.46653500  1
  H  926  1  0.90494200  0.39884000  0.53831900  1
  H  927  1  0.90314700  0.39978000  0.49866400  1
  H  936  1  0.93004200  0.38174600  0.46439000  1
  H  938  1  0.95135700  0.35927900  0.56945600  1
  H  944  1  0.13101500  0.63700500  0.53849200  1
  H  945  1  0.13281400  0.63627600  0.49884400  1
  H  954  1  0.10590200  0.65441200  0.46464900  1
  H  956  1  0.08452400  0.67697200  0.56969900  1
  H  962  1  0.39847400  0.13133300  0.03829900  1
  H  963  1  0.39947500  0.13295200  0.99865400  1
  H  972  1  0.38176300  0.10603000  0.96449000  1
  H  974  1  0.35889800  0.08482300  0.06960800  1
  H  980  1  0.63732900  0.90458800  0.03842900  1
  H  981  1  0.63664600  0.90275900  0.99878000  1
  H  990  1  0.65451700  0.92962000  0.96463800  1
  H  992  1  0.67728000  0.95139800  0.06979100  1
  H  999  1  0.15733000  0.90331700  0.22117000  1
  H  1008  1  0.20766200  0.82365100  0.24820800  1
  H  1009  1  0.23860600  0.80942800  0.16203100  1
  H  1010  1  0.25797800  0.79490200  0.18259400  1
  H  1011  1  0.08189760  0.89223400  0.29027400  1
  H  1012  1  0.08085660  0.92059400  0.27296800  1
  H  1013  1  0.15849000  0.82970000  0.26511100  1
  H  1014  1  0.15975000  0.86236300  0.19506400  1
  H  1025  1  0.01331460  0.12043500  0.22091100  1
  H  1034  1  0.96309200  0.20001800  0.24811600  1
  H  1035  1  0.93191200  0.21425900  0.16198200  1
  H  1036  1  0.91258000  0.22876700  0.18257300  1
  H  1037  1  0.08823360  0.13045300  0.29047300  1
  H  1038  1  0.08895960  0.10194000  0.27328200  1
  H  1039  1  0.01238360  0.19389700  0.26498400  1
  H  1040  1  0.01091560  0.16141600  0.19488900  1
  H  1051  1  0.69564900  0.58270000  0.71893300  1
  H  1060  1  0.77396700  0.63390600  0.74790400  1
  H  1061  1  0.78936600  0.66522200  0.66186600  1
  H  1062  1  0.80351400  0.68460400  0.68257200  1
  H  1063  1  0.70187800  0.50909700  0.78935700  1
  H  1064  1  0.67411900  0.50849200  0.77151200  1
  H  1065  1  0.76656500  0.58507500  0.76529200  1
  H  1066  1  0.73678700  0.58574600  0.69429500  1
  H  1077  1  0.47623000  0.43967100  0.72070600  1
  H  1086  1  0.39674700  0.38928900  0.74811600  1
  H  1087  1  0.38245700  0.35774500  0.66204500  1
  H  1088  1  0.36803700  0.33841600  0.68266900  1
  H  1089  1  0.46500900  0.51611200  0.78922900  1
  H  1090  1  0.49328600  0.51701300  0.77182400  1
  H  1091  1  0.40283900  0.43854000  0.76492400  1
  H  1092  1  0.43504700  0.43706400  0.69475600  1
  H  1103  1  0.01411060  0.90263100  0.48250600  1
  H  1112  1  0.96042000  0.82453900  0.45459500  1
  H  1113  1  0.93234000  0.80837800  0.54104500  1
  H  1114  1  0.91251700  0.79409000  0.52062200  1
  H  1115  1  0.08227860  0.89577000  0.40935600  1
  H  1116  1  0.08612560  0.92191800  0.42808100  1
  H  1117  1  0.00522160  0.83376800  0.43494100  1
  H  1118  1  0.01009260  0.86212800  0.50732900  1
  H  1129  1  0.15567100  0.12106500  0.48295900  1
  H  1138  1  0.20946200  0.19891900  0.45478000  1
  H  1139  1  0.23800200  0.21512500  0.54114700  1
  H  1140  1  0.25770900  0.22941300  0.52066000  1
  H  1141  1  0.08812860  0.12681300  0.40932600  1
  H  1142  1  0.08452960  0.10054200  0.42798300  1
  H  1143  1  0.16463300  0.18963200  0.43517300  1
  H  1144  1  0.15998200  0.16147600  0.50767500  1
  H  1155  1  0.47626800  0.58253400  0.98251600  1
  H  1164  1  0.39818500  0.63638500  0.95460300  1
  H  1165  1  0.38182000  0.66429700  0.04107480  1
  H  1166  1  0.36750100  0.68411100  0.02067180  1
  H  1167  1  0.47008400  0.51519800  0.90879900  1
  H  1168  1  0.49600800  0.51110600  0.92763200  1
  H  1169  1  0.40755700  0.59174700  0.93486100  1
  H  1170  1  0.43584100  0.58672800  0.00731877  1
  H  1181  1  0.69505200  0.44094500  0.98299000  1
  H  1190  1  0.77298900  0.38716400  0.95479700  1
  H  1191  1  0.78888100  0.35858400  0.04119480  1
  H  1192  1  0.80314900  0.33879500  0.02075480  1
  H  1193  1  0.70050000  0.50857700  0.90938900  1
  H  1194  1  0.67443700  0.51223100  0.92819100  1
  H  1195  1  0.76338600  0.43191200  0.93503400  1
  H  1196  1  0.73546800  0.43665800  0.00764077  1
  H  1207  1  0.01381260  0.11966900  0.98182100  1
  H  1216  1  0.96577600  0.20257600  0.95627600  1
  H  1217  1  0.93841200  0.21908700  0.04308280  1
  H  1218  1  0.92091500  0.23673600  0.02288680  1
  H  1219  1  0.08915960  0.13139700  0.91278400  1
  H  1220  1  0.08999360  0.10272300  0.92980500  1
  H  1221  1  0.01334360  0.19420000  0.93873400  1
  H  1222  1  0.00985960  0.15760600  0.00863777  1
  H  1233  1  0.15667900  0.90287500  0.98203500  1
  H  1242  1  0.20461300  0.82010100  0.95627900  1
  H  1243  1  0.23218800  0.80342200  0.04303680  1
  H  1244  1  0.24966600  0.78584000  0.02279980  1
  H  1245  1  0.08185960  0.89228500  0.91251600  1
  H  1246  1  0.08136760  0.92110500  0.92942600  1
  H  1247  1  0.15687400  0.82850600  0.93880400  1
  H  1248  1  0.16056000  0.86485200  0.00875377  1
  H  1259  1  0.47525400  0.44099900  0.48399400  1
  H  1268  1  0.39354300  0.39214300  0.45652700  1
  H  1269  1  0.37582700  0.36424900  0.54314100  1
  H  1270  1  0.35863600  0.34669000  0.52275200  1
  H  1271  1  0.46797100  0.51472800  0.41376500  1
  H  1272  1  0.49608600  0.51513500  0.43130300  1
  H  1273  1  0.40320900  0.43935000  0.43858200  1
  H  1274  1  0.43696800  0.43647800  0.50946400  1
  H  1285  1  0.69413200  0.58285100  0.48218600  1
  H  1294  1  0.77691800  0.63092800  0.45630100  1
  H  1295  1  0.79335500  0.65908900  0.54298500  1
  H  1296  1  0.81090100  0.67653000  0.52271000  1
  H  1297  1  0.70604900  0.50652800  0.41370500  1
  H  1298  1  0.67741700  0.50584900  0.43079100  1
  H  1299  1  0.76853300  0.58326900  0.43890000  1
  H  1300  1  0.73224600  0.58704900  0.50888800  1
  H  1311  1  0.15571200  0.12030400  0.72022700  1
  H  1320  1  0.20709000  0.20169900  0.74677200  1
  H  1321  1  0.23182800  0.22003200  0.65980300  1
  H  1322  1  0.24979000  0.23733300  0.67993900  1
  H  1323  1  0.08790060  0.12773300  0.79348400  1
  H  1324  1  0.08423060  0.10125100  0.77500900  1
  H  1325  1  0.16400500  0.19021800  0.76698500  1
  H  1326  1  0.16132600  0.15793300  0.69460400  1
  H  1337  1  0.01550860  0.90228300  0.71982800  1
  H  1346  1  0.96404300  0.82115800  0.74664200  1
  H  1347  1  0.93876200  0.80284300  0.65975400  1
  H  1348  1  0.92085300  0.78562700  0.67995600  1
  H  1349  1  0.08287760  0.89573800  0.79339700  1
  H  1350  1  0.08625160  0.92246500  0.77506100  1
  H  1351  1  0.00724560  0.83261200  0.76678000  1
  H  1352  1  0.00972660  0.86466300  0.69431400  1
  H  1363  1  0.69410300  0.44134300  0.22020400  1
  H  1372  1  0.77545500  0.38976200  0.24676700  1
  H  1373  1  0.79387800  0.36515600  0.15979400  1
  H  1374  1  0.81120600  0.34721100  0.17992300  1
  H  1375  1  0.70083000  0.50823600  0.29408200  1
  H  1376  1  0.67458300  0.51216400  0.27548500  1
  H  1377  1  0.76384800  0.43268900  0.26706800  1
  H  1378  1  0.73168000  0.43555200  0.19461400  1
  H  1389  1  0.47571400  0.58155500  0.21982800  1
  H  1398  1  0.39452100  0.63303800  0.24669200  1
  H  1399  1  0.37622400  0.65822100  0.15977700  1
  H  1400  1  0.35898600  0.67614800  0.17995600  1
  H  1401  1  0.46965100  0.51420000  0.29349100  1
  H  1402  1  0.49602100  0.51071300  0.27491800  1
  H  1403  1  0.40631700  0.58995800  0.26698200  1
  H  1404  1  0.43807100  0.58735900  0.19438700  1
  H  1414  1  0.06658660  0.89457100  0.37223500  1
  H  1415  1  0.09390260  0.90236800  0.33885300  1
  H  1424  1  0.13510600  0.88192600  0.31573600  1
  H  1426  1  0.07585260  0.83480600  0.40568900  1
  H  1432  1  0.10335800  0.12852100  0.37232200  1
  H  1433  1  0.07622260  0.12087400  0.33885100  1
  H  1442  1  0.03525360  0.14155400  0.31561300  1
  H  1444  1  0.09387560  0.18805500  0.40578600  1
  H  1450  1  0.70127600  0.49273000  0.87237000  1
  H  1451  1  0.69277900  0.51959700  0.83889600  1
  H  1460  1  0.71215400  0.56026100  0.81502000  1
  H  1462  1  0.76163600  0.50265600  0.90542800  1
  H  1468  1  0.46837700  0.53124100  0.87176200  1
  H  1469  1  0.47621200  0.50426500  0.83822000  1
  H  1478  1  0.45610800  0.46297200  0.81492100  1
  H  1480  1  0.40864500  0.52127100  0.90557200  1
  H  1486  1  0.10358900  0.12910200  0.83059300  1
  H  1487  1  0.07686460  0.12146900  0.86426800  1
  H  1496  1  0.03581160  0.14211800  0.88754900  1
  H  1498  1  0.09350860  0.18836000  0.79704000  1
  H  1504  1  0.06765460  0.89404900  0.83042900  1
  H  1505  1  0.09421160  0.90157400  0.86417400  1
  H  1514  1  0.13495900  0.88069900  0.88763100  1
  H  1516  1  0.07777560  0.83490300  0.79695200  1
  H  1522  1  0.46869100  0.53009900  0.33050800  1
  H  1523  1  0.47703100  0.50381600  0.36426500  1
  H  1532  1  0.45747900  0.46329500  0.38829800  1
  H  1534  1  0.40882700  0.51936500  0.29734000  1
  H  1540  1  0.70278000  0.49220900  0.33109300  1
  H  1541  1  0.69515300  0.51862600  0.36491400  1
  H  1550  1  0.71551000  0.55985400  0.38829800  1
  H  1552  1  0.76195500  0.50302400  0.29713600  1
  H  1558  1  0.30873400  0.68519400  0.20235400  1
  H  1559  1  0.26913800  0.71914000  0.19607200  1
  H  1568  1  0.23421200  0.75470200  0.21026700  1
  H  1570  1  0.35650900  0.68043800  0.25127000  1
  H  1576  1  0.86148000  0.33818700  0.20238800  1
  H  1577  1  0.90123400  0.30441900  0.19611300  1
  H  1586  1  0.93626400  0.26897100  0.21028800  1
  H  1588  1  0.81402400  0.34303500  0.25135700  1
  H  1594  1  0.91236200  0.73531900  0.70252800  1
  H  1595  1  0.87865300  0.69550800  0.69630700  1
  H  1604  1  0.84338500  0.66040100  0.71071900  1
  H  1606  1  0.91724500  0.78282200  0.75140900  1
  H  1612  1  0.25864600  0.28761800  0.70245600  1
  H  1613  1  0.29242700  0.32735000  0.69618400  1
  H  1622  1  0.32785500  0.36237400  0.71038300  1
  H  1624  1  0.25417500  0.23969600  0.75130500  1
  H  1630  1  0.86172500  0.68475200  0.50044700  1
  H  1631  1  0.90103200  0.71904800  0.50675100  1
  H  1640  1  0.93598200  0.75454700  0.49208900  1
  H  1642  1  0.81393900  0.67970500  0.45152000  1
  H  1648  1  0.30821100  0.33869800  0.50033700  1
  H  1649  1  0.26885000  0.30447300  0.50663300  1
  H  1658  1  0.23398900  0.26892000  0.49200300  1
  H  1660  1  0.35592800  0.34375100  0.45148500  1
  H  1666  1  0.25841600  0.73516900  0.00052877  1
  H  1667  1  0.29267800  0.69580000  0.00676777  1
  H  1676  1  0.32812200  0.66083000  0.99205100  1
  H  1678  1  0.25275200  0.78237400  0.95147900  1
  H  1684  1  0.91238000  0.28756700  0.00063477  1
  H  1685  1  0.87824700  0.32701300  0.00694577  1
  H  1694  1  0.84281300  0.36203900  0.99243800  1
  H  1696  1  0.91729600  0.23984600  0.95166500  1
  H  1702  1  0.10213400  0.99051600  0.19798200  1
  H  1703  1  0.07340760  0.03511610  0.19756300  1
  H  1712  1  0.03920260  0.06937910  0.21650300  1
  H  1714  1  0.13705600  0.95735000  0.22023900  1
  H  1720  1  0.61110000  0.53545800  0.70940500  1
  H  1721  1  0.56676000  0.50707400  0.70268000  1
  H  1730  1  0.52864000  0.47139200  0.71567600  1
  H  1732  1  0.63642000  0.56152000  0.76161100  1
  H  1738  1  0.06829160  0.99033700  0.50540100  1
  H  1739  1  0.09666860  0.03513010  0.50586300  1
  H  1748  1  0.13085300  0.06946210  0.48698400  1
  H  1750  1  0.03375660  0.95699800  0.48340000  1
  H  1756  1  0.56379200  0.52795600  0.00545477  1
  H  1757  1  0.60864100  0.49967200  0.00593777  1
  H  1766  1  0.64305300  0.46546900  0.98692500  1
  H  1768  1  0.53054300  0.56261800  0.98356900  1
  H  1774  1  0.06826260  0.03259210  0.00482877  1
  H  1775  1  0.09678660  0.98786600  0.00527677  1
  H  1784  1  0.13086200  0.95348600  0.98640900  1
  H  1786  1  0.03364260  0.06595610  0.98250900  1
  H  1792  1  0.55940800  0.48766100  0.49316800  1
  H  1793  1  0.60390000  0.51575600  0.49997800  1
  H  1802  1  0.64218900  0.55127800  0.48710100  1
  H  1804  1  0.53374900  0.46225100  0.44086800  1
  H  1810  1  0.10214800  0.03287010  0.69749800  1
  H  1811  1  0.07400660  0.98793100  0.69703000  1
  H  1820  1  0.04012860  0.95337900  0.71587900  1
  H  1822  1  0.13647900  0.06635910  0.71951900  1
  H  1828  1  0.60688000  0.49542000  0.19742200  1
  H  1829  1  0.56186700  0.52344200  0.19696200  1
  H  1838  1  0.52721100  0.55727000  0.21598100  1
  H  1840  1  0.64030400  0.46094600  0.21926700  1
  H  1846  1  0.19809700  0.89263300  0.08091180  1
  H  1847  1  0.19986200  0.89369900  0.12057000  1
  H  1856  1  0.17279400  0.87564800  0.15481500  1
  H  1858  1  0.15174500  0.85240600  0.04986780  1
  H  1864  1  0.97251600  0.13035600  0.08095180  1
  H  1865  1  0.97058800  0.12964700  0.12060200  1
  H  1874  1  0.99757800  0.14791800  0.15477500  1
  H  1876  1  0.01903560  0.17089300  0.04984480  1
  H  1882  1  0.70536400  0.62523300  0.58097600  1
  H  1883  1  0.70472700  0.62714900  0.62062700  1
  H  1892  1  0.72251300  0.60025300  0.65468600  1
  H  1894  1  0.74550800  0.57822500  0.54962300  1
  H  1900  1  0.46497600  0.39789800  0.58099200  1
  H  1901  1  0.46611100  0.39617000  0.62065000  1
  H  1910  1  0.44863700  0.42344200  0.65475700  1
  H  1912  1  0.42480500  0.44491200  0.55001200  1
  H  1918  1  0.97225300  0.89245100  0.62179600  1
  H  1919  1  0.97045800  0.89339100  0.58214100  1
  H  1928  1  0.99735300  0.87535700  0.54786700  1
  H  1930  1  0.01866760  0.85289000  0.65293300  1
  H  1936  1  0.19832600  0.13061600  0.62196900  1
  H  1937  1  0.20012500  0.12988700  0.58232100  1
  H  1946  1  0.17321300  0.14802300  0.54812600  1
  H  1948  1  0.15183500  0.17058300  0.65317600  1
  H  1954  1  0.46578500  0.62494400  0.12177600  1
  H  1955  1  0.46678600  0.62656300  0.08213080  1
  H  1964  1  0.44907400  0.59964100  0.04796680  1
  H  1966  1  0.42620900  0.57843400  0.15308500  1
  H  1972  1  0.70464000  0.39819900  0.12190600  1
  H  1973  1  0.70395700  0.39637000  0.08225680  1
  H  1982  1  0.72182800  0.42323100  0.04811480  1
  H  1984  1  0.74459100  0.44500900  0.15326800  1
  C  1  1  0.09356600  0.36946100  0.15648000  1
  C  2  1  0.08239300  0.39882000  0.15159700  1
  C  3  1  0.06058000  0.41370900  0.16497300  1
  C  4  1  0.04898700  0.39866700  0.18412200  1
  C  5  1  0.06224400  0.37112200  0.19117900  1
  C  6  1  0.08351700  0.35681100  0.17702100  1
  C  9  1  0.11355800  0.35322800  0.14106700  1
  C  10  1  0.10977600  0.35605500  0.11755300  1
  C  11  1  0.12855000  0.34155000  0.10173000  1
  C  12  1  0.15244700  0.32297000  0.10945300  1
  C  13  1  0.15578500  0.31735200  0.13284500  1
  C  14  1  0.13674000  0.33307800  0.14802600  1
  C  27  1  0.94256200  0.66699900  0.15630300  1
  C  28  1  0.95366800  0.63764000  0.15135500  1
  C  29  1  0.97539200  0.62261900  0.16472200  1
  C  30  1  0.98687900  0.63741600  0.18401000  1
  C  31  1  0.97381700  0.66507400  0.19104000  1
  C  32  1  0.95264700  0.67953900  0.17687400  1
  C  35  1  0.92255300  0.68329000  0.14092900  1
  C  36  1  0.92626600  0.68047500  0.11740700  1
  C  37  1  0.90742600  0.69495100  0.10161200  1
  C  38  1  0.88353300  0.71350600  0.10937800  1
  C  39  1  0.88025000  0.71910900  0.13277800  1
  C  40  1  0.89936000  0.70339800  0.14792700  1
  C  53  1  0.66730600  0.09349700  0.65565700  1
  C  54  1  0.63840300  0.08200600  0.64986600  1
  C  55  1  0.62257600  0.06082500  0.66308700  1
  C  56  1  0.63637000  0.04952500  0.68287200  1
  C  57  1  0.66367600  0.06267400  0.69058200  1
  C  58  1  0.67876900  0.08376300  0.67667700  1
  C  61  1  0.68411800  0.11336700  0.64050300  1
  C  62  1  0.68181900  0.10960900  0.61695900  1
  C  63  1  0.69621200  0.12866700  0.60129200  1
  C  64  1  0.71448700  0.15265700  0.60921100  1
  C  65  1  0.71976400  0.15587200  0.63265600  1
  C  66  1  0.70395000  0.13668400  0.64769200  1
  C  79  1  0.36864000  0.94264700  0.65608600  1
  C  80  1  0.39791600  0.95390800  0.65101900  1
  C  81  1  0.41263200  0.97601100  0.66418700  1
  C  82  1  0.39770900  0.98774500  0.68331600  1
  C  83  1  0.37039200  0.97429000  0.69062600  1
  C  84  1  0.35611800  0.95275500  0.67666200  1
  C  87  1  0.35243600  0.92242000  0.64084200  1
  C  88  1  0.35516900  0.92606900  0.61732000  1
  C  89  1  0.34076000  0.90709800  0.60158600  1
  C  90  1  0.32233300  0.88315100  0.60940600  1
  C  91  1  0.31678000  0.87995400  0.63281600  1
  C  92  1  0.33243400  0.89917600  0.64791700  1
  C  105  1  0.94012500  0.37043300  0.37878300  1
  C  106  1  0.95284500  0.39892500  0.38439400  1
  C  107  1  0.97380800  0.41427900  0.37059700  1
  C  108  1  0.98306100  0.40061700  0.35022200  1
  C  109  1  0.96827000  0.37417800  0.34260200  1
  C  110  1  0.94731200  0.35972200  0.35696200  1
  C  113  1  0.92077600  0.35372900  0.39446600  1
  C  114  1  0.92527200  0.35599900  0.41798000  1
  C  115  1  0.90696100  0.34124700  0.43399100  1
  C  116  1  0.88296700  0.32265600  0.42646800  1
  C  117  1  0.87899600  0.31745500  0.40308600  1
  C  118  1  0.89740100  0.33363900  0.38775300  1
  C  131  1  0.09513000  0.66587700  0.37909500  1
  C  132  1  0.08236000  0.63745000  0.38480200  1
  C  133  1  0.06140600  0.62202400  0.37105000  1
  C  134  1  0.05232700  0.63542100  0.35053600  1
  C  135  1  0.06704500  0.66189500  0.34288400  1
  C  136  1  0.08793700  0.67647200  0.35723900  1
  C  139  1  0.11454200  0.68259300  0.39473500  1
  C  140  1  0.11018000  0.68033100  0.41826700  1
  C  141  1  0.12861300  0.69503600  0.43422700  1
  C  142  1  0.15258700  0.71359600  0.42662700  1
  C  143  1  0.15643800  0.71876800  0.40323200  1
  C  144  1  0.13792800  0.70261800  0.38795200  1
  C  157  1  0.37045100  0.09578900  0.87874200  1
  C  158  1  0.39891400  0.08299300  0.88435900  1
  C  159  1  0.41433300  0.06212900  0.87050800  1
  C  160  1  0.40076500  0.05307300  0.85005000  1
  C  161  1  0.37433000  0.06788800  0.84244800  1
  C  162  1  0.35980900  0.08872100  0.85687600  1
  C  165  1  0.35370400  0.11509600  0.89445400  1
  C  166  1  0.35598100  0.11060600  0.91797300  1
  C  167  1  0.34120200  0.12888300  0.93400100  1
  C  168  1  0.32256800  0.15285000  0.92647400  1
  C  169  1  0.31736500  0.15684300  0.90309400  1
  C  170  1  0.33358700  0.13846500  0.88776000  1
  C  183  1  0.66611300  0.94056100  0.87906100  1
  C  184  1  0.63769900  0.95333800  0.88481800  1
  C  185  1  0.62221500  0.97429700  0.87110600  1
  C  186  1  0.63554000  0.98340600  0.85057200  1
  C  187  1  0.66194400  0.96864700  0.84282700  1
  C  188  1  0.67657700  0.94773400  0.85715700  1
  C  191  1  0.68289800  0.92116400  0.89471000  1
  C  192  1  0.68062900  0.92553500  0.91824700  1
  C  193  1  0.69527800  0.90709800  0.93423900  1
  C  194  1  0.71380700  0.88308400  0.92665300  1
  C  195  1  0.71906800  0.87922300  0.90326300  1
  C  196  1  0.70295000  0.89776500  0.88796500  1
  C  209  1  0.94335400  0.66684600  0.88014800  1
  C  210  1  0.95421800  0.63724100  0.88461100  1
  C  211  1  0.97589400  0.62242400  0.87108100  1
  C  212  1  0.98751400  0.63765400  0.85203000  1
  C  213  1  0.97442200  0.66539300  0.84522600  1
  C  214  1  0.95345300  0.67970700  0.85966100  1
  C  217  1  0.92371500  0.68306600  0.89591200  1
  C  218  1  0.92660500  0.67852000  0.91938400  1
  C  219  1  0.90868500  0.69347900  0.93553000  1
  C  220  1  0.88665200  0.71448400  0.92824200  1
  C  221  1  0.88315600  0.72044100  0.90496200  1
  C  222  1  0.90162400  0.70470000  0.88939100  1
  C  235  1  0.09238100  0.36854600  0.88027300  1
  C  236  1  0.08159100  0.39814900  0.88481300  1
  C  237  1  0.06000800  0.41311200  0.87129600  1
  C  238  1  0.04850100  0.39814500  0.85209700  1
  C  239  1  0.06137400  0.37028500  0.84532200  1
  C  240  1  0.08223000  0.35580000  0.85976100  1
  C  243  1  0.11203900  0.35226300  0.89598400  1
  C  244  1  0.10920400  0.35675800  0.91946600  1
  C  245  1  0.12719100  0.34180100  0.93557000  1
  C  246  1  0.14923800  0.32084500  0.92822900  1
  C  247  1  0.15270100  0.31496000  0.90493400  1
  C  248  1  0.13415900  0.33069000  0.88940400  1
  C  261  1  0.36829500  0.94341200  0.38096800  1
  C  262  1  0.39748700  0.95459700  0.38630700  1
  C  263  1  0.41317300  0.97568800  0.37292600  1
  C  264  1  0.39910000  0.98705700  0.35328100  1
  C  265  1  0.37160000  0.97403700  0.34584100  1
  C  266  1  0.35655100  0.95321500  0.36002400  1
  C  269  1  0.35151000  0.92388300  0.39647700  1
  C  270  1  0.35547900  0.92677100  0.42000400  1
  C  271  1  0.34047300  0.90863300  0.43596800  1
  C  272  1  0.31977900  0.88647900  0.42844000  1
  C  273  1  0.31423100  0.88310700  0.40509300  1
  C  274  1  0.33014100  0.90169300  0.38969000  1
  C  287  1  0.66768300  0.09224900  0.38048200  1
  C  288  1  0.63815400  0.08129000  0.38510900  1
  C  289  1  0.62353000  0.05932000  0.37177600  1
  C  290  1  0.63865700  0.04756800  0.35274800  1
  C  291  1  0.66619600  0.06084100  0.34572800  1
  C  292  1  0.68046100  0.08207400  0.35998200  1
  C  295  1  0.68384200  0.11215200  0.39607600  1
  C  296  1  0.67935700  0.10942100  0.41955500  1
  C  297  1  0.69425500  0.12753800  0.43559700  1
  C  298  1  0.71512800  0.14962500  0.42821600  1
  C  299  1  0.72103200  0.15295400  0.40491600  1
  C  300  1  0.70535900  0.13429000  0.38943300  1
  C  313  1  0.09472300  0.66588800  0.65642900  1
  C  314  1  0.08229000  0.63712400  0.65122500  1
  C  315  1  0.06149800  0.62184500  0.66519400  1
  C  316  1  0.05226400  0.63570400  0.68549500  1
  C  317  1  0.06685200  0.66239900  0.69283400  1
  C  318  1  0.08750400  0.67685800  0.67820300  1
  C  321  1  0.11371500  0.68258100  0.64040400  1
  C  322  1  0.11013500  0.67863500  0.61688700  1
  C  323  1  0.12765200  0.69382900  0.60060400  1
  C  324  1  0.14978800  0.71478300  0.60778200  1
  C  325  1  0.15384500  0.72033200  0.63106000  1
  C  326  1  0.13597300  0.70414800  0.64674500  1
  C  339  1  0.94185100  0.36960700  0.65615500  1
  C  340  1  0.95430800  0.39832000  0.65085600  1
  C  341  1  0.97510000  0.41366600  0.66477300  1
  C  342  1  0.98420000  0.40005400  0.68519800  1
  C  343  1  0.96969700  0.37331600  0.69256700  1
  C  344  1  0.94909300  0.35874300  0.67795400  1
  C  347  1  0.92278800  0.35291200  0.64018400  1
  C  348  1  0.92626400  0.35681800  0.61665200  1
  C  349  1  0.90859900  0.34168400  0.60042700  1
  C  350  1  0.88642500  0.32082300  0.60767800  1
  C  351  1  0.88247800  0.31532100  0.63097100  1
  C  352  1  0.90048600  0.33144200  0.64660300  1
  C  365  1  0.66589500  0.94119300  0.15646800  1
  C  366  1  0.63716700  0.95371800  0.15125200  1
  C  367  1  0.62182200  0.97440200  0.16527900  1
  C  368  1  0.63557800  0.98341500  0.18567600  1
  C  369  1  0.66226700  0.96880000  0.19299300  1
  C  370  1  0.67679500  0.94828100  0.17829000  1
  C  373  1  0.68263100  0.92224800  0.14041800  1
  C  374  1  0.67869100  0.92582900  0.11689500  1
  C  375  1  0.69390300  0.90833500  0.10059900  1
  C  376  1  0.71488600  0.88622500  0.10777600  1
  C  377  1  0.72043500  0.88214400  0.13105400  1
  C  378  1  0.70421500  0.89998600  0.14674400  1
  C  391  1  0.36941000  0.09433700  0.15623800  1
  C  392  1  0.39809800  0.08184500  0.15087700  1
  C  393  1  0.41350000  0.06103600  0.16475100  1
  C  394  1  0.39996900  0.05193400  0.18520700  1
  C  395  1  0.37331600  0.06649900  0.19268000  1
  C  396  1  0.35868500  0.08712100  0.17809100  1
  C  399  1  0.35263600  0.11338500  0.14026200  1
  C  400  1  0.35652400  0.10989700  0.11672300  1
  C  401  1  0.34138400  0.12752700  0.10047500  1
  C  402  1  0.32050000  0.14969200  0.10771900  1
  C  403  1  0.31497100  0.15367400  0.13101200  1
  C  404  1  0.33112800  0.13568500  0.14665400  1
  C  417  1  0.03588500  0.36299300  0.24834400  1
  C  418  1  0.02315700  0.38710800  0.26050800  1
  C  419  1  0.00700100  0.38249500  0.28045000  1
  C  420  1  0.00331200  0.35351500  0.28969300  1
  C  421  1  0.01434700  0.32877700  0.27686600  1
  C  424  1  0.03033300  0.33348600  0.25638400  1
  C  431  1  0.05605300  0.36939000  0.23079700  1
  C  433  1  0.99322200  0.34955300  0.31186300  1
  C  435  1  0.99994900  0.67307500  0.24828400  1
  C  436  1  0.01247500  0.64889700  0.26049600  1
  C  437  1  0.02852400  0.65341800  0.28049900  1
  C  438  1  0.03224800  0.68237100  0.28978200  1
  C  439  1  0.02145200  0.70717000  0.27690600  1
  C  442  1  0.00560100  0.70254600  0.25635600  1
  C  449  1  0.97980700  0.66679300  0.23069500  1
  C  451  1  0.04205800  0.68625200  0.31203000  1
  C  453  1  0.67103100  0.03564900  0.74794400  1
  C  454  1  0.64722500  0.02280100  0.76038700  1
  C  455  1  0.65225400  0.00688900  0.78039300  1
  C  456  1  0.68137900  0.00359000  0.78946100  1
  C  457  1  0.70582600  0.01471700  0.77636600  1
  C  460  1  0.70068800  0.03042600  0.75581400  1
  C  467  1  0.66414300  0.05550100  0.73026400  1
  C  469  1  0.68567800  0.99379700  0.81167900  1
  C  471  1  0.36320400  0.00073900  0.74794900  1
  C  472  1  0.38726100  0.01373600  0.76002000  1
  C  473  1  0.38263000  0.02969100  0.78005300  1
  C  474  1  0.35369500  0.03288700  0.78947600  1
  C  475  1  0.32898300  0.02160700  0.77673500  1
  C  478  1  0.33370600  0.00583400  0.75616700  1
  C  485  1  0.36970800  0.98090000  0.73023000  1
  C  487  1  0.34979500  0.04283600  0.81168900  1
  C  489  1  0.00041300  0.67364500  0.78783400  1
  C  490  1  0.01293100  0.64948700  0.77558800  1
  C  491  1  0.02874100  0.65399700  0.75546700  1
  C  492  1  0.03230900  0.68292700  0.74610900  1
  C  493  1  0.02147400  0.70771100  0.75899000  1
  C  496  1  0.00583200  0.70310200  0.77964000  1
  C  503  1  0.98043800  0.66730600  0.80554700  1
  C  505  1  0.04187800  0.68677500  0.72377900  1
  C  507  1  0.03563900  0.36213300  0.78785900  1
  C  508  1  0.02336200  0.38634300  0.77553500  1
  C  509  1  0.00764900  0.38189600  0.75536400  1
  C  510  1  0.00399200  0.35297500  0.74601100  1
  C  511  1  0.01456000  0.32814600  0.75896300  1
  C  514  1  0.03008200  0.33269900  0.77967400  1
  C  521  1  0.05558600  0.36836600  0.80560800  1
  C  523  1  0.99465600  0.34916700  0.72362400  1
  C  525  1  0.36413700  0.00065600  0.28826100  1
  C  526  1  0.38798500  0.01331700  0.27574400  1
  C  527  1  0.38305100  0.02888600  0.25556400  1
  C  528  1  0.35397500  0.03204500  0.24638000  1
  C  529  1  0.32948600  0.02108900  0.25951600  1
  C  532  1  0.33452700  0.00572000  0.28023300  1
  C  539  1  0.37096900  0.98100500  0.30610300  1
  C  541  1  0.34979800  0.04134800  0.22401300  1
  C  543  1  0.67356600  0.03480900  0.28819700  1
  C  544  1  0.64945100  0.02199300  0.27607500  1
  C  545  1  0.65395600  0.00636800  0.25587000  1
  C  546  1  0.68282600  0.00331000  0.24631000  1
  C  547  1  0.70760100  0.01441400  0.25907700  1
  C  550  1  0.70300400  0.02985900  0.27980900  1
  C  557  1  0.66715400  0.05448900  0.30606000  1
  C  559  1  0.68657300  0.99387300  0.22393800  1
  C  561  1  0.20814900  0.25292200  0.14128700  1
  C  562  1  0.21484500  0.22895700  0.12645700  1
  C  563  1  0.23868600  0.20871500  0.13006700  1
  C  564  1  0.25784700  0.21095100  0.14882200  1
  C  565  1  0.25195500  0.23523700  0.16379600  1
  C  568  1  0.22766900  0.25596000  0.16011200  1
  C  575  1  0.18243500  0.27075700  0.13635900  1
  C  577  1  0.28046100  0.18890800  0.15264300  1
  C  579  1  0.82767400  0.78334500  0.14130100  1
  C  580  1  0.82090000  0.80730400  0.12648500  1
  C  581  1  0.79696500  0.82743400  0.13008800  1
  C  582  1  0.77781700  0.82510700  0.14884200  1
  C  583  1  0.78379400  0.80084400  0.16381300  1
  C  586  1  0.80815800  0.78021800  0.16012300  1
  C  593  1  0.85346500  0.76561600  0.13637600  1
  C  595  1  0.75505300  0.84699000  0.15263300  1
  C  597  1  0.78385900  0.20824900  0.64147400  1
  C  598  1  0.80781100  0.21497200  0.62664900  1
  C  599  1  0.82790300  0.23893000  0.63022300  1
  C  600  1  0.82550700  0.25812700  0.64894200  1
  C  601  1  0.80123000  0.25221500  0.66390600  1
  C  604  1  0.78064900  0.22781700  0.66025300  1
  C  611  1  0.76621300  0.18242400  0.63661300  1
  C  613  1  0.84732000  0.28093400  0.65268000  1
  C  615  1  0.25254100  0.82749000  0.64139300  1
  C  616  1  0.22860300  0.82072300  0.62656200  1
  C  617  1  0.20846100  0.79680300  0.63016700  1
  C  618  1  0.21079200  0.77764400  0.64891600  1
  C  619  1  0.23506400  0.78359700  0.66388500  1
  C  622  1  0.25568600  0.80796300  0.66020300  1
  C  629  1  0.27027900  0.85326100  0.63646900  1
  C  631  1  0.18887000  0.75492500  0.65270500  1
  C  633  1  0.82715600  0.25274200  0.39457200  1
  C  634  1  0.82066000  0.22875300  0.40941700  1
  C  635  1  0.79700500  0.20830600  0.40578800  1
  C  636  1  0.77785500  0.21037300  0.38701400  1
  C  637  1  0.78353800  0.23471700  0.37204500  1
  C  640  1  0.80765600  0.25562600  0.37572800  1
  C  647  1  0.85279200  0.27068300  0.39940700  1
  C  649  1  0.75551700  0.18807100  0.38315000  1
  C  651  1  0.20824500  0.78339300  0.39455700  1
  C  652  1  0.21467200  0.80745400  0.40935000  1
  C  653  1  0.23836300  0.82785400  0.40572900  1
  C  654  1  0.25758400  0.82567000  0.38700400  1
  C  655  1  0.25196600  0.80127000  0.37208100  1
  C  658  1  0.22782200  0.78040000  0.37576300  1
  C  665  1  0.18257900  0.76550100  0.39937700  1
  C  667  1  0.28002600  0.84786000  0.38318900  1
  C  669  1  0.25264800  0.20875800  0.89457600  1
  C  670  1  0.22867400  0.21526100  0.90944000  1
  C  671  1  0.20824600  0.23895300  0.90585100  1
  C  672  1  0.21028000  0.25809100  0.88707200  1
  C  673  1  0.23458900  0.25239900  0.87207600  1
  C  676  1  0.25548900  0.22826400  0.87572900  1
  C  683  1  0.27058400  0.18309100  0.89938000  1
  C  685  1  0.18808600  0.28055700  0.88327000  1
  C  687  1  0.78359900  0.82699900  0.89476300  1
  C  688  1  0.80757100  0.82037500  0.90960200  1
  C  689  1  0.82792500  0.79663500  0.90596900  1
  C  690  1  0.82580300  0.77751400  0.88718200  1
  C  691  1  0.80147000  0.78330700  0.87222100  1
  C  694  1  0.78065100  0.80750600  0.87591800  1
  C  701  1  0.76572600  0.85270000  0.89963200  1
  C  703  1  0.84799300  0.75504800  0.88332000  1
  C  705  1  0.00067400  0.54591800  0.14914300  1
  C  706  1  0.01103000  0.53219400  0.12927600  1
  C  707  1  0.02809500  0.50560400  0.12951800  1
  C  708  1  0.03577100  0.49087000  0.14963800  1
  C  709  1  0.02587000  0.50439900  0.16997600  1
  C  712  1  0.00813800  0.53146900  0.16971200  1
  C  719  1  0.98219700  0.57174600  0.14742100  1
  C  721  1  0.05366500  0.46466100  0.14822500  1
  C  723  1  0.49032400  0.00181300  0.65290200  1
  C  724  1  0.50675500  0.01543900  0.63533700  1
  C  725  1  0.53314700  0.03214100  0.63923900  1
  C  726  1  0.54451800  0.03621000  0.66102500  1
  C  727  1  0.52867600  0.02239400  0.67902400  1
  C  730  1  0.50204100  0.00502000  0.67498400  1
  C  737  1  0.46441400  0.98459300  0.64782200  1
  C  739  1  0.57000700  0.05415300  0.66504200  1
  C  741  1  0.03482800  0.54599700  0.38733900  1
  C  742  1  0.02452600  0.53218500  0.40718500  1
  C  743  1  0.00768500  0.50545600  0.40691500  1
  C  744  1  0.00012200  0.49068100  0.38678700  1
  C  745  1  0.00995800  0.50432000  0.36646200  1
  C  748  1  0.02754400  0.53148300  0.36675700  1
  C  755  1  0.05316300  0.57191600  0.38912700  1
  C  757  1  0.98219900  0.46447700  0.38821600  1
  C  759  1  0.54603500  0.00088900  0.88740700  1
  C  760  1  0.53207000  0.01098800  0.90725100  1
  C  761  1  0.50530800  0.02777800  0.90696800  1
  C  762  1  0.49065400  0.03552800  0.88682600  1
  C  763  1  0.50443500  0.02586600  0.86650600  1
  C  766  1  0.53164000  0.00833800  0.86681000  1
  C  773  1  0.57207500  0.98272000  0.88922000  1
  C  775  1  0.46441900  0.05343000  0.88826400  1
  C  777  1  0.03506600  0.48991400  0.88674900  1
  C  778  1  0.02466200  0.50362300  0.90660700  1
  C  779  1  0.00771900  0.53028700  0.90634800  1
  C  780  1  0.00022500  0.54508800  0.88622000  1
  C  781  1  0.01017100  0.53157500  0.86589000  1
  C  784  1  0.02777600  0.50442800  0.86617400  1
  C  791  1  0.05341300  0.46401500  0.88848900  1
  C  793  1  0.98246600  0.57137300  0.88761300  1
  C  795  1  0.54569200  0.03402900  0.38284200  1
  C  796  1  0.52923900  0.02034400  0.40036500  1
  C  797  1  0.50276300  0.00381000  0.39641300  1
  C  798  1  0.49133600  0.99999600  0.37461900  1
  C  799  1  0.50719900  0.01388200  0.35666100  1
  C  802  1  0.53393500  0.03107000  0.36075500  1
  C  809  1  0.57169800  0.05105600  0.38796400  1
  C  811  1  0.46572900  0.98225500  0.37057000  1
  C  813  1  0.00124100  0.48983100  0.64860300  1
  C  814  1  0.01147500  0.50368100  0.62875400  1
  C  815  1  0.02817200  0.53049100  0.62902600  1
  C  816  1  0.03564600  0.54528800  0.64916300  1
  C  817  1  0.02587400  0.53161700  0.66948900  1
  C  820  1  0.00843400  0.50437200  0.66919000  1
  C  827  1  0.98305600  0.46382600  0.64681900  1
  C  829  1  0.05341400  0.57157500  0.64774200  1
  C  831  1  0.48981700  0.03488800  0.14854800  1
  C  832  1  0.50383800  0.02492200  0.12869100  1
  C  833  1  0.53069300  0.00828900  0.12896100  1
  C  834  1  0.54536200  0.00058400  0.14910100  1
  C  835  1  0.53153400  0.01012000  0.16943500  1
  C  838  1  0.50423300  0.02748300  0.16914400  1
  C  845  1  0.46368500  0.05289700  0.14675500  1
  C  847  1  0.57169200  0.98285200  0.14765600  1
  C  849  1  0.11227500  0.35760600  0.04258900  1
  C  850  1  0.12405800  0.38131700  0.02952200  1
  C  851  1  0.12310100  0.38069100  0.00601600  1
  C  852  1  0.11021800  0.35631600  0.99441600  1
  C  853  1  0.09916900  0.33170900  0.00714100  1
  C  856  1  0.10022400  0.33223600  0.03105100  1
  C  863  1  0.10991600  0.36144700  0.06584200  1
  C  865  1  0.10572800  0.35899900  0.97133500  1
  C  867  1  0.92350200  0.67857200  0.04247000  1
  C  868  1  0.91174700  0.65476400  0.02948400  1
  C  869  1  0.91279500  0.65518400  0.00597600  1
  C  870  1  0.92578600  0.67942200  0.99428300  1
  C  871  1  0.93679600  0.70413000  0.00691900  1
  C  874  1  0.93562900  0.70382200  0.03082900  1
  C  881  1  0.92587100  0.67487200  0.06573600  1
  C  883  1  0.93042400  0.67646500  0.97121500  1
  C  885  1  0.67966500  0.11267200  0.54244300  1
  C  886  1  0.65601800  0.12481900  0.52949200  1
  C  887  1  0.65638400  0.12375800  0.50599200  1
  C  888  1  0.68043900  0.11042100  0.49431000  1
  C  889  1  0.70500700  0.09904100  0.50690300  1
  C  892  1  0.70471800  0.10015000  0.53080300  1
  C  899  1  0.67593300  0.11013900  0.56568100  1
  C  901  1  0.67741400  0.10578800  0.47130000  1
  C  903  1  0.35659600  0.92339600  0.54269000  1
  C  904  1  0.38010100  0.91122400  0.52961500  1
  C  905  1  0.37943200  0.91216900  0.50611700  1
  C  906  1  0.35520500  0.92540000  0.49456900  1
  C  907  1  0.33075500  0.93677100  0.50729400  1
  C  910  1  0.33133900  0.93575000  0.53119300  1
  C  917  1  0.36057600  0.92604200  0.56590000  1
  C  919  1  0.35804300  0.93007800  0.47154200  1
  C  921  1  0.92347900  0.35732300  0.49319800  1
  C  922  1  0.91168200  0.38104600  0.50625700  1
  C  923  1  0.91265800  0.38049400  0.52977200  1
  C  924  1  0.92556800  0.35618100  0.54143600  1
  C  925  1  0.93665900  0.33157700  0.52872200  1
  C  928  1  0.93559100  0.33202800  0.50480300  1
  C  935  1  0.92579300  0.36112800  0.46991000  1
  C  937  1  0.93005800  0.35896300  0.56453700  1
  C  939  1  0.11251200  0.67876900  0.49348500  1
  C  940  1  0.12432800  0.65499800  0.50648600  1
  C  941  1  0.12336000  0.65542800  0.53000400  1
  C  942  1  0.11038700  0.67964400  0.54174100  1
  C  943  1  0.09927400  0.70430300  0.52909100  1
  C  946  1  0.10037100  0.70398600  0.50516800  1
  C  953  1  0.11010500  0.67502700  0.47019300  1
  C  955  1  0.10583200  0.67666900  0.56484300  1
  C  957  1  0.35707200  0.11253200  0.99316400  1
  C  958  1  0.38070700  0.12448700  0.00624200  1
  C  959  1  0.38011900  0.12360800  0.02976400  1
  C  960  1  0.35584000  0.11065800  0.04144900  1
  C  961  1  0.33132500  0.09939900  0.02872300  1
  C  964  1  0.33183000  0.10034400  0.00479600  1
  C  971  1  0.36102500  0.10982200  0.96988600  1
  C  973  1  0.35873000  0.10604000  0.06453500  1
  C  975  1  0.67903000  0.92327500  0.99341800  1
  C  976  1  0.65532100  0.91133200  0.00642700  1
  C  977  1  0.65571600  0.91234000  0.02994900  1
  C  978  1  0.67985300  0.92543600  0.04170200  1
  C  979  1  0.70447800  0.93662500  0.02905100  1
  C  982  1  0.70418400  0.93551700  0.00512500  1
  C  989  1  0.67523100  0.92589800  0.97011600  1
  C  991  1  0.67676100  0.93017900  0.06477600  1
  C  993  1  0.16087700  0.86307200  0.23995700  1
  C  994  1  0.14970400  0.89243100  0.23507400  1
  C  995  1  0.12789100  0.90732000  0.24845000  1
  C  996  1  0.11629800  0.89227800  0.26759900  1
  C  997  1  0.12955500  0.86473300  0.27465600  1
  C  998  1  0.15082800  0.85042200  0.26049800  1
  C  1001  1  0.18086900  0.84683900  0.22454400  1
  C  1002  1  0.17708700  0.84966600  0.20103000  1
  C  1003  1  0.19586100  0.83516100  0.18520700  1
  C  1004  1  0.21975800  0.81658100  0.19293000  1
  C  1005  1  0.22309600  0.81096300  0.21632200  1
  C  1006  1  0.20405100  0.82668900  0.23150300  1
  C  1019  1  0.00987260  0.16061000  0.23978000  1
  C  1020  1  0.02097860  0.13125100  0.23483200  1
  C  1021  1  0.04270260  0.11623000  0.24819900  1
  C  1022  1  0.05418960  0.13102700  0.26748700  1
  C  1023  1  0.04112760  0.15868500  0.27451700  1
  C  1024  1  0.01995760  0.17315000  0.26035100  1
  C  1027  1  0.98986400  0.17690100  0.22440600  1
  C  1028  1  0.99357700  0.17408600  0.20088400  1
  C  1029  1  0.97473700  0.18856200  0.18508900  1
  C  1030  1  0.95084400  0.20711700  0.19285500  1
  C  1031  1  0.94756100  0.21272000  0.21625500  1
  C  1032  1  0.96667100  0.19700900  0.23140400  1
  C  1045  1  0.73461700  0.58710800  0.73913400  1
  C  1046  1  0.70571400  0.57561700  0.73334300  1
  C  1047  1  0.68988700  0.55443600  0.74656400  1
  C  1048  1  0.70368100  0.54313600  0.76634900  1
  C  1049  1  0.73098700  0.55628500  0.77405900  1
  C  1050  1  0.74608000  0.57737400  0.76015400  1
  C  1053  1  0.75142900  0.60697800  0.72398000  1
  C  1054  1  0.74913000  0.60322000  0.70043600  1
  C  1055  1  0.76352300  0.62227800  0.68476900  1
  C  1056  1  0.78179800  0.64626800  0.69268800  1
  C  1057  1  0.78707500  0.64948300  0.71613300  1
  C  1058  1  0.77126100  0.63029500  0.73116900  1
  C  1071  1  0.43595100  0.43625800  0.73956300  1
  C  1072  1  0.46522700  0.44751900  0.73449600  1
  C  1073  1  0.47994300  0.46962200  0.74766400  1
  C  1074  1  0.46502000  0.48135600  0.76679300  1
  C  1075  1  0.43770300  0.46790100  0.77410300  1
  C  1076  1  0.42342900  0.44636600  0.76013900  1
  C  1079  1  0.41974700  0.41603100  0.72431900  1
  C  1080  1  0.42248000  0.41968000  0.70079700  1
  C  1081  1  0.40807100  0.40070900  0.68506300  1
  C  1082  1  0.38964400  0.37676200  0.69288300  1
  C  1083  1  0.38409100  0.37356500  0.71629300  1
  C  1084  1  0.39974500  0.39278700  0.73139400  1
  C  1097  1  0.00743560  0.86404400  0.46226000  1
  C  1098  1  0.02015560  0.89253600  0.46787100  1
  C  1099  1  0.04111860  0.90789000  0.45407400  1
  C  1100  1  0.05037160  0.89422800  0.43369900  1
  C  1101  1  0.03558060  0.86778900  0.42607900  1
  C  1102  1  0.01462260  0.85333300  0.44043900  1
  C  1105  1  0.98808700  0.84734000  0.47794300  1
  C  1106  1  0.99258300  0.84961000  0.50145700  1
  C  1107  1  0.97427200  0.83485800  0.51746800  1
  C  1108  1  0.95027800  0.81626700  0.50994500  1
  C  1109  1  0.94630700  0.81106600  0.48656300  1
  C  1110  1  0.96471200  0.82725000  0.47123000  1
  C  1123  1  0.16244100  0.15948800  0.46257200  1
  C  1124  1  0.14967100  0.13106100  0.46827900  1
  C  1125  1  0.12871700  0.11563500  0.45452700  1
  C  1126  1  0.11963800  0.12903200  0.43401300  1
  C  1127  1  0.13435600  0.15550600  0.42636100  1
  C  1128  1  0.15524800  0.17008300  0.44071600  1
  C  1131  1  0.18185300  0.17620400  0.47821200  1
  C  1132  1  0.17749100  0.17394200  0.50174400  1
  C  1133  1  0.19592400  0.18864700  0.51770400  1
  C  1134  1  0.21989800  0.20720700  0.51010400  1
  C  1135  1  0.22374900  0.21237900  0.48670900  1
  C  1136  1  0.20523900  0.19622900  0.47142900  1
  C  1149  1  0.43776200  0.58940000  0.96221900  1
  C  1150  1  0.46622500  0.57660400  0.96783600  1
  C  1151  1  0.48164400  0.55574000  0.95398500  1
  C  1152  1  0.46807600  0.54668400  0.93352700  1
  C  1153  1  0.44164100  0.56149900  0.92592500  1
  C  1154  1  0.42712000  0.58233200  0.94035300  1
  C  1157  1  0.42101500  0.60870700  0.97793100  1
  C  1158  1  0.42329200  0.60421700  0.00144977  1
  C  1159  1  0.40851300  0.62249400  0.01747780  1
  C  1160  1  0.38987900  0.64646100  0.00995077  1
  C  1161  1  0.38467600  0.65045400  0.98657100  1
  C  1162  1  0.40089800  0.63207600  0.97123700  1
  C  1175  1  0.73342400  0.43417200  0.96253800  1
  C  1176  1  0.70501000  0.44694900  0.96829500  1
  C  1177  1  0.68952600  0.46790800  0.95458300  1
  C  1178  1  0.70285100  0.47701700  0.93404900  1
  C  1179  1  0.72925500  0.46225800  0.92630400  1
  C  1180  1  0.74388800  0.44134500  0.94063400  1
  C  1183  1  0.75020900  0.41477500  0.97818700  1
  C  1184  1  0.74794000  0.41914600  0.00172377  1
  C  1185  1  0.76258900  0.40070900  0.01771580  1
  C  1186  1  0.78111800  0.37669500  0.01012980  1
  C  1187  1  0.78637900  0.37283400  0.98674000  1
  C  1188  1  0.77026100  0.39137600  0.97144200  1
  C  1201  1  0.01066460  0.16045700  0.96362500  1
  C  1202  1  0.02152860  0.13085200  0.96808800  1
  C  1203  1  0.04320460  0.11603500  0.95455800  1
  C  1204  1  0.05482460  0.13126500  0.93550700  1
  C  1205  1  0.04173260  0.15900400  0.92870300  1
  C  1206  1  0.02076360  0.17331800  0.94313800  1
  C  1209  1  0.99102600  0.17667700  0.97938900  1
  C  1210  1  0.99391600  0.17213100  0.00286077  1
  C  1211  1  0.97599600  0.18709000  0.01900680  1
  C  1212  1  0.95396300  0.20809500  0.01171880  1
  C  1213  1  0.95046700  0.21405200  0.98843900  1
  C  1214  1  0.96893500  0.19831100  0.97286800  1
  C  1227  1  0.15969200  0.86215700  0.96375000  1
  C  1228  1  0.14890200  0.89176000  0.96829000  1
  C  1229  1  0.12731900  0.90672300  0.95477300  1
  C  1230  1  0.11581200  0.89175600  0.93557400  1
  C  1231  1  0.12868500  0.86389600  0.92879900  1
  C  1232  1  0.14954100  0.84941100  0.94323800  1
  C  1235  1  0.17935000  0.84587400  0.97946100  1
  C  1236  1  0.17651500  0.85036900  0.00294277  1
  C  1237  1  0.19450200  0.83541200  0.01904680  1
  C  1238  1  0.21654900  0.81445600  0.01170580  1
  C  1239  1  0.22001200  0.80857100  0.98841100  1
  C  1240  1  0.20147000  0.82430100  0.97288100  1
  C  1253  1  0.43560600  0.43702300  0.46444500  1
  C  1254  1  0.46479800  0.44820800  0.46978400  1
  C  1255  1  0.48048400  0.46929900  0.45640300  1
  C  1256  1  0.46641100  0.48066800  0.43675800  1
  C  1257  1  0.43891100  0.46764800  0.42931800  1
  C  1258  1  0.42386200  0.44682600  0.44350100  1
  C  1261  1  0.41882100  0.41749400  0.47995400  1
  C  1262  1  0.42279000  0.42038200  0.50348100  1
  C  1263  1  0.40778400  0.40224400  0.51944500  1
  C  1264  1  0.38709000  0.38009000  0.51191700  1
  C  1265  1  0.38154200  0.37671800  0.48857000  1
  C  1266  1  0.39745200  0.39530400  0.47316700  1
  C  1279  1  0.73499400  0.58586000  0.46395900  1
  C  1280  1  0.70546500  0.57490100  0.46858600  1
  C  1281  1  0.69084100  0.55293100  0.45525300  1
  C  1282  1  0.70596800  0.54117900  0.43622500  1
  C  1283  1  0.73350700  0.55445200  0.42920500  1
  C  1284  1  0.74777200  0.57568500  0.44345900  1
  C  1287  1  0.75115300  0.60576300  0.47955300  1
  C  1288  1  0.74666800  0.60303200  0.50303200  1
  C  1289  1  0.76156600  0.62114900  0.51907400  1
  C  1290  1  0.78243900  0.64323600  0.51169300  1
  C  1291  1  0.78834300  0.64656500  0.48839300  1
  C  1292  1  0.77267000  0.62790100  0.47291000  1
  C  1305  1  0.16203400  0.15949900  0.73990600  1
  C  1306  1  0.14960100  0.13073500  0.73470200  1
  C  1307  1  0.12880900  0.11545600  0.74867100  1
  C  1308  1  0.11957500  0.12931500  0.76897200  1
  C  1309  1  0.13416300  0.15601000  0.77631100  1
  C  1310  1  0.15481500  0.17046900  0.76168000  1
  C  1313  1  0.18102600  0.17619200  0.72388100  1
  C  1314  1  0.17744600  0.17224600  0.70036400  1
  C  1315  1  0.19496300  0.18744000  0.68408100  1
  C  1316  1  0.21709900  0.20839400  0.69125900  1
  C  1317  1  0.22115600  0.21394300  0.71453700  1
  C  1318  1  0.20328400  0.19775900  0.73022200  1
  C  1331  1  0.00916160  0.86321800  0.73963200  1
  C  1332  1  0.02161860  0.89193100  0.73433300  1
  C  1333  1  0.04241060  0.90727700  0.74825000  1
  C  1334  1  0.05151060  0.89366500  0.76867500  1
  C  1335  1  0.03700760  0.86692700  0.77604400  1
  C  1336  1  0.01640360  0.85235400  0.76143100  1
  C  1339  1  0.99009900  0.84652300  0.72366100  1
  C  1340  1  0.99357500  0.85042900  0.70012900  1
  C  1341  1  0.97591000  0.83529500  0.68390400  1
  C  1342  1  0.95373600  0.81443400  0.69115500  1
  C  1343  1  0.94978900  0.80893200  0.71444800  1
  C  1344  1  0.96779700  0.82505300  0.73008000  1
  C  1357  1  0.73320600  0.43480400  0.23994500  1
  C  1358  1  0.70447800  0.44732900  0.23472900  1
  C  1359  1  0.68913300  0.46801300  0.24875600  1
  C  1360  1  0.70288900  0.47702600  0.26915300  1
  C  1361  1  0.72957800  0.46241100  0.27647000  1
  C  1362  1  0.74410600  0.44189200  0.26176700  1
  C  1365  1  0.74994200  0.41585900  0.22389500  1
  C  1366  1  0.74600200  0.41944000  0.20037200  1
  C  1367  1  0.76121400  0.40194600  0.18407600  1
  C  1368  1  0.78219700  0.37983600  0.19125300  1
  C  1369  1  0.78774600  0.37575500  0.21453100  1
  C  1370  1  0.77152600  0.39359700  0.23022100  1
  C  1383  1  0.43672100  0.58794800  0.23971500  1
  C  1384  1  0.46540900  0.57545600  0.23435400  1
  C  1385  1  0.48081100  0.55464700  0.24822800  1
  C  1386  1  0.46728000  0.54554500  0.26868400  1
  C  1387  1  0.44062700  0.56011000  0.27615700  1
  C  1388  1  0.42599600  0.58073200  0.26156800  1
  C  1391  1  0.41994700  0.60699600  0.22373900  1
  C  1392  1  0.42383500  0.60350800  0.20020000  1
  C  1393  1  0.40869500  0.62113800  0.18395200  1
  C  1394  1  0.38781100  0.64330300  0.19119600  1
  C  1395  1  0.38228200  0.64728500  0.21448900  1
  C  1396  1  0.39843900  0.62929600  0.23013100  1
  C  1409  1  0.10319600  0.85660400  0.33182100  1
  C  1410  1  0.09046760  0.88071900  0.34398500  1
  C  1411  1  0.07431160  0.87610600  0.36392700  1
  C  1412  1  0.07062260  0.84712600  0.37317000  1
  C  1413  1  0.08165760  0.82238800  0.36034300  1
  C  1416  1  0.09764360  0.82709700  0.33986100  1
  C  1423  1  0.12336400  0.86300100  0.31427400  1
  C  1425  1  0.06053260  0.84316400  0.39534000  1
  C  1427  1  0.06725960  0.16668600  0.33176100  1
  C  1428  1  0.07978560  0.14250800  0.34397300  1
  C  1429  1  0.09583460  0.14702900  0.36397600  1
  C  1430  1  0.09955860  0.17598200  0.37325900  1
  C  1431  1  0.08876260  0.20078100  0.36038300  1
  C  1434  1  0.07291160  0.19615700  0.33983300  1
  C  1441  1  0.04711760  0.16040400  0.31417200  1
  C  1443  1  0.10936900  0.17986300  0.39550700  1
  C  1445  1  0.73834200  0.52926000  0.83142100  1
  C  1446  1  0.71453600  0.51641200  0.84386400  1
  C  1447  1  0.71956500  0.50050000  0.86387000  1
  C  1448  1  0.74869000  0.49720100  0.87293800  1
  C  1449  1  0.77313700  0.50832800  0.85984300  1
  C  1452  1  0.76799900  0.52403700  0.83929100  1
  C  1459  1  0.73145400  0.54911200  0.81374100  1
  C  1461  1  0.75298900  0.48740800  0.89515600  1
  C  1463  1  0.43051500  0.49435000  0.83142600  1
  C  1464  1  0.45457200  0.50734700  0.84349700  1
  C  1465  1  0.44994100  0.52330200  0.86353000  1
  C  1466  1  0.42100600  0.52649800  0.87295300  1
  C  1467  1  0.39629400  0.51521800  0.86021200  1
  C  1470  1  0.40101700  0.49944500  0.83964400  1
  C  1477  1  0.43701900  0.47451100  0.81370700  1
  C  1479  1  0.41710600  0.53644700  0.89516600  1
  C  1481  1  0.06772360  0.16725600  0.87131100  1
  C  1482  1  0.08024160  0.14309800  0.85906500  1
  C  1483  1  0.09605160  0.14760800  0.83894400  1
  C  1484  1  0.09961960  0.17653800  0.82958600  1
  C  1485  1  0.08878460  0.20132200  0.84246700  1
  C  1488  1  0.07314260  0.19671300  0.86311700  1
  C  1495  1  0.04774860  0.16091700  0.88902400  1
  C  1497  1  0.10918900  0.18038600  0.80725600  1
  C  1499  1  0.10295000  0.85574400  0.87133600  1
  C  1500  1  0.09067260  0.87995400  0.85901200  1
  C  1501  1  0.07495960  0.87550700  0.83884100  1
  C  1502  1  0.07130260  0.84658600  0.82948800  1
  C  1503  1  0.08187060  0.82175700  0.84244000  1
  C  1506  1  0.09739260  0.82631000  0.86315100  1
  C  1513  1  0.12289700  0.86197700  0.88908500  1
  C  1515  1  0.06196660  0.84277800  0.80710100  1
  C  1517  1  0.43144800  0.49426700  0.37173800  1
  C  1518  1  0.45529600  0.50692800  0.35922100  1
  C  1519  1  0.45036200  0.52249700  0.33904100  1
  C  1520  1  0.42128600  0.52565600  0.32985700  1
  C  1521  1  0.39679700  0.51470000  0.34299300  1
  C  1524  1  0.40183800  0.49933100  0.36371000  1
  C  1531  1  0.43828000  0.47461600  0.38958000  1
  C  1533  1  0.41710900  0.53495900  0.30749000  1
  C  1535  1  0.74087700  0.52842000  0.37167400  1
  C  1536  1  0.71676200  0.51560400  0.35955200  1
  C  1537  1  0.72126700  0.49997900  0.33934700  1
  C  1538  1  0.75013700  0.49692100  0.32978700  1
  C  1539  1  0.77491200  0.50802500  0.34255400  1
  C  1542  1  0.77031500  0.52347000  0.36328600  1
  C  1549  1  0.73446500  0.54810000  0.38953700  1
  C  1551  1  0.75388400  0.48748400  0.30741500  1
  C  1553  1  0.27546000  0.74653300  0.22476400  1
  C  1554  1  0.28215600  0.72256800  0.20993400  1
  C  1555  1  0.30599700  0.70232600  0.21354400  1
  C  1556  1  0.32515800  0.70456200  0.23229900  1
  C  1557  1  0.31926600  0.72884800  0.24727300  1
  C  1560  1  0.29498000  0.74957100  0.24358900  1
  C  1567  1  0.24974600  0.76436800  0.21983600  1
  C  1569  1  0.34777200  0.68251900  0.23612000  1
  C  1571  1  0.89498500  0.27695600  0.22477800  1
  C  1572  1  0.88821100  0.30091500  0.20996200  1
  C  1573  1  0.86427600  0.32104500  0.21356500  1
  C  1574  1  0.84512800  0.31871800  0.23231900  1
  C  1575  1  0.85110500  0.29445500  0.24729000  1
  C  1578  1  0.87546900  0.27382900  0.24360000  1
  C  1585  1  0.92077600  0.25922700  0.21985300  1
  C  1587  1  0.82236400  0.34060100  0.23611000  1
  C  1589  1  0.85117000  0.70186000  0.72495100  1
  C  1590  1  0.87512200  0.70858300  0.71012600  1
  C  1591  1  0.89521400  0.73254100  0.71370000  1
  C  1592  1  0.89281800  0.75173800  0.73241900  1
  C  1593  1  0.86854100  0.74582600  0.74738300  1
  C  1596  1  0.84796000  0.72142800  0.74373000  1
  C  1603  1  0.83352400  0.67603500  0.72009000  1
  C  1605  1  0.91463100  0.77454500  0.73615700  1
  C  1607  1  0.31985200  0.32110100  0.72487000  1
  C  1608  1  0.29591400  0.31433400  0.71003900  1
  C  1609  1  0.27577200  0.29041400  0.71364400  1
  C  1610  1  0.27810300  0.27125500  0.73239300  1
  C  1611  1  0.30237500  0.27720800  0.74736200  1
  C  1614  1  0.32299700  0.30157400  0.74368000  1
  C  1621  1  0.33759000  0.34687200  0.71994600  1
  C  1623  1  0.25618100  0.24853600  0.73618200  1
  C  1625  1  0.89446700  0.74635300  0.47804900  1
  C  1626  1  0.88797100  0.72236400  0.49289400  1
  C  1627  1  0.86431600  0.70191700  0.48926500  1
  C  1628  1  0.84516600  0.70398400  0.47049100  1
  C  1629  1  0.85084900  0.72832800  0.45552200  1
  C  1632  1  0.87496700  0.74923700  0.45920500  1
  C  1639  1  0.92010300  0.76429400  0.48288400  1
  C  1641  1  0.82282800  0.68168200  0.46662700  1
  C  1643  1  0.27555600  0.27700400  0.47803400  1
  C  1644  1  0.28198300  0.30106500  0.49282700  1
  C  1645  1  0.30567400  0.32146500  0.48920600  1
  C  1646  1  0.32489500  0.31928100  0.47048100  1
  C  1647  1  0.31927700  0.29488100  0.45555800  1
  C  1650  1  0.29513300  0.27401100  0.45924000  1
  C  1657  1  0.24989000  0.25911200  0.48285400  1
  C  1659  1  0.34733700  0.34147100  0.46666600  1
  C  1661  1  0.31995900  0.70236900  0.97805300  1
  C  1662  1  0.29598500  0.70887200  0.99291700  1
  C  1663  1  0.27555700  0.73256400  0.98932800  1
  C  1664  1  0.27759100  0.75170200  0.97054900  1
  C  1665  1  0.30190000  0.74601000  0.95555300  1
  C  1668  1  0.32280000  0.72187500  0.95920600  1
  C  1675  1  0.33789500  0.67670200  0.98285700  1
  C  1677  1  0.25539700  0.77416800  0.96674700  1
  C  1679  1  0.85091000  0.32061000  0.97824000  1
  C  1680  1  0.87488200  0.31398600  0.99307900  1
  C  1681  1  0.89523600  0.29024600  0.98944600  1
  C  1682  1  0.89311400  0.27112500  0.97065900  1
  C  1683  1  0.86878100  0.27691800  0.95569800  1
  C  1686  1  0.84796200  0.30111700  0.95939500  1
  C  1693  1  0.83303700  0.34631100  0.98310900  1
  C  1695  1  0.91530400  0.24865900  0.96679700  1
  C  1697  1  0.06798460  0.03952910  0.23262000  1
  C  1698  1  0.07834060  0.02580510  0.21275300  1
  C  1699  1  0.09540560  0.99921500  0.21299500  1
  C  1700  1  0.10308200  0.98448100  0.23311500  1
  C  1701  1  0.09318060  0.99801000  0.25345300  1
  C  1704  1  0.07544860  0.02508010  0.25318900  1
  C  1711  1  0.04950760  0.06535710  0.23089800  1
  C  1713  1  0.12097600  0.95827200  0.23170200  1
  C  1715  1  0.55763500  0.49542400  0.73637900  1
  C  1716  1  0.57406600  0.50905000  0.71881400  1
  C  1717  1  0.60045800  0.52575200  0.72271600  1
  C  1718  1  0.61182900  0.52982100  0.74450200  1
  C  1719  1  0.59598700  0.51600500  0.76250100  1
  C  1722  1  0.56935200  0.49863100  0.75846100  1
  C  1729  1  0.53172500  0.47820400  0.73129900  1
  C  1731  1  0.63731800  0.54776400  0.74851900  1
  C  1733  1  0.10213900  0.03960810  0.47081600  1
  C  1734  1  0.09183660  0.02579610  0.49066200  1
  C  1735  1  0.07499560  0.99906700  0.49039200  1
  C  1736  1  0.06743260  0.98429200  0.47026400  1
  C  1737  1  0.07726860  0.99793100  0.44993900  1
  C  1740  1  0.09485460  0.02509410  0.45023400  1
  C  1747  1  0.12047400  0.06552710  0.47260400  1
  C  1749  1  0.04950960  0.95808800  0.47169300  1
  C  1751  1  0.61334600  0.49450000  0.97088400  1
  C  1752  1  0.59938100  0.50459900  0.99072800  1
  C  1753  1  0.57261900  0.52138900  0.99044500  1
  C  1754  1  0.55796500  0.52913900  0.97030300  1
  C  1755  1  0.57174600  0.51947700  0.94998300  1
  C  1758  1  0.59895100  0.50194900  0.95028700  1
  C  1765  1  0.63938600  0.47633100  0.97269700  1
  C  1767  1  0.53173000  0.54704100  0.97174100  1
  C  1769  1  0.10237700  0.98352500  0.97022600  1
  C  1770  1  0.09197260  0.99723400  0.99008400  1
  C  1771  1  0.07502960  0.02389810  0.98982500  1
  C  1772  1  0.06753560  0.03869910  0.96969700  1
  C  1773  1  0.07748160  0.02518610  0.94936700  1
  C  1776  1  0.09508660  0.99803900  0.94965100  1
  C  1783  1  0.12072400  0.95762600  0.97196600  1
  C  1785  1  0.04977660  0.06498410  0.97109000  1
  C  1787  1  0.61300300  0.52764000  0.46631900  1
  C  1788  1  0.59655000  0.51395500  0.48384200  1
  C  1789  1  0.57007400  0.49742100  0.47989000  1
  C  1790  1  0.55864700  0.49360700  0.45809600  1
  C  1791  1  0.57451000  0.50749300  0.44013800  1
  C  1794  1  0.60124600  0.52468100  0.44423200  1
  C  1801  1  0.63900900  0.54466700  0.47144100  1
  C  1803  1  0.53304000  0.47586600  0.45404700  1
  C  1805  1  0.06855160  0.98344200  0.73208000  1
  C  1806  1  0.07878560  0.99729200  0.71223100  1
  C  1807  1  0.09548260  0.02410210  0.71250300  1
  C  1808  1  0.10295700  0.03889910  0.73264000  1
  C  1809  1  0.09318460  0.02522810  0.75296600  1
  C  1812  1  0.07574460  0.99798300  0.75266700  1
  C  1819  1  0.05036660  0.95743700  0.73029600  1
  C  1821  1  0.12072500  0.06518610  0.73121900  1
  C  1823  1  0.55712800  0.52849900  0.23202500  1
  C  1824  1  0.57114900  0.51853300  0.21216800  1
  C  1825  1  0.59800400  0.50190000  0.21243800  1
  C  1826  1  0.61267300  0.49419500  0.23257800  1
  C  1827  1  0.59884500  0.50373100  0.25291200  1
  C  1830  1  0.57154400  0.52109400  0.25262100  1
  C  1837  1  0.53099600  0.54650800  0.23023200  1
  C  1839  1  0.63900300  0.47646300  0.23113300  1
  C  1841  1  0.17958600  0.85121700  0.12606600  1
  C  1842  1  0.19136900  0.87492800  0.11299900  1
  C  1843  1  0.19041200  0.87430200  0.08949280  1
  C  1844  1  0.17752900  0.84992700  0.07789280  1
  C  1845  1  0.16648000  0.82532000  0.09061780  1
  C  1848  1  0.16753500  0.82584700  0.11452800  1
  C  1855  1  0.17722700  0.85505800  0.14931900  1
  C  1857  1  0.17303900  0.85261000  0.05481180  1
  C  1859  1  0.99081300  0.17218300  0.12594700  1
  C  1860  1  0.97905800  0.14837500  0.11296100  1
  C  1861  1  0.98010600  0.14879500  0.08945280  1
  C  1862  1  0.99309700  0.17303300  0.07775980  1
  C  1863  1  0.00410660  0.19774100  0.09039580  1
  C  1866  1  0.00293960  0.19743300  0.11430600  1
  C  1873  1  0.99318200  0.16848300  0.14921300  1
  C  1875  1  0.99773500  0.17007600  0.05469180  1
  C  1877  1  0.74697600  0.60628300  0.62592000  1
  C  1878  1  0.72332900  0.61843000  0.61296900  1
  C  1879  1  0.72369500  0.61736900  0.58946900  1
  C  1880  1  0.74775000  0.60403200  0.57778700  1
  C  1881  1  0.77231800  0.59265200  0.59038000  1
  C  1884  1  0.77202900  0.59376100  0.61428000  1
  C  1891  1  0.74324400  0.60375000  0.64915800  1
  C  1893  1  0.74472500  0.59939900  0.55477700  1
  C  1895  1  0.42390700  0.41700700  0.62616700  1
  C  1896  1  0.44741200  0.40483500  0.61309200  1
  C  1897  1  0.44674300  0.40578000  0.58959400  1
  C  1898  1  0.42251600  0.41901100  0.57804600  1
  C  1899  1  0.39806600  0.43038200  0.59077100  1
  C  1902  1  0.39865000  0.42936100  0.61467000  1
  C  1909  1  0.42788700  0.41965300  0.64937700  1
  C  1911  1  0.42535400  0.42368900  0.55501900  1
  C  1913  1  0.99079000  0.85093400  0.57667500  1
  C  1914  1  0.97899300  0.87465700  0.58973400  1
  C  1915  1  0.97996900  0.87410500  0.61324900  1
  C  1916  1  0.99287900  0.84979200  0.62491300  1
  C  1917  1  0.00396960  0.82518800  0.61219900  1
  C  1920  1  0.00290160  0.82563900  0.58828000  1
  C  1927  1  0.99310400  0.85473900  0.55338700  1
  C  1929  1  0.99736900  0.85257400  0.64801400  1
  C  1931  1  0.17982300  0.17238000  0.57696200  1
  C  1932  1  0.19163900  0.14860900  0.58996300  1
  C  1933  1  0.19067100  0.14903900  0.61348100  1
  C  1934  1  0.17769800  0.17325500  0.62521800  1
  C  1935  1  0.16658500  0.19791400  0.61256800  1
  C  1938  1  0.16768200  0.19759700  0.58864500  1
  C  1945  1  0.17741600  0.16863800  0.55367000  1
  C  1947  1  0.17314300  0.17028000  0.64832000  1
  C  1949  1  0.42438300  0.60614300  0.07664080  1
  C  1950  1  0.44801800  0.61809800  0.08971880  1
  C  1951  1  0.44743000  0.61721900  0.11324100  1
  C  1952  1  0.42315100  0.60426900  0.12492600  1
  C  1953  1  0.39863600  0.59301000  0.11220000  1
  C  1956  1  0.39914100  0.59395500  0.08827280  1
  C  1963  1  0.42833600  0.60343300  0.05336280  1
  C  1965  1  0.42604100  0.59965100  0.14801200  1
  C  1967  1  0.74634100  0.41688600  0.07689480  1
  C  1968  1  0.72263200  0.40494300  0.08990380  1
  C  1969  1  0.72302700  0.40595100  0.11342600  1
  C  1970  1  0.74716400  0.41904700  0.12517900  1
  C  1971  1  0.77178900  0.43023600  0.11252800  1
  C  1974  1  0.77149500  0.42912800  0.08860180  1
  C  1981  1  0.74254200  0.41950900  0.05359280  1
  C  1983  1  0.74407200  0.42379000  0.14825300  1
  N  8  1  0.02477800  0.41006800  0.19531700  1
  N  15  1  0.17248000  0.31139200  0.09441400  1
  N  23  1  0.17816100  0.29908600  0.14042600  1
  N  24  1  0.12434500  0.34399100  0.07950100  1
  N  25  1  0.05409400  0.35789100  0.21060000  1
  N  26  1  0.04981800  0.44148600  0.16078400  1
  N  34  1  0.01074800  0.62561600  0.19538800  1
  N  41  1  0.86344500  0.72505900  0.09436900  1
  N  49  1  0.85782000  0.73728500  0.14039000  1
  N  50  1  0.91155700  0.69246500  0.07937300  1
  N  51  1  0.98197700  0.67822600  0.21049000  1
  N  52  1  0.98599500  0.59481300  0.16047800  1
  N  60  1  0.62410900  0.02555200  0.69382400  1
  N  67  1  0.72607800  0.17285600  0.59430800  1
  N  75  1  0.73779400  0.17831100  0.64036300  1
  N  76  1  0.69373500  0.12464700  0.57905400  1
  N  77  1  0.67625700  0.05434300  0.71022100  1
  N  78  1  0.59605400  0.04927400  0.65620100  1
  N  86  1  0.40900900  0.01223800  0.69423400  1
  N  93  1  0.31083600  0.86296500  0.59445000  1
  N  101  1  0.29861900  0.85755500  0.64046600  1
  N  102  1  0.34320600  0.91118900  0.57935600  1
  N  103  1  0.35752500  0.98228400  0.71021600  1
  N  104  1  0.44059100  0.98621700  0.66032700  1
  N  112  1  0.00620200  0.41270200  0.33825300  1
  N  119  1  0.86342700  0.31065900  0.44168100  1
  N  127  1  0.85660600  0.29914400  0.39564500  1
  N  128  1  0.91162600  0.34348800  0.45620100  1
  N  129  1  0.97152400  0.36493800  0.32120100  1
  N  130  1  0.98519000  0.44171300  0.37513300  1
  N  138  1  0.02948600  0.62302100  0.33842500  1
  N  145  1  0.17221600  0.72559300  0.44177400  1
  N  153  1  0.17883500  0.73701100  0.39573700  1
  N  154  1  0.12408400  0.69278100  0.45645500  1
  N  155  1  0.06382300  0.67104000  0.32145100  1
  N  156  1  0.04984100  0.59476400  0.37581300  1
  N  164  1  0.41291900  0.03006500  0.83799400  1
  N  171  1  0.31056000  0.17236900  0.94169200  1
  N  179  1  0.29905700  0.17925800  0.89565600  1
  N  180  1  0.34348800  0.12424600  0.95622900  1
  N  181  1  0.36504600  0.06464600  0.82104800  1
  N  182  1  0.44173700  0.05066300  0.87506600  1
  N  190  1  0.62310100  0.00630100  0.83853500  1
  N  197  1  0.72565600  0.86339800  0.94182200  1
  N  205  1  0.73731200  0.85677000  0.89578200  1
  N  206  1  0.69294700  0.91163300  0.95648400  1
  N  207  1  0.67094800  0.97184200  0.82133900  1
  N  208  1  0.59494300  0.98583400  0.87589700  1
  N  216  1  0.01158500  0.62622700  0.84068500  1
  N  223  1  0.86910600  0.72894100  0.94365700  1
  N  231  1  0.86253600  0.74145600  0.89935900  1
  N  232  1  0.91086300  0.68799100  0.95763100  1
  N  233  1  0.98249300  0.67872900  0.82579000  1
  N  234  1  0.98655600  0.59457300  0.87512400  1
  N  242  1  0.02479700  0.40999800  0.84055800  1
  N  249  1  0.16684700  0.30638900  0.94360400  1
  N  257  1  0.17342800  0.29408000  0.89927900  1
  N  258  1  0.12506800  0.34725300  0.95767800  1
  N  259  1  0.05329100  0.35702700  0.82586000  1
  N  260  1  0.04956100  0.44101500  0.87537800  1
  N  268  1  0.41130800  0.01095600  0.34221000  1
  N  275  1  0.30528100  0.86870700  0.44368400  1
  N  283  1  0.29346500  0.86240400  0.39926800  1
  N  284  1  0.34568100  0.91081200  0.45810100  1
  N  285  1  0.35890300  0.98226000  0.32618600  1
  N  286  1  0.43982300  0.98710400  0.37963300  1
  N  294  1  0.62731000  0.02324600  0.34164700  1
  N  301  1  0.72950100  0.16736400  0.44355100  1
  N  309  1  0.74195800  0.17359300  0.39922500  1
  N  310  1  0.68885500  0.12540200  0.45769700  1
  N  311  1  0.67920500  0.05292600  0.32613700  1
  N  312  1  0.59548100  0.04925800  0.37544000  1
  N  320  1  0.02937400  0.62351900  0.69767300  1
  N  327  1  0.16690500  0.72958200  0.59228000  1
  N  335  1  0.17443400  0.74137100  0.63660900  1
  N  336  1  0.12511400  0.68861000  0.57846800  1
  N  337  1  0.06376400  0.67184100  0.71423100  1
  N  338  1  0.05021600  0.59433700  0.66079800  1
  N  346  1  0.00679900  0.41257400  0.69749700  1
  N  353  1  0.86915100  0.30608600  0.59223800  1
  N  361  1  0.86181600  0.29441700  0.63659600  1
  N  362  1  0.91103200  0.34686700  0.57828200  1
  N  363  1  0.97275100  0.36398700  0.71399600  1
  N  364  1  0.98648200  0.44105100  0.66018000  1
  N  372  1  0.62330500  0.00615000  0.19794900  1
  N  379  1  0.72971200  0.86913700  0.09227000  1
  N  387  1  0.74144900  0.86150900  0.13659700  1
  N  388  1  0.68870200  0.91088800  0.07844700  1
  N  389  1  0.67176200  0.97188000  0.21438500  1
  N  390  1  0.59434400  0.98577100  0.16085900  1
  N  398  1  0.41249300  0.02927200  0.19743400  1
  N  405  1  0.30576100  0.16693300  0.09226000  1
  N  413  1  0.29400200  0.17434100  0.13659600  1
  N  414  1  0.34654700  0.12504500  0.07831100  1
  N  415  1  0.36411000  0.06345600  0.21416000  1
  N  416  1  0.44088000  0.04965700  0.16011900  1
  N  425  1  0.01005900  0.29856100  0.28360800  1
  N  426  1  0.04236500  0.30941400  0.24375400  1
  N  443  1  0.02585900  0.73735900  0.28366600  1
  N  444  1  0.99381000  0.72668300  0.24366600  1
  N  461  1  0.73616700  0.01076100  0.78289100  1
  N  462  1  0.72449400  0.04249500  0.74292700  1
  N  479  1  0.29877600  0.02543000  0.78363700  1
  N  480  1  0.30968300  0.99353900  0.74362500  1
  N  497  1  0.02562400  0.73788800  0.75211500  1
  N  498  1  0.99396900  0.72722600  0.79230200  1
  N  515  1  0.01025000  0.29798200  0.75211100  1
  N  516  1  0.04167800  0.30852300  0.79241700  1
  N  533  1  0.29917800  0.02488100  0.25285600  1
  N  534  1  0.31067700  0.99379200  0.29314400  1
  N  551  1  0.73776000  0.01074100  0.25202200  1
  N  552  1  0.72709200  0.04201300  0.29235600  1
  N  569  1  0.27133800  0.23804400  0.18248200  1
  N  570  1  0.22380500  0.27884300  0.17627100  1
  N  587  1  0.76440400  0.79795600  0.18249000  1
  N  588  1  0.81208500  0.75732300  0.17626100  1
  N  605  1  0.79828400  0.27169700  0.68252500  1
  N  606  1  0.75772300  0.22391700  0.67637300  1
  N  623  1  0.23795400  0.76420900  0.68256200  1
  N  624  1  0.27859000  0.81187600  0.67633800  1
  N  641  1  0.76413300  0.23739100  0.35336100  1
  N  642  1  0.81142700  0.27848700  0.35953500  1
  N  659  1  0.27146400  0.79850800  0.35345800  1
  N  660  1  0.22412200  0.75745100  0.35963200  1
  N  677  1  0.23723900  0.27183400  0.85340700  1
  N  678  1  0.27833800  0.22450600  0.85952400  1
  N  695  1  0.79872100  0.76392900  0.85352700  1
  N  696  1  0.75777200  0.81134000  0.85974800  1
  N  713  1  0.03565400  0.49049500  0.19001000  1
  N  714  1  0.99607600  0.54456100  0.18936400  1
  N  731  1  0.54071500  0.02687600  0.70075000  1
  N  732  1  0.48679300  0.98939200  0.69225300  1
  N  749  1  0.00016200  0.49056900  0.34636700  1
  N  750  1  0.03982000  0.54444700  0.34712200  1
  N  767  1  0.49079300  0.03580500  0.84641000  1
  N  768  1  0.54475200  0.99625800  0.84716500  1
  N  785  1  0.00056800  0.54558000  0.84584700  1
  N  786  1  0.03986800  0.49131200  0.84654000  1
  N  803  1  0.49506300  0.00968900  0.33493600  1
  N  804  1  0.54927700  0.04671000  0.34353900  1
  N  821  1  0.03557900  0.54542900  0.68958400  1
  N  822  1  0.99623300  0.49133600  0.68882600  1
  N  839  1  0.54523600  0.00023200  0.18951900  1
  N  840  1  0.49103600  0.03942600  0.18880300  1
  N  857  1  0.08674000  0.30732200  0.99502900  1
  N  858  1  0.08768500  0.30719000  0.04229600  1
  N  875  1  0.94932700  0.72838900  0.99472000  1
  N  876  1  0.94813500  0.72896300  0.04198000  1
  N  893  1  0.72911800  0.08626600  0.49468000  1
  N  894  1  0.72965400  0.08721100  0.54193300  1
  N  911  1  0.30651000  0.94950900  0.49519800  1
  N  912  1  0.30647000  0.94860200  0.54246300  1
  N  929  1  0.94915600  0.30726000  0.54087200  1
  N  930  1  0.94819400  0.30698100  0.49360000  1
  N  947  1  0.08670300  0.72852300  0.54130400  1
  N  948  1  0.08777800  0.72909500  0.49403900  1
  N  965  1  0.30704200  0.08684300  0.04087400  1
  N  966  1  0.30687400  0.08754900  0.99360100  1
  N  983  1  0.72864000  0.94930000  0.04126900  1
  N  984  1  0.72925900  0.94819400  0.99400600  1
  N  1000  1  0.09208860  0.90367900  0.27879400  1
  N  1007  1  0.23979100  0.80500300  0.17789100  1
  N  1015  1  0.24547200  0.79269700  0.22390300  1
  N  1016  1  0.19165600  0.83760200  0.16297800  1
  N  1017  1  0.12140500  0.85150200  0.29407700  1
  N  1018  1  0.11712900  0.93509700  0.24426100  1
  N  1026  1  0.07805860  0.11922700  0.27886500  1
  N  1033  1  0.93075600  0.21867000  0.17784600  1
  N  1041  1  0.92513100  0.23089600  0.22386700  1
  N  1042  1  0.97886800  0.18607600  0.16285000  1
  N  1043  1  0.04928760  0.17183700  0.29396700  1
  N  1044  1  0.05330560  0.08842410  0.24395500  1
  N  1052  1  0.69142000  0.51916300  0.77730100  1
  N  1059  1  0.79338900  0.66646700  0.67778500  1
  N  1067  1  0.80510500  0.67192200  0.72384000  1
  N  1068  1  0.76104600  0.61825800  0.66253100  1
  N  1069  1  0.74356800  0.54795400  0.79369800  1
  N  1070  1  0.66336500  0.54288500  0.73967800  1
  N  1078  1  0.47632000  0.50584900  0.77771100  1
  N  1085  1  0.37814700  0.35657600  0.67792700  1
  N  1093  1  0.36593000  0.35116600  0.72394300  1
  N  1094  1  0.41051700  0.40480000  0.66283300  1
  N  1095  1  0.42483600  0.47589500  0.79369300  1
  N  1096  1  0.50790200  0.47982800  0.74380400  1
  N  1104  1  0.07351260  0.90631300  0.42173000  1
  N  1111  1  0.93073800  0.80427000  0.52515800  1
  N  1119  1  0.92391700  0.79275500  0.47912200  1
  N  1120  1  0.97893700  0.83709900  0.53967800  1
  N  1121  1  0.03883460  0.85854900  0.40467800  1
  N  1122  1  0.05250060  0.93532400  0.45861000  1
  N  1130  1  0.09679660  0.11663200  0.42190200  1
  N  1137  1  0.23952700  0.21920400  0.52525100  1
  N  1145  1  0.24614600  0.23062200  0.47921400  1
  N  1146  1  0.19139500  0.18639200  0.53993200  1
  N  1147  1  0.13113400  0.16465100  0.40492800  1
  N  1148  1  0.11715200  0.08837510  0.45929000  1
  N  1156  1  0.48023000  0.52367600  0.92147100  1
  N  1163  1  0.37787100  0.66598000  0.02516880  1
  N  1171  1  0.36636800  0.67286900  0.97913300  1
  N  1172  1  0.41079900  0.61785700  0.03970580  1
  N  1173  1  0.43235700  0.55825700  0.90452500  1
  N  1174  1  0.50904800  0.54427400  0.95854300  1
  N  1182  1  0.69041200  0.49991200  0.92201200  1
  N  1189  1  0.79296700  0.35700900  0.02529880  1
  N  1197  1  0.80462300  0.35038100  0.97925900  1
  N  1198  1  0.76025800  0.40524400  0.03996080  1
  N  1199  1  0.73825900  0.46545300  0.90481600  1
  N  1200  1  0.66225400  0.47944500  0.95937400  1
  N  1208  1  0.07889560  0.11983800  0.92416200  1
  N  1215  1  0.93641700  0.22255200  0.02713380  1
  N  1223  1  0.92984700  0.23506700  0.98283600  1
  N  1224  1  0.97817400  0.18160200  0.04110780  1
  N  1225  1  0.04980360  0.17234000  0.90926700  1
  N  1226  1  0.05386660  0.08818410  0.95860100  1
  N  1234  1  0.09210760  0.90360900  0.92403500  1
  N  1241  1  0.23415800  0.80000000  0.02708080  1
  N  1249  1  0.24073900  0.78769100  0.98275600  1
  N  1250  1  0.19237900  0.84086400  0.04115480  1
  N  1251  1  0.12060200  0.85063800  0.90933700  1
  N  1252  1  0.11687200  0.93462600  0.95885500  1
  N  1260  1  0.47861900  0.50456700  0.42568700  1
  N  1267  1  0.37259200  0.36231800  0.52716100  1
  N  1275  1  0.36077600  0.35601500  0.48274500  1
  N  1276  1  0.41299200  0.40442300  0.54157800  1
  N  1277  1  0.42621400  0.47587100  0.40966300  1
  N  1278  1  0.50713400  0.48071500  0.46311000  1
  N  1286  1  0.69462100  0.51685700  0.42512400  1
  N  1293  1  0.79681200  0.66097500  0.52702800  1
  N  1301  1  0.80926900  0.66720400  0.48270200  1
  N  1302  1  0.75616600  0.61901300  0.54117400  1
  N  1303  1  0.74651600  0.54653700  0.40961400  1
  N  1304  1  0.66279200  0.54286900  0.45891700  1
  N  1312  1  0.09668460  0.11713000  0.78115000  1
  N  1319  1  0.23421600  0.22319300  0.67575700  1
  N  1327  1  0.24174500  0.23498200  0.72008600  1
  N  1328  1  0.19242500  0.18222100  0.66194500  1
  N  1329  1  0.13107500  0.16545200  0.79770800  1
  N  1330  1  0.11752700  0.08794810  0.74427500  1
  N  1338  1  0.07410960  0.90618500  0.78097400  1
  N  1345  1  0.93646200  0.79969700  0.67571500  1
  N  1353  1  0.92912700  0.78802800  0.72007300  1
  N  1354  1  0.97834300  0.84047800  0.66175900  1
  N  1355  1  0.04006160  0.85759800  0.79747300  1
  N  1356  1  0.05379260  0.93466200  0.74365700  1
  N  1364  1  0.69061600  0.49976100  0.28142600  1
  N  1371  1  0.79702300  0.36274800  0.17574700  1
  N  1379  1  0.80876000  0.35512000  0.22007400  1
  N  1380  1  0.75601300  0.40449900  0.16192400  1
  N  1381  1  0.73907300  0.46549100  0.29786200  1
  N  1382  1  0.66165500  0.47938200  0.24433600  1
  N  1390  1  0.47980400  0.52288300  0.28091100  1
  N  1397  1  0.37307200  0.66054400  0.17573700  1
  N  1405  1  0.36131300  0.66795200  0.22007300  1
  N  1406  1  0.41385800  0.61865600  0.16178800  1
  N  1407  1  0.43142100  0.55706700  0.29763700  1
  N  1408  1  0.50819100  0.54326800  0.24359600  1
  N  1417  1  0.07736960  0.79217200  0.36708500  1
  N  1418  1  0.10967600  0.80302500  0.32723100  1
  N  1435  1  0.09316960  0.23097000  0.36714300  1
  N  1436  1  0.06112060  0.22029400  0.32714300  1
  N  1453  1  0.80347800  0.50437200  0.86636800  1
  N  1454  1  0.79180500  0.53610600  0.82640400  1
  N  1471  1  0.36608700  0.51904100  0.86711400  1
  N  1472  1  0.37699400  0.48715000  0.82710200  1
  N  1489  1  0.09293460  0.23149900  0.83559200  1
  N  1490  1  0.06127960  0.22083700  0.87577900  1
  N  1507  1  0.07756060  0.79159300  0.83558800  1
  N  1508  1  0.10898900  0.80213400  0.87589400  1
  N  1525  1  0.36648900  0.51849200  0.33633300  1
  N  1526  1  0.37798800  0.48740300  0.37662100  1
  N  1543  1  0.80507100  0.50435200  0.33549900  1
  N  1544  1  0.79440300  0.53562400  0.37583300  1
  N  1561  1  0.33864900  0.73165500  0.26595900  1
  N  1562  1  0.29111600  0.77245400  0.25974800  1
  N  1579  1  0.83171500  0.29156700  0.26596700  1
  N  1580  1  0.87939600  0.25093400  0.25973800  1
  N  1597  1  0.86559500  0.76530800  0.76600200  1
  N  1598  1  0.82503400  0.71752800  0.75985000  1
  N  1615  1  0.30526500  0.25782000  0.76603900  1
  N  1616  1  0.34590100  0.30548700  0.75981500  1
  N  1633  1  0.83144400  0.73100200  0.43683800  1
  N  1634  1  0.87873800  0.77209800  0.44301200  1
  N  1651  1  0.33877500  0.29211900  0.43693500  1
  N  1652  1  0.29143300  0.25106200  0.44310900  1
  N  1669  1  0.30455000  0.76544500  0.93688400  1
  N  1670  1  0.34564900  0.71811700  0.94300100  1
  N  1687  1  0.86603200  0.25754000  0.93700400  1
  N  1688  1  0.82508300  0.30495100  0.94322500  1
  N  1705  1  0.10296500  0.98410600  0.27348700  1
  N  1706  1  0.06338660  0.03817210  0.27284100  1
  N  1723  1  0.60802600  0.52048700  0.78422700  1
  N  1724  1  0.55410400  0.48300300  0.77573000  1
  N  1741  1  0.06747260  0.98418000  0.42984400  1
  N  1742  1  0.10713100  0.03805810  0.43059900  1
  N  1759  1  0.55810400  0.52941600  0.92988700  1
  N  1760  1  0.61206300  0.48986900  0.93064200  1
  N  1777  1  0.06787860  0.03919110  0.92932400  1
  N  1778  1  0.10717900  0.98492300  0.93001700  1
  N  1795  1  0.56237400  0.50330000  0.41841300  1
  N  1796  1  0.61658800  0.54032100  0.42701600  1
  N  1813  1  0.10289000  0.03904010  0.77306100  1
  N  1814  1  0.06354360  0.98494700  0.77230300  1
  N  1831  1  0.61254700  0.49384300  0.27299600  1
  N  1832  1  0.55834700  0.53303700  0.27228000  1
  N  1849  1  0.15405100  0.80093300  0.07850580  1
  N  1850  1  0.15499600  0.80080100  0.12577300  1
  N  1867  1  0.01663760  0.22200000  0.07819680  1
  N  1868  1  0.01544560  0.22257400  0.12545700  1
  N  1885  1  0.79642900  0.57987700  0.57815700  1
  N  1886  1  0.79696500  0.58082200  0.62541000  1
  N  1903  1  0.37382100  0.44312000  0.57867500  1
  N  1904  1  0.37378100  0.44221300  0.62594000  1
  N  1921  1  0.01646660  0.80087100  0.62434900  1
  N  1922  1  0.01550460  0.80059200  0.57707700  1
  N  1939  1  0.15401400  0.22213400  0.62478100  1
  N  1940  1  0.15508900  0.22270600  0.57751600  1
  N  1957  1  0.37435300  0.58045400  0.12435100  1
  N  1958  1  0.37418500  0.58116000  0.07707780  1
  N  1975  1  0.79595100  0.44291100  0.12474600  1
  N  1976  1  0.79657000  0.44180500  0.07748280  1
  O  427  1  0.02399900  0.29204300  0.30116600  1
  O  428  1  0.06144200  0.29455400  0.25452800  1
  O  429  1  0.98275800  0.29212800  0.28579500  1
  O  430  1  0.02221800  0.29221600  0.23657700  1
  O  445  1  0.01185600  0.74394900  0.30118300  1
  O  446  1  0.97473900  0.74166400  0.25435100  1
  O  447  1  0.05318400  0.74363200  0.28594700  1
  O  448  1  0.01411300  0.74374900  0.23656500  1
  O  463  1  0.74282400  0.02495000  0.80031100  1
  O  464  1  0.73935800  0.06181600  0.75345400  1
  O  465  1  0.74286900  0.98354100  0.78518700  1
  O  466  1  0.74173600  0.02240000  0.73573000  1
  O  481  1  0.29259000  0.01124600  0.80115200  1
  O  482  1  0.29521800  0.97416400  0.75440000  1
  O  483  1  0.29198900  0.05262300  0.78597500  1
  O  484  1  0.29213300  0.01347400  0.73660300  1
  O  499  1  0.01141600  0.74428700  0.73465100  1
  O  500  1  0.97470100  0.74199200  0.78164400  1
  O  501  1  0.05288700  0.74431900  0.74966700  1
  O  502  1  0.01420500  0.74450100  0.79923200  1
  O  517  1  0.02450600  0.29145500  0.73469500  1
  O  518  1  0.06091900  0.29358700  0.78186400  1
  O  519  1  0.98295700  0.29173800  0.74958700  1
  O  520  1  0.02126800  0.29142100  0.79929900  1
  O  535  1  0.29266400  0.01042500  0.23552800  1
  O  536  1  0.29593100  0.97427000  0.28272900  1
  O  537  1  0.29244900  0.05205500  0.25030700  1
  O  538  1  0.29333300  0.01395400  0.30009900  1
  O  553  1  0.74378900  0.02518600  0.23459300  1
  O  554  1  0.74143300  0.06157800  0.28167900  1
  O  555  1  0.74455200  0.98359200  0.24942500  1
  O  556  1  0.74474100  0.02200800  0.29912800  1
  O  571  1  0.28568400  0.26231600  0.18238700  1
  O  572  1  0.22879600  0.30455100  0.16853600  1
  O  573  1  0.25767600  0.23513000  0.20070300  1
  O  574  1  0.19857400  0.27798400  0.18560200  1
  O  589  1  0.75013900  0.77363900  0.18237700  1
  O  590  1  0.80718000  0.73161300  0.16849600  1
  O  591  1  0.77804400  0.80090200  0.20071700  1
  O  592  1  0.83730800  0.75824500  0.18560100  1
  O  607  1  0.77394400  0.28592400  0.68234500  1
  O  608  1  0.73202800  0.22880200  0.66857800  1
  O  609  1  0.80119900  0.25814500  0.70079100  1
  O  610  1  0.75862500  0.19870900  0.68573700  1
  O  625  1  0.26227100  0.74994100  0.68244800  1
  O  626  1  0.30429300  0.80695400  0.66857100  1
  O  627  1  0.23500400  0.77784400  0.70078800  1
  O  628  1  0.27768600  0.83710000  0.68567900  1
  O  643  1  0.74962700  0.26156900  0.35346800  1
  O  644  1  0.80627600  0.30419200  0.36721600  1
  O  645  1  0.77781000  0.23458200  0.33513800  1
  O  646  1  0.83669100  0.27775300  0.35024000  1
  O  661  1  0.28596000  0.77432800  0.35366000  1
  O  662  1  0.22925100  0.73179000  0.36740500  1
  O  663  1  0.25787200  0.80123700  0.33519300  1
  O  664  1  0.19889800  0.75812400  0.35028100  1
  O  679  1  0.26142300  0.28633000  0.85350600  1
  O  680  1  0.30404900  0.22963500  0.86720600  1
  O  681  1  0.23440700  0.25818300  0.83517600  1
  O  682  1  0.27759400  0.19925300  0.85022000  1
  O  697  1  0.77449900  0.74949900  0.85362900  1
  O  698  1  0.73206600  0.80628900  0.86746500  1
  O  699  1  0.80157300  0.77761300  0.83531100  1
  O  700  1  0.75857700  0.83659000  0.85044200  1
  O  715  1  0.05494400  0.50564200  0.20029800  1
  O  716  1  0.01520100  0.55193600  0.20371500  1
  O  717  1  0.01495200  0.48282600  0.20299900  1
  O  718  1  0.97572400  0.52906200  0.19811100  1
  O  733  1  0.52457200  0.04286200  0.71312800  1
  O  734  1  0.47716700  0.00567000  0.70776500  1
  O  735  1  0.54886700  0.00341800  0.71060000  1
  O  736  1  0.50141000  0.96770700  0.69998500  1
  O  751  1  0.98031900  0.50550100  0.33648800  1
  O  752  1  0.02098100  0.55095300  0.33233000  1
  O  753  1  0.02076800  0.48375700  0.33302600  1
  O  754  1  0.06076600  0.52918700  0.33892800  1
  O  769  1  0.50573400  0.05578900  0.83669700  1
  O  770  1  0.55125400  0.01522600  0.83246100  1
  O  771  1  0.48416100  0.01530000  0.83293200  1
  O  772  1  0.52961100  0.97531500  0.83884500  1
  O  787  1  0.98128800  0.53054000  0.83546300  1
  O  788  1  0.02076700  0.48400400  0.83215100  1
  O  789  1  0.02138900  0.55320800  0.83295000  1
  O  790  1  0.06031800  0.50673200  0.83784400  1
  O  805  1  0.51109900  0.99379000  0.32242100  1
  O  806  1  0.55887800  0.03045500  0.32800600  1
  O  807  1  0.48697700  0.03329800  0.32525600  1
  O  808  1  0.53479400  0.06851200  0.33584700  1
  O  823  1  0.05549100  0.53061000  0.69947800  1
  O  824  1  0.01511400  0.48490400  0.70360800  1
  O  825  1  0.01492100  0.55214500  0.70290800  1
  O  826  1  0.97520800  0.50647200  0.69703000  1
  O  841  1  0.53042600  0.98013300  0.19921200  1
  O  842  1  0.48463700  0.02037500  0.20347100  1
  O  843  1  0.55174800  0.02075500  0.20301400  1
  O  844  1  0.50603200  0.06044600  0.19715900  1
  O  859  1  0.10073600  0.28327500  0.99841800  1
  O  860  1  0.10684500  0.29283500  0.05335100  1
  O  861  1  0.05938200  0.30356200  0.99923300  1
  O  862  1  0.06586000  0.31405300  0.05455000  1
  O  877  1  0.93535300  0.75248800  0.99794700  1
  O  878  1  0.92893200  0.74341700  0.05292100  1
  O  879  1  0.97666800  0.73214200  0.99898200  1
  O  880  1  0.96990800  0.72220500  0.05431600  1
  O  895  1  0.75337000  0.09996300  0.49793300  1
  O  896  1  0.74443300  0.10614200  0.55289900  1
  O  897  1  0.73256200  0.05887000  0.49889300  1
  O  898  1  0.72255700  0.06550800  0.55423300  1
  O  913  1  0.28229600  0.93581800  0.49860900  1
  O  914  1  0.29195100  0.92962900  0.55357700  1
  O  915  1  0.30310700  0.97691500  0.49939400  1
  O  916  1  0.31360700  0.97038800  0.55466700  1
  O  931  1  0.93522100  0.28316700  0.53752100  1
  O  932  1  0.92907300  0.29255000  0.48256500  1
  O  933  1  0.97652000  0.30356000  0.53666400  1
  O  934  1  0.97000500  0.31386900  0.48133700  1
  O  949  1  0.10059000  0.75266500  0.53804700  1
  O  950  1  0.10692100  0.74359400  0.48307000  1
  O  951  1  0.05933800  0.73218500  0.53707800  1
  O  952  1  0.06598800  0.72228600  0.48173500  1
  O  967  1  0.28289500  0.10065700  0.03745800  1
  O  968  1  0.29241300  0.10652200  0.98244400  1
  O  969  1  0.30347400  0.05944300  0.03673200  1
  O  970  1  0.31388700  0.06566300  0.98145600  1
  O  985  1  0.75283400  0.93549200  0.03803500  1
  O  986  1  0.74380300  0.92910000  0.98302200  1
  O  987  1  0.73221000  0.97667300  0.03703100  1
  O  988  1  0.72239800  0.96998200  0.98171900  1
  O  1419  1  0.09130960  0.78565400  0.38464300  1
  O  1420  1  0.12875300  0.78816500  0.33800500  1
  O  1421  1  0.05006860  0.78573900  0.36927200  1
  O  1422  1  0.08952860  0.78582700  0.32005400  1
  O  1437  1  0.07916660  0.23756000  0.38466000  1
  O  1438  1  0.04204960  0.23527500  0.33782800  1
  O  1439  1  0.12049500  0.23724300  0.36942400  1
  O  1440  1  0.08142360  0.23736000  0.32004200  1
  O  1455  1  0.81013500  0.51856100  0.88378800  1
  O  1456  1  0.80666900  0.55542700  0.83693100  1
  O  1457  1  0.81018000  0.47715200  0.86866400  1
  O  1458  1  0.80904700  0.51601100  0.81920700  1
  O  1473  1  0.35990100  0.50485700  0.88462900  1
  O  1474  1  0.36252900  0.46777500  0.83787700  1
  O  1475  1  0.35930000  0.54623400  0.86945200  1
  O  1476  1  0.35944400  0.50708500  0.82008000  1
  O  1491  1  0.07872660  0.23789800  0.81812800  1
  O  1492  1  0.04201160  0.23560300  0.86512100  1
  O  1493  1  0.12019800  0.23793000  0.83314400  1
  O  1494  1  0.08151560  0.23811200  0.88270900  1
  O  1509  1  0.09181660  0.78506600  0.81817200  1
  O  1510  1  0.12823000  0.78719800  0.86534100  1
  O  1511  1  0.05026760  0.78534900  0.83306400  1
  O  1512  1  0.08857860  0.78503200  0.88277600  1
  O  1527  1  0.35997500  0.50403600  0.31900500  1
  O  1528  1  0.36324200  0.46788100  0.36620600  1
  O  1529  1  0.35976000  0.54566600  0.33378400  1
  O  1530  1  0.36064400  0.50756500  0.38357600  1
  O  1545  1  0.81110000  0.51879700  0.31807000  1
  O  1546  1  0.80874400  0.55518900  0.36515600  1
  O  1547  1  0.81186300  0.47720300  0.33290200  1
  O  1548  1  0.81205200  0.51561900  0.38260500  1
  O  1563  1  0.35299500  0.75592700  0.26586400  1
  O  1564  1  0.29610700  0.79816200  0.25201300  1
  O  1565  1  0.32498700  0.72874100  0.28418000  1
  O  1566  1  0.26588500  0.77159500  0.26907900  1
  O  1581  1  0.81745000  0.26725000  0.26585400  1
  O  1582  1  0.87449100  0.22522400  0.25197300  1
  O  1583  1  0.84535500  0.29451300  0.28419400  1
  O  1584  1  0.90461900  0.25185600  0.26907800  1
  O  1599  1  0.84125500  0.77953500  0.76582200  1
  O  1600  1  0.79933900  0.72241300  0.75205500  1
  O  1601  1  0.86851000  0.75175600  0.78426800  1
  O  1602  1  0.82593600  0.69232000  0.76921400  1
  O  1617  1  0.32958200  0.24355200  0.76592500  1
  O  1618  1  0.37160400  0.30056500  0.75204800  1
  O  1619  1  0.30231500  0.27145500  0.78426500  1
  O  1620  1  0.34499700  0.33071100  0.76915600  1
  O  1635  1  0.81693800  0.75518000  0.43694500  1
  O  1636  1  0.87358700  0.79780300  0.45069300  1
  O  1637  1  0.84512100  0.72819300  0.41861500  1
  O  1638  1  0.90400200  0.77136400  0.43371700  1
  O  1653  1  0.35327100  0.26793900  0.43713700  1
  O  1654  1  0.29656200  0.22540100  0.45088200  1
  O  1655  1  0.32518300  0.29484800  0.41867000  1
  O  1656  1  0.26620900  0.25173500  0.43375800  1
  O  1671  1  0.32873400  0.77994100  0.93698300  1
  O  1672  1  0.37136000  0.72324600  0.95068300  1
  O  1673  1  0.30171800  0.75179400  0.91865300  1
  O  1674  1  0.34490500  0.69286400  0.93369700  1
  O  1689  1  0.84181000  0.24311000  0.93710600  1
  O  1690  1  0.79937700  0.29990000  0.95094200  1
  O  1691  1  0.86888400  0.27122400  0.91878800  1
  O  1692  1  0.82588800  0.33020100  0.93391900  1
  O  1707  1  0.12225500  0.99925300  0.28377500  1
  O  1708  1  0.08251160  0.04554710  0.28719200  1
  O  1709  1  0.08226260  0.97643700  0.28647600  1
  O  1710  1  0.04303460  0.02267310  0.28158800  1
  O  1725  1  0.59188300  0.53647300  0.79660500  1
  O  1726  1  0.54447800  0.49928100  0.79124200  1
  O  1727  1  0.61617800  0.49702900  0.79407700  1
  O  1728  1  0.56872100  0.46131800  0.78346200  1
  O  1743  1  0.04762960  0.99911200  0.41996500  1
  O  1744  1  0.08829160  0.04456410  0.41580700  1
  O  1745  1  0.08807860  0.97736800  0.41650300  1
  O  1746  1  0.12807700  0.02279810  0.42240500  1
  O  1761  1  0.57304500  0.54940000  0.92017400  1
  O  1762  1  0.61856500  0.50883700  0.91593800  1
  O  1763  1  0.55147200  0.50891100  0.91640900  1
  O  1764  1  0.59692200  0.46892600  0.92232200  1
  O  1779  1  0.04859860  0.02415110  0.91894000  1
  O  1780  1  0.08807760  0.97761500  0.91562800  1
  O  1781  1  0.08869960  0.04681910  0.91642700  1
  O  1782  1  0.12762900  0.00034310  0.92132100  1
  O  1797  1  0.57841000  0.48740100  0.40589800  1
  O  1798  1  0.62618900  0.52406600  0.41148300  1
  O  1799  1  0.55428800  0.52690900  0.40873300  1
  O  1800  1  0.60210500  0.56212300  0.41932400  1
  O  1815  1  0.12280200  0.02422110  0.78295500  1
  O  1816  1  0.08242460  0.97851500  0.78708500  1
  O  1817  1  0.08223160  0.04575610  0.78638500  1
  O  1818  1  0.04251860  0.00008310  0.78050700  1
  O  1833  1  0.59773700  0.47374400  0.28268900  1
  O  1834  1  0.55194800  0.51398600  0.28694800  1
  O  1835  1  0.61905900  0.51436600  0.28649100  1
  O  1836  1  0.57334300  0.55405700  0.28063600  1
  O  1851  1  0.16804700  0.77688600  0.08189480  1
  O  1852  1  0.17415600  0.78644600  0.13682800  1
  O  1853  1  0.12669300  0.79717300  0.08270980  1
  O  1854  1  0.13317100  0.80766400  0.13802700  1
  O  1869  1  0.00266360  0.24609900  0.08142380  1
  O  1870  1  0.99624300  0.23702800  0.13639800  1
  O  1871  1  0.04397860  0.22575300  0.08245880  1
  O  1872  1  0.03721860  0.21581600  0.13779300  1
  O  1887  1  0.82068100  0.59357400  0.58141000  1
  O  1888  1  0.81174400  0.59975300  0.63637600  1
  O  1889  1  0.79987300  0.55248100  0.58237000  1
  O  1890  1  0.78986800  0.55911900  0.63771000  1
  O  1905  1  0.34960700  0.42942900  0.58208600  1
  O  1906  1  0.35926200  0.42324000  0.63705400  1
  O  1907  1  0.37041800  0.47052600  0.58287100  1
  O  1908  1  0.38091800  0.46399900  0.63814400  1
  O  1923  1  0.00253160  0.77677800  0.62099800  1
  O  1924  1  0.99638400  0.78616100  0.56604200  1
  O  1925  1  0.04383060  0.79717100  0.62014100  1
  O  1926  1  0.03731560  0.80748000  0.56481400  1
  O  1941  1  0.16790100  0.24627600  0.62152400  1
  O  1942  1  0.17423200  0.23720500  0.56654700  1
  O  1943  1  0.12664900  0.22579600  0.62055500  1
  O  1944  1  0.13329900  0.21589700  0.56521200  1
  O  1959  1  0.35020600  0.59426800  0.12093500  1
  O  1960  1  0.35972400  0.60013300  0.06592080  1
  O  1961  1  0.37078500  0.55305400  0.12020900  1
  O  1962  1  0.38119800  0.55927400  0.06493280  1
  O  1977  1  0.82014500  0.42910300  0.12151200  1
  O  1978  1  0.81111400  0.42271100  0.06649880  1
  O  1979  1  0.79952100  0.47028400  0.12050800  1
  O  1980  1  0.78970900  0.46359300  0.06519580  1
