# generated using pymatgen
data_Si(H4C5)8
_symmetry_space_group_name_H-M   'P 1'
_cell_length_a   43.12110000
_cell_length_b   46.59810000
_cell_length_c   46.59810000
_cell_angle_alpha   90.00000000
_cell_angle_beta   90.00000000
_cell_angle_gamma   90.02010000
_symmetry_Int_Tables_number   1
_chemical_formula_structural   Si(H4C5)8
_chemical_formula_sum   'Si16 H512 C640'
_cell_volume   93632.41442568
_cell_formula_units_Z   16
loop_
 _symmetry_equiv_pos_site_id
 _symmetry_equiv_pos_as_xyz
  1  'x, y, z'
loop_
 _atom_site_type_symbol
 _atom_site_label
 _atom_site_symmetry_multiplicity
 _atom_site_fract_x
 _atom_site_fract_y
 _atom_site_fract_z
 _atom_site_occupancy
  Si  7  1  0.16325900  0.15108800  0.15502600  1
  Si  48  1  0.16294300  0.84626700  0.84227000  1
  Si  89  1  0.83423900  0.84632800  0.15492500  1
  Si  130  1  0.83396300  0.15115800  0.84214300  1
  Si  171  1  0.83535000  0.15476400  0.15036900  1
  Si  212  1  0.83505300  0.84267800  0.84666700  1
  Si  253  1  0.16183500  0.15473600  0.84681000  1
  Si  294  1  0.16213200  0.84262700  0.15050700  1
  Si  335  1  0.66142800  0.65187800  0.65579200  1
  Si  376  1  0.66173900  0.34546200  0.34124100  1
  Si  417  1  0.33546500  0.34551500  0.65593200  1
  Si  458  1  0.33579400  0.65195500  0.34136800  1
  Si  499  1  0.33523300  0.65477600  0.65113500  1
  Si  540  1  0.33552000  0.34268700  0.34618800  1
  Si  581  1  0.66193800  0.65472200  0.34604400  1
  Si  622  1  0.66166500  0.34263000  0.65097200  1
  H  26  1  0.14793500  0.05266400  0.13128400  1
  H  27  1  0.13590900  0.10243900  0.12949700  1
  H  28  1  0.22333300  0.06974400  0.18647500  1
  H  29  1  0.21211900  0.11967300  0.18437900  1
  H  30  1  0.21904100  0.15008700  0.12300200  1
  H  31  1  0.22994300  0.15798800  0.07342100  1
  H  32  1  0.13490500  0.17285200  0.05773700  1
  H  33  1  0.12357400  0.16450900  0.10672600  1
  H  34  1  0.12954500  0.20294800  0.15166500  1
  H  35  1  0.07721300  0.21492200  0.16243900  1
  H  36  1  0.06145100  0.13054300  0.19196100  1
  H  37  1  0.11375400  0.11836800  0.18186500  1
  H  38  1  0.17050500  0.14948400  0.21521000  1
  H  39  1  0.19977200  0.20233600  0.14618200  1
  H  40  1  0.22476300  0.23337200  0.17919000  1
  H  41  1  0.19590000  0.18085200  0.24805700  1
  H  67  1  0.14765300  0.94466500  0.86608600  1
  H  68  1  0.13564200  0.89488200  0.86786700  1
  H  69  1  0.22297600  0.92767200  0.81079600  1
  H  70  1  0.21177700  0.87773200  0.81288600  1
  H  71  1  0.21875300  0.84726800  0.87424700  1
  H  72  1  0.22970800  0.83934000  0.92380900  1
  H  73  1  0.13468600  0.82440300  0.93957200  1
  H  74  1  0.12330500  0.83276600  0.89059300  1
  H  75  1  0.12916300  0.79441500  0.84561700  1
  H  76  1  0.07682200  0.78245900  0.83480400  1
  H  77  1  0.06117800  0.86685500  0.80530000  1
  H  78  1  0.11348500  0.87901200  0.81544000  1
  H  79  1  0.17014700  0.84790400  0.78207800  1
  H  80  1  0.19944200  0.79501900  0.85104900  1
  H  81  1  0.22443500  0.76403700  0.81801100  1
  H  82  1  0.19554200  0.81659200  0.74919700  1
  H  108  1  0.84951500  0.94475100  0.13114500  1
  H  109  1  0.86155100  0.89497800  0.12936100  1
  H  110  1  0.77417300  0.92767000  0.18640200  1
  H  111  1  0.78539500  0.87774500  0.18430900  1
  H  112  1  0.77844100  0.84733100  0.12293200  1
  H  113  1  0.76749700  0.83940700  0.07336500  1
  H  114  1  0.86251500  0.82449300  0.05762600  1
  H  115  1  0.87388600  0.83285500  0.10660500  1
  H  116  1  0.86798100  0.79448100  0.15157900  1
  H  117  1  0.92030800  0.78252100  0.16239700  1
  H  118  1  0.93602900  0.86692000  0.19187900  1
  H  119  1  0.88373200  0.87908200  0.18173900  1
  H  120  1  0.82703600  0.84793300  0.21511600  1
  H  121  1  0.79771400  0.79507800  0.14611800  1
  H  122  1  0.77271900  0.76406400  0.17914100  1
  H  123  1  0.80163800  0.81659100  0.24798200  1
  H  149  1  0.84929500  0.05275400  0.86592700  1
  H  150  1  0.86130000  0.10253900  0.86770600  1
  H  151  1  0.77391600  0.06974900  0.81070400  1
  H  152  1  0.78511000  0.11968800  0.81279200  1
  H  153  1  0.77819500  0.15011400  0.87419600  1
  H  154  1  0.76731100  0.15804200  0.92377500  1
  H  155  1  0.86235100  0.17302900  0.93940600  1
  H  156  1  0.87366100  0.16466200  0.89042000  1
  H  157  1  0.86768900  0.20304000  0.84544800  1
  H  158  1  0.92003300  0.21502200  0.83466800  1
  H  159  1  0.93576500  0.13061800  0.80523600  1
  H  160  1  0.88345900  0.11843400  0.81533700  1
  H  161  1  0.82668800  0.14954700  0.78195200  1
  H  162  1  0.79744300  0.20237000  0.85098900  1
  H  163  1  0.77239900  0.23336500  0.81799800  1
  H  164  1  0.80123900  0.18087600  0.74911800  1
  H  190  1  0.86316700  0.17489100  0.05250500  1
  H  191  1  0.87480600  0.16783000  0.10167500  1
  H  192  1  0.76849900  0.15861500  0.06876500  1
  H  193  1  0.77969500  0.15192000  0.11841700  1
  H  194  1  0.78734600  0.12476900  0.18256400  1
  H  195  1  0.77548100  0.07500900  0.18629600  1
  H  196  1  0.84801400  0.05566300  0.12862600  1
  H  197  1  0.86073000  0.10516700  0.12521800  1
  H  198  1  0.88342900  0.12139700  0.17838600  1
  H  199  1  0.93557000  0.13257700  0.18983100  1
  H  200  1  0.92324200  0.21666000  0.15817200  1
  H  201  1  0.87092000  0.20564600  0.14605400  1
  H  202  1  0.79755000  0.20495800  0.13934800  1
  H  203  1  0.82976600  0.15683200  0.21067300  1
  H  204  1  0.80472700  0.18976400  0.24214900  1
  H  205  1  0.77224600  0.23713400  0.17098800  1
  H  231  1  0.86307000  0.82259000  0.94448400  1
  H  232  1  0.87460500  0.82964500  0.89529500  1
  H  233  1  0.76837800  0.83886900  0.92840200  1
  H  234  1  0.77947300  0.84555700  0.87872600  1
  H  235  1  0.78702100  0.87268500  0.81455000  1
  H  236  1  0.77520100  0.92244500  0.81083500  1
  H  237  1  0.84788200  0.94178300  0.86836100  1
  H  238  1  0.86055400  0.89227400  0.87175100  1
  H  239  1  0.88316400  0.87600200  0.81859700  1
  H  240  1  0.93529200  0.86479300  0.80716700  1
  H  241  1  0.92283900  0.78071900  0.83883600  1
  H  242  1  0.87053000  0.79176300  0.85093700  1
  H  243  1  0.79720600  0.79251600  0.85776800  1
  H  244  1  0.82935100  0.84059700  0.78636800  1
  H  245  1  0.80422600  0.80764900  0.75494600  1
  H  246  1  0.77181500  0.76033000  0.82618300  1
  H  272  1  0.13408400  0.17484100  0.94469000  1
  H  273  1  0.12241500  0.16779500  0.89552300  1
  H  274  1  0.22872400  0.15852300  0.92839300  1
  H  275  1  0.21749700  0.15184500  0.87874300  1
  H  276  1  0.20979900  0.12473100  0.81460700  1
  H  277  1  0.22162600  0.07497200  0.81088600  1
  H  278  1  0.14906200  0.05563300  0.86854100  1
  H  279  1  0.13638500  0.10513900  0.87194000  1
  H  280  1  0.11367700  0.12141000  0.81881800  1
  H  281  1  0.06156600  0.13265100  0.80735800  1
  H  282  1  0.07407200  0.21673200  0.83899000  1
  H  283  1  0.12636900  0.20565200  0.85112600  1
  H  284  1  0.19967600  0.20491500  0.85783200  1
  H  285  1  0.16741200  0.15680600  0.78649900  1
  H  286  1  0.19247200  0.18974700  0.75502800  1
  H  287  1  0.22500200  0.23709500  0.82619800  1
  H  313  1  0.13415400  0.82250300  0.05268200  1
  H  314  1  0.12259800  0.82956400  0.10186700  1
  H  315  1  0.22884600  0.83880500  0.06880100  1
  H  316  1  0.21773200  0.84549700  0.11847100  1
  H  317  1  0.21015300  0.87264400  0.18265400  1
  H  318  1  0.22199600  0.92240700  0.18637900  1
  H  319  1  0.14938100  0.94173000  0.12879100  1
  H  320  1  0.13668700  0.89221900  0.12538900  1
  H  321  1  0.11403700  0.87597300  0.17853300  1
  H  322  1  0.06190100  0.86477100  0.18996700  1
  H  323  1  0.07429600  0.78066900  0.15837500  1
  H  324  1  0.12662000  0.79170800  0.14626400  1
  H  325  1  0.19994900  0.79246600  0.13943000  1
  H  326  1  0.16780600  0.84055600  0.21081000  1
  H  327  1  0.19290300  0.80762000  0.24224600  1
  H  328  1  0.22531300  0.76029200  0.17102700  1
  H  354  1  0.64480300  0.55340100  0.63305300  1
  H  355  1  0.63326600  0.60325100  0.63099900  1
  H  356  1  0.72016000  0.57010200  0.68840300  1
  H  357  1  0.70948400  0.62007700  0.68602100  1
  H  358  1  0.71609100  0.64708000  0.62251800  1
  H  359  1  0.72630400  0.65389100  0.57269900  1
  H  360  1  0.63207400  0.67395100  0.55873000  1
  H  361  1  0.62139400  0.66680100  0.60803300  1
  H  362  1  0.62876200  0.70439300  0.65279000  1
  H  363  1  0.57661600  0.71713800  0.66369400  1
  H  364  1  0.55963800  0.63310200  0.69359200  1
  H  365  1  0.61161300  0.62015200  0.68327600  1
  H  366  1  0.66825500  0.65302600  0.71601300  1
  H  367  1  0.70253600  0.69988300  0.64465900  1
  H  368  1  0.73346300  0.72797700  0.67595600  1
  H  369  1  0.69897800  0.68193900  0.74720400  1
  H  395  1  0.64515300  0.44394600  0.36394400  1
  H  396  1  0.63360700  0.39409300  0.36602300  1
  H  397  1  0.72049700  0.42725500  0.30859200  1
  H  398  1  0.70981300  0.37727800  0.31100200  1
  H  399  1  0.71634600  0.35030000  0.37459600  1
  H  400  1  0.72648200  0.34347900  0.42442900  1
  H  401  1  0.63222900  0.32334900  0.43826000  1
  H  402  1  0.62163100  0.33051300  0.38895100  1
  H  403  1  0.62904700  0.29293900  0.34419000  1
  H  404  1  0.57687100  0.28021300  0.33333333  1
  H  405  1  0.55995100  0.36426700  0.30348600  1
  H  406  1  0.61195600  0.37719400  0.31374900  1
  H  407  1  0.66864000  0.34427600  0.28102600  1
  H  408  1  0.70284400  0.29749300  0.35244500  1
  H  409  1  0.73384100  0.26942500  0.32120400  1
  H  410  1  0.69942800  0.31538600  0.24989000  1
  H  436  1  0.35213600  0.44399500  0.63321800  1
  H  437  1  0.36365300  0.39414200  0.63116000  1
  H  438  1  0.27674400  0.42731300  0.68853000  1
  H  439  1  0.28740200  0.37733600  0.68614500  1
  H  440  1  0.28086700  0.35036000  0.62256600  1
  H  441  1  0.27073500  0.34353900  0.57273300  1
  H  442  1  0.36497000  0.32339100  0.55891900  1
  H  443  1  0.37556600  0.33055600  0.60822800  1
  H  444  1  0.36809100  0.29297900  0.65299600  1
  H  445  1  0.42024900  0.28023600  0.66385300  1
  H  446  1  0.43727800  0.36428700  0.69367600  1
  H  447  1  0.38529200  0.37723900  0.68341100  1
  H  448  1  0.32856800  0.34433100  0.71614700  1
  H  449  1  0.29431800  0.29755200  0.64472900  1
  H  450  1  0.26331400  0.26947400  0.67597500  1
  H  451  1  0.29777100  0.31543100  0.74728700  1
  H  477  1  0.35244700  0.55349300  0.36411300  1
  H  478  1  0.36396100  0.60335200  0.36616900  1
  H  479  1  0.27708300  0.57011700  0.30876800  1
  H  480  1  0.28773600  0.62010300  0.31115200  1
  H  481  1  0.28115200  0.64710800  0.37467400  1
  H  482  1  0.27096300  0.65393800  0.42449300  1
  H  483  1  0.36519000  0.67411100  0.43840400  1
  H  484  1  0.37584400  0.66694300  0.38910300  1
  H  485  1  0.36846500  0.70449300  0.34432900  1
  H  486  1  0.42061300  0.71725900  0.33341200  1
  H  487  1  0.43757500  0.63321400  0.30356600  1
  H  488  1  0.38560300  0.62024200  0.31389200  1
  H  489  1  0.32893000  0.65310100  0.28114600  1
  H  490  1  0.29468000  0.69992200  0.35252000  1
  H  491  1  0.26370900  0.72797700  0.32124700  1
  H  492  1  0.29816500  0.68198000  0.24997600  1
  H  518  1  0.36588600  0.67341600  0.55367900  1
  H  519  1  0.37612700  0.66721900  0.60328800  1
  H  520  1  0.27090500  0.65665900  0.56780800  1
  H  521  1  0.28066800  0.65083800  0.61780800  1
  H  522  1  0.28557300  0.62411100  0.68043000  1
  H  523  1  0.27489100  0.57418900  0.68444600  1
  H  524  1  0.35223600  0.55561500  0.63213900  1
  H  525  1  0.36376600  0.60536500  0.62852700  1
  H  526  1  0.38295900  0.62326700  0.68168200  1
  H  527  1  0.43479200  0.63542800  0.69331700  1
  H  528  1  0.42168500  0.71833100  0.65894700  1
  H  529  1  0.36971500  0.70627300  0.64654900  1
  H  530  1  0.29807500  0.70488400  0.63816100  1
  H  531  1  0.32512900  0.65632000  0.71098100  1
  H  532  1  0.29421300  0.68658400  0.74060900  1
  H  533  1  0.26743100  0.73482000  0.66800700  1
  H  559  1  0.36592800  0.32405900  0.44370900  1
  H  560  1  0.37629400  0.33025500  0.39411700  1
  H  561  1  0.27099000  0.34080300  0.42938000  1
  H  562  1  0.28088100  0.34662200  0.37939900  1
  H  563  1  0.28590900  0.37333700  0.31684300  1
  H  564  1  0.27524600  0.42325400  0.31282800  1
  H  565  1  0.35254700  0.44185100  0.36520300  1
  H  566  1  0.36405600  0.39210200  0.36881500  1
  H  567  1  0.38328600  0.37419100  0.31566300  1
  H  568  1  0.43509100  0.36201200  0.30399700  1
  H  569  1  0.42193500  0.27913300  0.33843200  1
  H  570  1  0.36998800  0.29120900  0.35085500  1
  H  571  1  0.29835100  0.29255100  0.35909400  1
  H  572  1  0.32550000  0.34116200  0.28632300  1
  H  573  1  0.29460500  0.31090000  0.25665000  1
  H  574  1  0.26773000  0.26261900  0.32920400  1
  H  600  1  0.63136900  0.67334100  0.44352200  1
  H  601  1  0.62109100  0.66715300  0.39391700  1
  H  602  1  0.72632200  0.65655800  0.42933900  1
  H  603  1  0.71652000  0.65074600  0.37934100  1
  H  604  1  0.71158200  0.62407100  0.31675300  1
  H  605  1  0.72224500  0.57415600  0.31273800  1
  H  606  1  0.64486100  0.55554900  0.36500200  1
  H  607  1  0.63335100  0.60529800  0.36861600  1
  H  608  1  0.61412600  0.62324800  0.31554000  1
  H  609  1  0.56232800  0.63547600  0.30389000  1
  H  610  1  0.57562800  0.71838300  0.33821300  1
  H  611  1  0.62756800  0.70625100  0.35063000  1
  H  612  1  0.69915500  0.70481500  0.35901200  1
  H  613  1  0.67200300  0.65628300  0.28619200  1
  H  614  1  0.70293000  0.68655200  0.25655500  1
  H  615  1  0.72981000  0.73475500  0.32915900  1
  H  641  1  0.63129900  0.32397100  0.55344300  1
  H  642  1  0.62091200  0.33016300  0.60302800  1
  H  643  1  0.72623400  0.34074900  0.56780800  1
  H  644  1  0.71632200  0.34656600  0.61778400  1
  H  645  1  0.71127400  0.37329300  0.68033600  1
  H  646  1  0.72195500  0.42321500  0.68435800  1
  H  647  1  0.64470300  0.44179100  0.63193500  1
  H  648  1  0.63317300  0.39203900  0.62831300  1
  H  649  1  0.61390400  0.37415200  0.68145000  1
  H  650  1  0.56208700  0.36197400  0.69311600  1
  H  651  1  0.57521300  0.27905600  0.65877300  1
  H  652  1  0.62717800  0.29113800  0.64634500  1
  H  653  1  0.69881600  0.29250000  0.63808800  1
  H  654  1  0.67164400  0.34110500  0.71084400  1
  H  655  1  0.70251700  0.31085800  0.74053400  1
  H  656  1  0.72941600  0.26258600  0.66799000  1
  H  662  1  0.29926700  0.24567100  0.25607700  1
  H  663  1  0.27197800  0.21408000  0.22516600  1
  H  666  1  0.22340400  0.30353100  0.30241100  1
  H  667  1  0.19318200  0.27844300  0.30413700  1
  H  668  1  0.19528800  0.30355600  0.27550700  1
  H  670  1  0.16476200  0.23568700  0.23596900  1
  H  671  1  0.16806800  0.27201600  0.24444500  1
  H  672  1  0.16493600  0.24595600  0.27213500  1
  H  678  1  0.29891900  0.75183100  0.74112200  1
  H  679  1  0.27163700  0.78340900  0.77202900  1
  H  682  1  0.22305000  0.69391500  0.69480900  1
  H  683  1  0.19282500  0.71897700  0.69308500  1
  H  684  1  0.19494300  0.69387000  0.72172200  1
  H  686  1  0.16441900  0.76173400  0.76124500  1
  H  687  1  0.16772500  0.72540300  0.75278300  1
  H  688  1  0.16458700  0.75145000  0.72508200  1
  H  694  1  0.69825900  0.75177400  0.25606000  1
  H  695  1  0.72552700  0.78337800  0.22514800  1
  H  698  1  0.77415000  0.69389000  0.30232300  1
  H  699  1  0.80437400  0.71897400  0.30404400  1
  H  700  1  0.80224600  0.69387600  0.27540200  1
  H  702  1  0.83275000  0.76177100  0.23588700  1
  H  703  1  0.82945000  0.72543500  0.24434000  1
  H  704  1  0.83259700  0.75147800  0.27204500  1
  H  710  1  0.69787000  0.24562500  0.74112200  1
  H  711  1  0.72515800  0.21405000  0.77202900  1
  H  714  1  0.77372800  0.30354000  0.69478700  1
  H  715  1  0.80394800  0.27846700  0.69305100  1
  H  716  1  0.80184900  0.30357500  0.72168700  1
  H  718  1  0.83237700  0.23572200  0.76121300  1
  H  719  1  0.82907000  0.27204800  0.75274000  1
  H  720  1  0.83219600  0.24599500  0.72504800  1
  H  726  1  0.70691200  0.23827500  0.26762900  1
  H  727  1  0.73487500  0.20699400  0.23690400  1
  H  730  1  0.76476000  0.32501900  0.27290800  1
  H  731  1  0.78120700  0.32466100  0.23853700  1
  H  732  1  0.80188600  0.31076000  0.26844800  1
  H  734  1  0.82543800  0.25740300  0.20774800  1
  H  735  1  0.83014600  0.27934300  0.23777300  1
  H  736  1  0.81013000  0.29224500  0.20704100  1
  H  742  1  0.70639900  0.75904300  0.72957600  1
  H  743  1  0.73433900  0.79035600  0.76030900  1
  H  746  1  0.76436900  0.67241000  0.72420700  1
  H  747  1  0.78084800  0.67277800  0.75856200  1
  H  748  1  0.80147800  0.68674000  0.72864700  1
  H  750  1  0.82499300  0.74009300  0.78938100  1
  H  751  1  0.82971700  0.71819300  0.75933100  1
  H  752  1  0.80973800  0.70522200  0.79005900  1
  H  758  1  0.29028000  0.23832700  0.72952000  1
  H  759  1  0.26234000  0.20701200  0.76024900  1
  H  762  1  0.23241800  0.32502800  0.72431200  1
  H  763  1  0.21599400  0.32464500  0.75869100  1
  H  764  1  0.19529600  0.31074100  0.72878900  1
  H  766  1  0.17179700  0.25734300  0.78948400  1
  H  767  1  0.16706000  0.27928900  0.75947000  1
  H  768  1  0.18710000  0.29219500  0.79019200  1
  H  774  1  0.29071600  0.75908400  0.26764400  1
  H  775  1  0.26276500  0.79037200  0.23691700  1
  H  778  1  0.23279800  0.67238300  0.27297700  1
  H  779  1  0.21632700  0.67274100  0.23861700  1
  H  780  1  0.19568000  0.68667000  0.26853200  1
  H  782  1  0.17214600  0.74001700  0.20781600  1
  H  783  1  0.16743000  0.71810000  0.23785700  1
  H  784  1  0.18742200  0.70516400  0.20712400  1
  H  790  1  0.16356400  0.02161000  0.19677800  1
  H  791  1  0.16381000  0.97071600  0.19638700  1
  H  794  1  0.22661900  0.05181900  0.11899300  1
  H  795  1  0.21909300  0.02330500  0.09542900  1
  H  796  1  0.25255600  0.02304700  0.11768600  1
  H  798  1  0.22777600  0.94226800  0.11865800  1
  H  799  1  0.25297400  0.97159700  0.11734600  1
  H  800  1  0.21944800  0.97069400  0.09518400  1
  H  806  1  0.16320300  0.97573100  0.80055800  1
  H  807  1  0.16343600  0.02662700  0.80093700  1
  H  810  1  0.22633800  0.94559600  0.87830300  1
  H  811  1  0.21882900  0.97410800  0.90186800  1
  H  812  1  0.25226900  0.97439100  0.87958000  1
  H  814  1  0.22746000  0.05514800  0.87861400  1
  H  815  1  0.25266800  0.02584300  0.87991100  1
  H  816  1  0.21916500  0.02671900  0.90210000  1
  H  822  1  0.83388200  0.97581200  0.19667700  1
  H  823  1  0.83360800  0.02670600  0.19628300  1
  H  826  1  0.77086000  0.94557100  0.11887700  1
  H  827  1  0.77837100  0.97409000  0.09531300  1
  H  828  1  0.74490700  0.97433200  0.11757000  1
  H  830  1  0.76964200  0.05512300  0.11854500  1
  H  831  1  0.74446600  0.02578100  0.11722500  1
  H  832  1  0.77799500  0.02670500  0.09506800  1
  H  838  1  0.83368500  0.02167700  0.80041600  1
  H  839  1  0.83343500  0.97078100  0.80080000  1
  H  842  1  0.77061800  0.05183600  0.87820000  1
  H  843  1  0.77813700  0.02332400  0.90176300  1
  H  844  1  0.74468200  0.02304800  0.87949800  1
  H  846  1  0.76946800  0.94228500  0.87852600  1
  H  847  1  0.74426700  0.97159400  0.87983500  1
  H  848  1  0.77778900  0.97071400  0.90200200  1
  H  854  1  0.19685300  0.12583000  0.02603700  1
  H  855  1  0.19631500  0.12628200  0.97523000  1
  H  858  1  0.18290000  0.22212200  0.05636400  1
  H  859  1  0.15853100  0.23383300  0.02850500  1
  H  860  1  0.19919000  0.23991300  0.02709100  1
  H  862  1  0.18210500  0.22316200  0.94688500  1
  H  863  1  0.19885500  0.24035300  0.97628600  1
  H  864  1  0.15816400  0.23438300  0.97526400  1
  H  870  1  0.80037200  0.12594000  0.97112200  1
  H  871  1  0.80089400  0.12636500  0.02192900  1
  H  874  1  0.81442800  0.22224100  0.94084200  1
  H  875  1  0.83879800  0.23393800  0.96871400  1
  H  876  1  0.79814300  0.24001800  0.97012000  1
  H  878  1  0.81519800  0.22323100  0.05032300  1
  H  879  1  0.79847500  0.24044000  0.02092600  1
  H  880  1  0.83915800  0.23446000  0.02195500  1
  H  886  1  0.19674500  0.87146800  0.97120200  1
  H  887  1  0.19636300  0.87103400  0.02200800  1
  H  890  1  0.18256500  0.77517400  0.94094300  1
  H  891  1  0.15827700  0.76348100  0.96887800  1
  H  892  1  0.19893400  0.75738900  0.97017600  1
  H  894  1  0.18212700  0.77417400  0.05042400  1
  H  895  1  0.19874600  0.75695700  0.02098100  1
  H  896  1  0.15806800  0.76295900  0.02212000  1
  H  902  1  0.80050400  0.87154300  0.02598000  1
  H  903  1  0.80090100  0.87111000  0.97517200  1
  H  906  1  0.81460200  0.77525000  0.05624600  1
  H  907  1  0.83888900  0.76355400  0.02831900  1
  H  908  1  0.79822700  0.75746700  0.02701000  1
  H  910  1  0.81507700  0.77424000  0.94676500  1
  H  911  1  0.79842400  0.75703400  0.97620400  1
  H  912  1  0.83910900  0.76302400  0.97508000  1
  H  918  1  0.02797100  0.18197600  0.13535100  1
  H  919  1  0.97331500  0.18287500  0.13404900  1
  H  922  1  0.05708900  0.17861300  0.23337200  1
  H  923  1  0.02583100  0.15835300  0.24663000  1
  H  924  1  0.02542300  0.19644700  0.24836800  1
  H  926  1  0.93876100  0.18107200  0.23057400  1
  H  927  1  0.97043700  0.19749100  0.24709100  1
  H  928  1  0.96816900  0.15945600  0.24524600  1
  H  934  1  0.96961200  0.81542900  0.13536000  1
  H  935  1  0.02426800  0.81445900  0.13415900  1
  H  938  1  0.94029200  0.81889400  0.23333100  1
  H  939  1  0.97155000  0.83912300  0.24663000  1
  H  940  1  0.97190300  0.80103000  0.24839200  1
  H  942  1  0.05862400  0.81630700  0.23073700  1
  H  943  1  0.02689200  0.79993800  0.24721800  1
  H  944  1  0.02921400  0.83797000  0.24533800  1
  H  950  1  0.96925900  0.18210000  0.86180300  1
  H  951  1  0.02391700  0.18300300  0.86310300  1
  H  954  1  0.94014300  0.17865700  0.76377900  1
  H  955  1  0.97138300  0.15838000  0.75054500  1
  H  956  1  0.97182600  0.19647300  0.74876600  1
  H  958  1  0.05847400  0.18111100  0.76658600  1
  H  959  1  0.02681200  0.19751200  0.75004700  1
  H  960  1  0.02904900  0.15948000  0.75193500  1
  H  966  1  0.02754000  0.81539100  0.86183500  1
  H  967  1  0.97288100  0.81447900  0.86302400  1
  H  970  1  0.05688800  0.81877600  0.76387200  1
  H  971  1  0.02567200  0.83903100  0.75055300  1
  H  972  1  0.02524700  0.80093500  0.74881300  1
  H  974  1  0.93855200  0.81630100  0.76643600  1
  H  975  1  0.97025900  0.79988800  0.74998000  1
  H  976  1  0.96800900  0.83792300  0.75182600  1
  H  982  1  0.65895400  0.52165300  0.69739300  1
  H  983  1  0.65937800  0.47076900  0.69640500  1
  H  986  1  0.72501000  0.55292700  0.62218400  1
  H  987  1  0.71823600  0.52481800  0.59796400  1
  H  988  1  0.75090400  0.52410800  0.62120100  1
  H  990  1  0.72568000  0.44341600  0.61986600  1
  H  991  1  0.75123100  0.47253500  0.62007800  1
  H  992  1  0.71852600  0.47244900  0.59687600  1
  H  998  1  0.65927600  0.47565800  0.29961300  1
  H  999  1  0.65961500  0.52654200  0.30061900  1
  H  1002  1  0.72538300  0.44448700  0.37479800  1
  H  1003  1  0.71852100  0.47255200  0.39904400  1
  H  1004  1  0.75121000  0.47337200  0.37583500  1
  H  1006  1  0.72582800  0.55399600  0.37721000  1
  H  1007  1  0.75144700  0.52494300  0.37697000  1
  H  1008  1  0.71873400  0.52492200  0.40016600  1
  H  1014  1  0.33796500  0.47575300  0.69753800  1
  H  1015  1  0.33752200  0.52663900  0.69656000  1
  H  1018  1  0.27192000  0.44447300  0.62232100  1
  H  1019  1  0.27867600  0.47258800  0.59810500  1
  H  1020  1  0.24601400  0.47328100  0.62134900  1
  H  1022  1  0.27121800  0.55398100  0.62001600  1
  H  1023  1  0.24567300  0.52485800  0.62022600  1
  H  1024  1  0.27837900  0.52495200  0.59702400  1
  H  1030  1  0.33830100  0.52172100  0.29977600  1
  H  1031  1  0.33786500  0.47083400  0.30075700  1
  H  1034  1  0.27224300  0.55295600  0.37498300  1
  H  1035  1  0.27900000  0.52484700  0.39920000  1
  H  1036  1  0.24633900  0.52412400  0.37595500  1
  H  1038  1  0.27155200  0.44344500  0.37729200  1
  H  1039  1  0.24600500  0.47254900  0.37707700  1
  H  1040  1  0.27870600  0.47248100  0.40028400  1
  H  1046  1  0.69110500  0.62353200  0.52617500  1
  H  1047  1  0.69080800  0.62388200  0.47534300  1
  H  1050  1  0.68217000  0.72046900  0.55619400  1
  H  1051  1  0.65826700  0.73312700  0.52840500  1
  H  1052  1  0.69918500  0.73738900  0.52676800  1
  H  1054  1  0.68074600  0.72117200  0.44672800  1
  H  1055  1  0.69861600  0.73771300  0.47594800  1
  H  1056  1  0.65766700  0.73346600  0.47524400  1
  H  1062  1  0.30615200  0.62363300  0.47098900  1
  H  1063  1  0.30643200  0.62397000  0.52182100  1
  H  1066  1  0.31515200  0.72057500  0.44099200  1
  H  1067  1  0.33905000  0.73323100  0.46879100  1
  H  1068  1  0.29813500  0.73748200  0.47041800  1
  H  1070  1  0.31654800  0.72125600  0.55046000  1
  H  1071  1  0.29869600  0.73780200  0.52123700  1
  H  1072  1  0.33964400  0.73355800  0.52195200  1
  H  1078  1  0.69120900  0.37379700  0.47091600  1
  H  1079  1  0.69081800  0.37343900  0.52174600  1
  H  1082  1  0.68231100  0.27686600  0.44086300  1
  H  1083  1  0.65835500  0.26419400  0.46861300  1
  H  1084  1  0.69926800  0.25994800  0.47031300  1
  H  1086  1  0.68068100  0.27614200  0.55032700  1
  H  1087  1  0.69859800  0.25961100  0.52113200  1
  H  1088  1  0.65765000  0.26384400  0.52177400  1
  H  1094  1  0.30604300  0.37385200  0.52626100  1
  H  1095  1  0.30644900  0.37350500  0.47542900  1
  H  1098  1  0.31485100  0.27691400  0.55629700  1
  H  1099  1  0.33880600  0.26424500  0.52855100  1
  H  1100  1  0.29788900  0.26000400  0.52683600  1
  H  1102  1  0.31652500  0.27620800  0.44683300  1
  H  1103  1  0.29857600  0.25967600  0.47601700  1
  H  1104  1  0.33952800  0.26390200  0.47539400  1
  H  1110  1  0.52656400  0.68444900  0.63694600  1
  H  1111  1  0.47190800  0.68522800  0.63593300  1
  H  1114  1  0.55629900  0.68170600  0.73480800  1
  H  1115  1  0.52509100  0.66156400  0.74835200  1
  H  1116  1  0.52476200  0.69966800  0.74988600  1
  H  1118  1  0.43796700  0.68443800  0.73264700  1
  H  1119  1  0.46981200  0.70086100  0.74886200  1
  H  1120  1  0.46738200  0.66282000  0.74733200  1
  H  1126  1  0.47021300  0.31292500  0.63698200  1
  H  1127  1  0.52486400  0.31214400  0.63584100  1
  H  1130  1  0.44075000  0.31572000  0.73491300  1
  H  1131  1  0.47199600  0.33586600  0.74837100  1
  H  1132  1  0.47232300  0.29776200  0.74992700  1
  H  1134  1  0.55907200  0.31297300  0.73246900  1
  H  1135  1  0.52726900  0.29656700  0.74877200  1
  H  1136  1  0.52970400  0.33460600  0.74721000  1
  H  1142  1  0.47064900  0.68459400  0.36018800  1
  H  1143  1  0.52530500  0.68534200  0.36121400  1
  H  1146  1  0.44094200  0.68178800  0.26231900  1
  H  1147  1  0.47211700  0.66159800  0.24881200  1
  H  1148  1  0.47251600  0.69970100  0.24722400  1
  H  1150  1  0.55927900  0.68443400  0.26451500  1
  H  1151  1  0.52746400  0.70086000  0.24826700  1
  H  1152  1  0.52983400  0.66282100  0.24984700  1
  H  1158  1  0.52693700  0.31295400  0.36020100  1
  H  1159  1  0.47228400  0.31221700  0.36132600  1
  H  1162  1  0.55644200  0.31564200  0.26228100  1
  H  1163  1  0.52523500  0.33579800  0.24879300  1
  H  1164  1  0.52484500  0.29769300  0.24727400  1
  H  1166  1  0.43811500  0.31298300  0.26468200  1
  H  1167  1  0.46990000  0.29653100  0.24841300  1
  H  1168  1  0.46753000  0.33457500  0.24992800  1
  C  1  1  0.21293600  0.20968700  0.21652100  1
  C  2  1  0.21408800  0.21527100  0.18680900  1
  C  3  1  0.19952500  0.19663300  0.16735100  1
  C  4  1  0.18386000  0.17171400  0.17704400  1
  C  5  1  0.18249200  0.16662700  0.20703300  1
  C  6  1  0.19731400  0.18506900  0.22652800  1
  C  8  1  0.12691400  0.15897600  0.16443300  1
  C  9  1  0.10671700  0.13881900  0.17742500  1
  C  10  1  0.07587900  0.14609100  0.18401100  1
  C  11  1  0.06453400  0.17397800  0.17853000  1
  C  12  1  0.08494200  0.19466000  0.16702200  1
  C  13  1  0.11578600  0.18737800  0.16056000  1
  C  14  1  0.17032700  0.15795300  0.12051600  1
  C  15  1  0.17179000  0.11631800  0.15791500  1
  C  16  1  0.15429000  0.09611200  0.14191600  1
  C  17  1  0.16132200  0.06670300  0.14280400  1
  C  18  1  0.18647100  0.05669400  0.15934900  1
  C  19  1  0.20465900  0.07655400  0.17473900  1
  C  20  1  0.19763100  0.10601900  0.17369000  1
  C  21  1  0.20097400  0.15533200  0.10972000  1
  C  22  1  0.20757900  0.15996300  0.08052100  1
  C  23  1  0.18359500  0.16712700  0.06123700  1
  C  24  1  0.15287500  0.16876800  0.07152200  1
  C  25  1  0.14633000  0.16404000  0.10065800  1
  C  42  1  0.21260000  0.78774600  0.78070300  1
  C  43  1  0.21376200  0.78213900  0.81041000  1
  C  44  1  0.19922600  0.80076400  0.82988900  1
  C  45  1  0.18351200  0.82565700  0.82022400  1
  C  46  1  0.18215000  0.83077000  0.79023700  1
  C  47  1  0.19698200  0.81236700  0.77072200  1
  C  49  1  0.12658700  0.83839400  0.83287000  1
  C  50  1  0.10642000  0.85856200  0.81987600  1
  C  51  1  0.07558100  0.85130300  0.81326200  1
  C  52  1  0.06420500  0.82341800  0.81872800  1
  C  53  1  0.08457600  0.80272200  0.83024300  1
  C  54  1  0.11542300  0.80999500  0.83672900  1
  C  55  1  0.17004000  0.83937600  0.87676900  1
  C  56  1  0.17149300  0.88103900  0.83941100  1
  C  57  1  0.15400900  0.90122700  0.85543500  1
  C  58  1  0.16103300  0.93064100  0.85455100  1
  C  59  1  0.18615700  0.94067700  0.83798200  1
  C  60  1  0.20433500  0.92083900  0.82256900  1
  C  61  1  0.19730800  0.89136800  0.82360800  1
  C  62  1  0.20069900  0.84200000  0.88754000  1
  C  63  1  0.20733500  0.83735400  0.91673000  1
  C  64  1  0.18337200  0.83016800  0.93603300  1
  C  65  1  0.15264000  0.82851400  0.92577500  1
  C  66  1  0.14606600  0.83324800  0.89664500  1
  C  83  1  0.78456300  0.78776200  0.21646100  1
  C  84  1  0.78339400  0.78217000  0.18675000  1
  C  85  1  0.79793200  0.80081000  0.16728000  1
  C  86  1  0.81366000  0.82570300  0.17695900  1
  C  87  1  0.81502800  0.83080000  0.20694700  1
  C  88  1  0.80017700  0.81238900  0.22645300  1
  C  90  1  0.87059000  0.83846000  0.16432300  1
  C  91  1  0.89077800  0.85863000  0.17731000  1
  C  92  1  0.92161200  0.85136700  0.18392200  1
  C  93  1  0.93296600  0.82347700  0.17847300  1
  C  94  1  0.91257200  0.80278700  0.16695600  1
  C  95  1  0.88173100  0.81006100  0.16046700  1
  C  96  1  0.82715000  0.83945200  0.12042100  1
  C  97  1  0.82569400  0.88109500  0.15780300  1
  C  98  1  0.84317900  0.90130300  0.14179200  1
  C  99  1  0.83613900  0.93071200  0.14267700  1
  C  100  1  0.81100200  0.94071900  0.15923700  1
  C  101  1  0.79283000  0.92086100  0.17464400  1
  C  102  1  0.79986900  0.89139600  0.17360000  1
  C  103  1  0.79649400  0.84206900  0.10964300  1
  C  104  1  0.78986700  0.83742700  0.08045000  1
  C  105  1  0.81382900  0.83024100  0.06115500  1
  C  106  1  0.84455900  0.82860100  0.07141900  1
  C  107  1  0.85112700  0.83333500  0.10055000  1
  C  124  1  0.78420600  0.20968900  0.78066200  1
  C  125  1  0.78306900  0.21527100  0.81037300  1
  C  126  1  0.79763800  0.19664000  0.82982700  1
  C  127  1  0.81335800  0.17176400  0.82012300  1
  C  128  1  0.81469000  0.16667100  0.79013200  1
  C  129  1  0.79982500  0.18508300  0.77064700  1
  C  131  1  0.87030500  0.15905800  0.83271800  1
  C  132  1  0.89049500  0.13889800  0.81973900  1
  C  133  1  0.92134000  0.14616900  0.81316500  1
  C  134  1  0.93269700  0.17406400  0.81862500  1
  C  135  1  0.91229800  0.19474600  0.83012300  1
  C  136  1  0.88144600  0.18746600  0.83657200  1
  C  137  1  0.82690600  0.15802800  0.87665500  1
  C  138  1  0.82542700  0.11638200  0.83927600  1
  C  139  1  0.84292600  0.09619300  0.85528300  1
  C  140  1  0.83590700  0.06677800  0.85439900  1
  C  141  1  0.81076800  0.05674100  0.83784900  1
  C  142  1  0.79258200  0.07657900  0.82244500  1
  C  143  1  0.79960700  0.10605000  0.82348100  1
  C  144  1  0.79626500  0.15539000  0.88746400  1
  C  145  1  0.78967400  0.16003500  0.91666500  1
  C  146  1  0.81366000  0.16724700  0.93593000  1
  C  147  1  0.84437600  0.16890700  0.92563300  1
  C  148  1  0.85090900  0.16416900  0.89649700  1
  C  165  1  0.78597700  0.21617800  0.20935900  1
  C  166  1  0.80260300  0.19262300  0.22044900  1
  C  167  1  0.81726600  0.17327200  0.20175800  1
  C  168  1  0.81510700  0.17655700  0.17155800  1
  C  169  1  0.79856100  0.20053600  0.16079100  1
  C  170  1  0.78387400  0.21992200  0.17941500  1
  C  172  1  0.87192600  0.16189800  0.15968500  1
  C  173  1  0.88402000  0.18991800  0.15549000  1
  C  174  1  0.91483300  0.19662800  0.16275400  1
  C  175  1  0.93419500  0.17578300  0.17545400  1
  C  176  1  0.92192300  0.14825400  0.18101500  1
  C  177  1  0.89117200  0.14154900  0.17359100  1
  C  178  1  0.82618700  0.12024300  0.15444900  1
  C  179  1  0.82825800  0.16057800  0.11566600  1
  C  180  1  0.85207000  0.16671700  0.09564100  1
  C  181  1  0.84534100  0.17069000  0.06641600  1
  C  182  1  0.81462000  0.16830600  0.05624500  1
  C  183  1  0.79085700  0.16108200  0.07573600  1
  C  184  1  0.79764500  0.15716200  0.10498900  1
  C  185  1  0.80102800  0.11066700  0.17156600  1
  C  186  1  0.79364200  0.08131400  0.17362000  1
  C  187  1  0.81077700  0.06086100  0.15797600  1
  C  188  1  0.83531800  0.07014200  0.14026100  1
  C  189  1  0.84275000  0.09941000  0.13840500  1
  C  206  1  0.78550200  0.78126200  0.78778000  1
  C  207  1  0.80214400  0.80479900  0.77665100  1
  C  208  1  0.81684600  0.82416500  0.79530800  1
  C  209  1  0.81474300  0.82089200  0.82551100  1
  C  210  1  0.79818000  0.79693000  0.83632100  1
  C  211  1  0.78342900  0.77754300  0.81773000  1
  C  213  1  0.87160100  0.83550900  0.83729900  1
  C  214  1  0.88365100  0.80748000  0.84149300  1
  C  215  1  0.91445800  0.80075600  0.83424600  1
  C  216  1  0.93385600  0.82158700  0.82155000  1
  C  217  1  0.92161900  0.84911800  0.81596800  1
  C  218  1  0.89087500  0.85584300  0.82338700  1
  C  219  1  0.82593500  0.87720200  0.84258700  1
  C  220  1  0.82802900  0.83687900  0.88138500  1
  C  221  1  0.85188000  0.83073000  0.90136400  1
  C  222  1  0.84521300  0.82677300  0.93060600  1
  C  223  1  0.81451800  0.82916200  0.94083400  1
  C  224  1  0.79071800  0.83639300  0.92138900  1
  C  225  1  0.79744300  0.84030500  0.89211900  1
  C  226  1  0.80074500  0.88678400  0.82551800  1
  C  227  1  0.79339600  0.91613900  0.82346200  1
  C  228  1  0.81058300  0.93659000  0.83907600  1
  C  229  1  0.83515100  0.92730400  0.85674700  1
  C  230  1  0.84255800  0.89803500  0.85859400  1
  C  247  1  0.21125500  0.21614600  0.78782300  1
  C  248  1  0.19459700  0.19260200  0.77672800  1
  C  249  1  0.17992800  0.17324200  0.79541600  1
  C  250  1  0.18209700  0.17651900  0.82561400  1
  C  251  1  0.19869500  0.20047500  0.83639200  1
  C  252  1  0.21339400  0.21986600  0.81777100  1
  C  254  1  0.12526600  0.16190200  0.83751000  1
  C  255  1  0.11322300  0.18993000  0.84172000  1
  C  256  1  0.08243300  0.19668200  0.83443200  1
  C  257  1  0.06303300  0.17586800  0.82171300  1
  C  258  1  0.07524000  0.14831200  0.81618500  1
  C  259  1  0.10597900  0.14157500  0.82360400  1
  C  260  1  0.17094700  0.12021100  0.84271600  1
  C  261  1  0.16894900  0.16053600  0.88151100  1
  C  262  1  0.14515400  0.16669700  0.90154400  1
  C  263  1  0.15190000  0.17064300  0.93077100  1
  C  264  1  0.18262200  0.16824200  0.94093000  1
  C  265  1  0.20636700  0.16100800  0.92142900  1
  C  266  1  0.19956300  0.15710200  0.89217700  1
  C  267  1  0.19611000  0.11063300  0.82561400  1
  C  268  1  0.20346700  0.08127800  0.82355600  1
  C  269  1  0.18630800  0.06082700  0.83919600  1
  C  270  1  0.16177100  0.07011100  0.85690300  1
  C  271  1  0.15436000  0.09938000  0.85875500  1
  C  288  1  0.21162100  0.78122600  0.20942300  1
  C  289  1  0.19497900  0.80475800  0.22054100  1
  C  290  1  0.18029500  0.82411900  0.20187500  1
  C  291  1  0.18241400  0.82084500  0.17167400  1
  C  292  1  0.19896700  0.79688200  0.16087500  1
  C  293  1  0.21370400  0.77750400  0.17947400  1
  C  295  1  0.12557200  0.83546500  0.15986100  1
  C  296  1  0.11349500  0.80744000  0.15566300  1
  C  297  1  0.08268600  0.80071500  0.16292700  1
  C  298  1  0.06331000  0.82155300  0.17561800  1
  C  299  1  0.07555800  0.84909700  0.18116100  1
  C  300  1  0.10631300  0.85581100  0.17375800  1
  C  301  1  0.17127800  0.87715500  0.15457500  1
  C  302  1  0.16916900  0.83682200  0.11579200  1
  C  303  1  0.14532300  0.83067700  0.09580100  1
  C  304  1  0.15200300  0.82670700  0.06656600  1
  C  305  1  0.18270400  0.82910300  0.05635000  1
  C  306  1  0.20650100  0.83633200  0.07580500  1
  C  307  1  0.19976300  0.84024600  0.10507000  1
  C  308  1  0.19644800  0.88674100  0.17167400  1
  C  309  1  0.20381900  0.91609600  0.17372800  1
  C  310  1  0.18665500  0.93654400  0.15810200  1
  C  311  1  0.16209800  0.92725500  0.14041300  1
  C  312  1  0.15468200  0.89798300  0.13855400  1
  C  329  1  0.71948800  0.70706200  0.71428800  1
  C  330  1  0.71996300  0.71201100  0.68445900  1
  C  331  1  0.70191200  0.69502600  0.66601800  1
  C  332  1  0.68335000  0.67237700  0.67685100  1
  C  333  1  0.68199100  0.66856600  0.70703000  1
  C  334  1  0.70003100  0.68551400  0.72554200  1
  C  336  1  0.62542300  0.66051700  0.66567700  1
  C  337  1  0.60494800  0.64070700  0.67884000  1
  C  338  1  0.57427600  0.64843100  0.68554700  1
  C  339  1  0.56334400  0.67644200  0.67998800  1
  C  340  1  0.58404800  0.69679500  0.66833300  1
  C  341  1  0.61477400  0.68907200  0.66181400  1
  C  342  1  0.66794000  0.65774500  0.62098200  1
  C  343  1  0.66924600  0.61700400  0.65937600  1
  C  344  1  0.65149100  0.59683200  0.64356600  1
  C  345  1  0.65823300  0.56737100  0.64461600  1
  C  346  1  0.68327100  0.55724000  0.66122400  1
  C  347  1  0.70154800  0.57700600  0.67663800  1
  C  348  1  0.69483900  0.60652400  0.67539600  1
  C  349  1  0.69806200  0.65318000  0.60955900  1
  C  350  1  0.70427000  0.65715200  0.58020100  1
  C  351  1  0.68036100  0.66551100  0.56133100  1
  C  352  1  0.65005100  0.66894600  0.57219900  1
  C  353  1  0.64391200  0.66492400  0.60152200  1
  C  370  1  0.71990800  0.29030300  0.28284200  1
  C  371  1  0.72033900  0.28536800  0.31267300  1
  C  372  1  0.70225500  0.30234500  0.33108400  1
  C  373  1  0.68368200  0.32496000  0.32021900  1
  C  374  1  0.68236500  0.32875000  0.29003500  1
  C  375  1  0.70044900  0.31181900  0.27155400  1
  C  377  1  0.62574000  0.33682200  0.33132000  1
  C  378  1  0.60527500  0.35664000  0.31817800  1
  C  379  1  0.57458400  0.34892800  0.31150600  1
  C  380  1  0.56362700  0.32092500  0.31708600  1
  C  381  1  0.58432400  0.30055400  0.32869100  1
  C  382  1  0.61506800  0.30826300  0.33517600  1
  C  383  1  0.66819300  0.33960800  0.37606200  1
  C  384  1  0.66958700  0.38033800  0.33766100  1
  C  385  1  0.65183700  0.40051300  0.35345400  1
  C  386  1  0.65858000  0.42997600  0.35239200  1
  C  387  1  0.68361900  0.44011300  0.33577700  1
  C  388  1  0.70190000  0.42034500  0.32038400  1
  C  389  1  0.69517500  0.39082500  0.32163100  1
  C  390  1  0.69829900  0.34418200  0.38753000  1
  C  391  1  0.70445800  0.34020800  0.41689600  1
  C  392  1  0.68052100  0.33182400  0.43572800  1
  C  393  1  0.65022700  0.32837900  0.42481900  1
  C  394  1  0.64414000  0.33240300  0.39549000  1
  C  411  1  0.27726600  0.29035300  0.71433500  1
  C  412  1  0.27682000  0.28542300  0.68450400  1
  C  413  1  0.29490900  0.30240600  0.66609100  1
  C  414  1  0.31349900  0.32502000  0.67695400  1
  C  415  1  0.31481600  0.32881700  0.70713800  1
  C  416  1  0.29673700  0.31187300  0.72562100  1
  C  418  1  0.37145400  0.33686400  0.66585500  1
  C  419  1  0.39194500  0.35667600  0.67899100  1
  C  420  1  0.42262400  0.34895200  0.68566500  1
  C  421  1  0.43354900  0.32094100  0.68010600  1
  C  422  1  0.41282100  0.30057900  0.66849900  1
  C  423  1  0.38208900  0.30829900  0.66200700  1
  C  424  1  0.32901100  0.33965900  0.62111100  1
  C  425  1  0.32764900  0.38039200  0.65950900  1
  C  426  1  0.34542300  0.40056600  0.64371900  1
  C  427  1  0.33870000  0.43002600  0.64477500  1
  C  428  1  0.31364900  0.44016700  0.66136300  1
  C  429  1  0.29535200  0.42040200  0.67676100  1
  C  430  1  0.30205600  0.39088200  0.67552500  1
  C  431  1  0.29891200  0.34423700  0.60963800  1
  C  432  1  0.29275200  0.34026300  0.58027000  1
  C  433  1  0.31668500  0.33186900  0.56144300  1
  C  434  1  0.34697400  0.32842400  0.57235500  1
  C  435  1  0.35306200  0.33244800  0.60168700  1
  C  452  1  0.27766500  0.70707700  0.28290400  1
  C  453  1  0.27721000  0.71202600  0.31273300  1
  C  454  1  0.29527800  0.69505500  0.33116300  1
  C  455  1  0.31386000  0.67243800  0.32031700  1
  C  456  1  0.31518500  0.66862200  0.29013800  1
  C  457  1  0.29712600  0.68555300  0.27163700  1
  C  459  1  0.37179500  0.66061300  0.33146000  1
  C  460  1  0.39226300  0.64080900  0.31829600  1
  C  461  1  0.42293900  0.64854100  0.31160300  1
  C  462  1  0.43387800  0.67655800  0.31714600  1
  C  463  1  0.41318100  0.69690400  0.32880100  1
  C  464  1  0.38244900  0.68917500  0.33531200  1
  C  465  1  0.32930100  0.65781500  0.37618000  1
  C  466  1  0.32797600  0.61707500  0.33779700  1
  C  467  1  0.34574000  0.59691500  0.35360000  1
  C  468  1  0.33901500  0.56745000  0.35255000  1
  C  469  1  0.31397600  0.55729100  0.33594700  1
  C  470  1  0.29569300  0.57704000  0.32053000  1
  C  471  1  0.30240200  0.60656400  0.32176000  1
  C  472  1  0.29918500  0.65323500  0.38762100  1
  C  473  1  0.29299100  0.65721800  0.41698000  1
  C  474  1  0.31690500  0.66561900  0.43583100  1
  C  475  1  0.34721100  0.66907100  0.42495000  1
  C  476  1  0.35333300  0.66504500  0.39562500  1
  C  493  1  0.27740000  0.71291900  0.70684800  1
  C  494  1  0.29476300  0.69032500  0.71896000  1
  C  495  1  0.31287200  0.67251700  0.70135800  1
  C  496  1  0.31335900  0.67628100  0.67116800  1
  C  497  1  0.29705400  0.69998500  0.65950900  1
  C  498  1  0.27919500  0.71802700  0.67708500  1
  C  500  1  0.37118000  0.66299700  0.66155000  1
  C  501  1  0.38285400  0.69106600  0.65676200  1
  C  502  1  0.41347500  0.69838100  0.66415700  1
  C  503  1  0.43303600  0.67815700  0.67760000  1
  C  504  1  0.42101900  0.65069900  0.68397400  1
  C  505  1  0.39046100  0.64338600  0.67643500  1
  C  506  1  0.32681200  0.62008600  0.65530300  1
  C  507  1  0.32923100  0.65982800  0.61615300  1
  C  508  1  0.35360200  0.66579600  0.59665900  1
  C  509  1  0.34771600  0.66922700  0.56720500  1
  C  510  1  0.31732500  0.66642600  0.55632900  1
  C  511  1  0.29303500  0.65935500  0.57529800  1
  C  512  1  0.29898100  0.65596000  0.60476200  1
  C  513  1  0.30058100  0.61018000  0.67079100  1
  C  514  1  0.29386300  0.58070400  0.67294700  1
  C  515  1  0.31278200  0.56040300  0.65896200  1
  C  516  1  0.33832900  0.56997800  0.64267800  1
  C  517  1  0.34504500  0.59939100  0.64069300  1
  C  534  1  0.27774800  0.28454400  0.29038300  1
  C  535  1  0.29513200  0.30715100  0.27829900  1
  C  536  1  0.31323000  0.32495600  0.29592400  1
  C  537  1  0.31367900  0.32117500  0.32611200  1
  C  538  1  0.29735600  0.29745800  0.33774700  1
  C  539  1  0.27951500  0.27941700  0.32014400  1
  C  541  1  0.37148200  0.33447500  0.33582700  1
  C  542  1  0.38313700  0.30641100  0.34063600  1
  C  543  1  0.41375100  0.29909000  0.33323200  1
  C  544  1  0.43331500  0.31928900  0.31973600  1
  C  545  1  0.42131800  0.34674900  0.31336400  1
  C  546  1  0.39077400  0.35407700  0.32092700  1
  C  547  1  0.32712300  0.37737400  0.34200900  1
  C  548  1  0.32943500  0.33763100  0.38115500  1
  C  549  1  0.35375300  0.33165200  0.40069800  1
  C  550  1  0.34779300  0.32823100  0.43014200  1
  C  551  1  0.31737800  0.33103700  0.44095300  1
  C  552  1  0.29313700  0.33810200  0.42193300  1
  C  553  1  0.29915800  0.34149100  0.39248100  1
  C  554  1  0.30090600  0.38727400  0.32650700  1
  C  555  1  0.29420400  0.41674700  0.32434100  1
  C  556  1  0.31311800  0.43705000  0.33834800  1
  C  557  1  0.33864400  0.42748300  0.35464900  1
  C  558  1  0.34535100  0.39807200  0.35663600  1
  C  575  1  0.71979400  0.71286700  0.29031600  1
  C  576  1  0.70240600  0.69027700  0.27820600  1
  C  577  1  0.68430100  0.67245900  0.29581200  1
  C  578  1  0.68382600  0.67622500  0.32600200  1
  C  579  1  0.70017300  0.69991200  0.33766600  1
  C  580  1  0.71802500  0.71796600  0.32008100  1
  C  582  1  0.62599800  0.66297000  0.33565300  1
  C  583  1  0.61437700  0.69104900  0.34045800  1
  C  584  1  0.58378200  0.69841000  0.33303300  1
  C  585  1  0.56418100  0.67821900  0.31957500  1
  C  586  1  0.57612700  0.65073000  0.31324200  1
  C  587  1  0.60667500  0.64338300  0.32077000  1
  C  588  1  0.67032200  0.62003200  0.34185700  1
  C  589  1  0.66796800  0.65976000  0.38102400  1
  C  590  1  0.64362000  0.66574600  0.40053100  1
  C  591  1  0.64952700  0.66915600  0.42998300  1
  C  592  1  0.67992000  0.66634400  0.44084400  1
  C  593  1  0.70418900  0.65926600  0.42186000  1
  C  594  1  0.69822200  0.65588200  0.39239800  1
  C  595  1  0.69655700  0.61013500  0.32638000  1
  C  596  1  0.70327500  0.58066100  0.32423600  1
  C  597  1  0.68433300  0.56035400  0.33820000  1
  C  598  1  0.65877800  0.56991900  0.35446700  1
  C  599  1  0.65207300  0.59933000  0.35645400  1
  C  616  1  0.71938600  0.28450900  0.70680700  1
  C  617  1  0.70200500  0.30710900  0.71888500  1
  C  618  1  0.68393000  0.32491300  0.70124900  1
  C  619  1  0.68348500  0.32112500  0.67106100  1
  C  620  1  0.69980400  0.29741300  0.65943400  1
  C  621  1  0.71763300  0.27937900  0.67704600  1
  C  623  1  0.62569400  0.33442000  0.66132000  1
  C  624  1  0.61401300  0.30635700  0.65650700  1
  C  625  1  0.58339900  0.29903000  0.66392600  1
  C  626  1  0.56385200  0.31923900  0.67740500  1
  C  627  1  0.57585100  0.34671100  0.68374200  1
  C  628  1  0.60640900  0.35402900  0.67620500  1
  C  629  1  0.67008300  0.37732300  0.65513800  1
  C  630  1  0.66776600  0.33756700  0.61600700  1
  C  631  1  0.64345300  0.33158900  0.59645500  1
  C  632  1  0.64942900  0.32815300  0.56701600  1
  C  633  1  0.67984800  0.33097400  0.55621500  1
  C  634  1  0.70408200  0.33804500  0.57524400  1
  C  635  1  0.69804800  0.34143300  0.60469400  1
  C  636  1  0.69628100  0.38722600  0.67067500  1
  C  637  1  0.70300900  0.41670000  0.67282500  1
  C  638  1  0.68411300  0.43700100  0.65881200  1
  C  639  1  0.65859200  0.42742800  0.64249300  1
  C  640  1  0.65187800  0.39801500  0.64049800  1
  C  657  1  0.22686300  0.22902100  0.23600700  1
  C  658  1  0.25948100  0.22826700  0.23737000  1
  C  659  1  0.27553300  0.24687800  0.25551700  1
  C  660  1  0.25935300  0.26670400  0.27272500  1
  C  661  1  0.22628500  0.26804800  0.27177900  1
  C  664  1  0.20978800  0.24895100  0.25309400  1
  C  665  1  0.20882100  0.28954700  0.28945100  1
  C  669  1  0.17510900  0.25058000  0.25119900  1
  C  673  1  0.22652000  0.76843700  0.76120000  1
  C  674  1  0.25913800  0.76921300  0.75982600  1
  C  675  1  0.27518600  0.75061100  0.74168200  1
  C  676  1  0.25900600  0.73076600  0.72448600  1
  C  677  1  0.22593600  0.72940300  0.72543700  1
  C  680  1  0.20944200  0.74849300  0.74411800  1
  C  681  1  0.20846900  0.70788800  0.70776800  1
  C  685  1  0.17476400  0.74684200  0.74601900  1
  C  689  1  0.77064900  0.76842900  0.23595600  1
  C  690  1  0.73803300  0.76918600  0.23734200  1
  C  691  1  0.72199300  0.75056900  0.25548900  1
  C  692  1  0.73818200  0.73073000  0.27267400  1
  C  693  1  0.77124900  0.72938900  0.27171000  1
  C  696  1  0.78773500  0.74849400  0.25302700  1
  C  697  1  0.78872600  0.70787900  0.28936300  1
  C  701  1  0.82241200  0.74686700  0.25111300  1
  C  705  1  0.77027300  0.22901900  0.76118300  1
  C  706  1  0.73765500  0.22824600  0.75982400  1
  C  707  1  0.72160100  0.24684700  0.74168000  1
  C  708  1  0.73778100  0.26668400  0.72447100  1
  C  709  1  0.77084800  0.26804800  0.72541500  1
  C  712  1  0.78734800  0.24895900  0.74409400  1
  C  713  1  0.78831300  0.28956100  0.70774100  1
  C  717  1  0.82202700  0.25060900  0.74598500  1
  C  721  1  0.77171300  0.23605400  0.22804800  1
  C  722  1  0.74377800  0.22701700  0.24083600  1
  C  723  1  0.72729900  0.24543300  0.25884900  1
  C  724  1  0.73833700  0.27333000  0.26442700  1
  C  725  1  0.76673400  0.28302800  0.25201000  1
  C  728  1  0.78370200  0.26408300  0.23355900  1
  C  729  1  0.77911300  0.31242000  0.25840100  1
  C  733  1  0.81391300  0.27360300  0.22076600  1
  C  737  1  0.77122600  0.76135800  0.76912100  1
  C  738  1  0.74326300  0.77034900  0.75636300  1
  C  739  1  0.72680000  0.75191600  0.73834500  1
  C  740  1  0.73788300  0.72404700  0.73273500  1
  C  741  1  0.76629800  0.71439100  0.74512800  1
  C  744  1  0.78325000  0.73335600  0.76358400  1
  C  745  1  0.77871700  0.68502900  0.73870700  1
  C  749  1  0.81348600  0.72388500  0.77635300  1
  C  753  1  0.22550700  0.23604200  0.76913800  1
  C  754  1  0.25343500  0.22703100  0.75633100  1
  C  755  1  0.26989800  0.24546600  0.73831700  1
  C  756  1  0.25885200  0.27335700  0.73275700  1
  C  757  1  0.23046300  0.28302800  0.74519300  1
  C  760  1  0.21351100  0.26406300  0.76364800  1
  C  761  1  0.21807600  0.31241400  0.73882100  1
  C  765  1  0.18330800  0.27355500  0.77646400  1
  C  769  1  0.22589700  0.76133800  0.22808800  1
  C  770  1  0.25385000  0.77035600  0.24085700  1
  C  771  1  0.27032300  0.75193500  0.25887100  1
  C  772  1  0.25925600  0.72405300  0.26447000  1
  C  773  1  0.23084700  0.71436700  0.25206800  1
  C  776  1  0.21388700  0.73332000  0.23361400  1
  C  777  1  0.21844600  0.68498900  0.25847600  1
  C  781  1  0.18366100  0.72381600  0.22083900  1
  C  785  1  0.19321500  0.96624300  0.16003800  1
  C  786  1  0.17713600  0.98134800  0.18158500  1
  C  787  1  0.17693900  0.01132300  0.18177700  1
  C  788  1  0.19276500  0.02691000  0.16040400  1
  C  789  1  0.21045600  0.01220900  0.13909800  1
  C  792  1  0.21068100  0.98144000  0.13891600  1
  C  793  1  0.22800500  0.02859700  0.11669000  1
  C  797  1  0.22856000  0.96552500  0.11640100  1
  C  801  1  0.19286600  0.03113200  0.83726700  1
  C  802  1  0.17677500  0.01601000  0.81573400  1
  C  803  1  0.17658600  0.98603400  0.81554700  1
  C  804  1  0.19242700  0.97047000  0.83691700  1
  C  805  1  0.21014200  0.98518700  0.85820400  1
  C  808  1  0.21035800  0.01595600  0.85838000  1
  C  809  1  0.22772000  0.96882100  0.88059900  1
  C  813  1  0.22825400  0.03189300  0.88087600  1
  C  817  1  0.80421400  0.03116300  0.15992400  1
  C  818  1  0.82029200  0.01606800  0.18147900  1
  C  819  1  0.82050600  0.98609300  0.18167400  1
  C  820  1  0.80470400  0.97050400  0.16028800  1
  C  821  1  0.78700000  0.98519000  0.13898200  1
  C  824  1  0.78676100  0.01595800  0.13880000  1
  C  825  1  0.76946100  0.96879500  0.11657500  1
  C  829  1  0.76887400  0.03186700  0.11628400  1
  C  833  1  0.80403100  0.96628700  0.83714900  1
  C  834  1  0.82011200  0.98140400  0.81560500  1
  C  835  1  0.82031100  0.01137900  0.81541700  1
  C  836  1  0.80449000  0.02694900  0.83679700  1
  C  837  1  0.78678700  0.01223900  0.85809600  1
  C  840  1  0.78656200  0.98147000  0.85827200  1
  C  841  1  0.76923200  0.02861200  0.88050100  1
  C  845  1  0.76868000  0.96553900  0.88078400  1
  C  849  1  0.18864900  0.17112800  0.97071200  1
  C  850  1  0.19440900  0.14547900  0.98583100  1
  C  851  1  0.19473700  0.14520800  0.01580700  1
  C  852  1  0.18930000  0.17058400  0.03146600  1
  C  853  1  0.18528000  0.19719800  0.01674700  1
  C  856  1  0.18499000  0.19747700  0.98598600  1
  C  857  1  0.18122400  0.22459800  0.03317300  1
  C  861  1  0.18076300  0.22519200  0.97013700  1
  C  865  1  0.80860200  0.17121000  0.02646200  1
  C  866  1  0.80282300  0.14556600  0.01133800  1
  C  867  1  0.80250800  0.14531300  0.98136100  1
  C  868  1  0.80797800  0.17069200  0.96570600  1
  C  869  1  0.81201600  0.19729700  0.98044700  1
  C  872  1  0.81229600  0.19756600  0.01120800  1
  C  873  1  0.81610000  0.22470500  0.96403600  1
  C  877  1  0.81654700  0.22527200  0.02707100  1
  C  881  1  0.18867500  0.82619100  0.02655900  1
  C  882  1  0.19440200  0.85183500  0.01142000  1
  C  883  1  0.19463300  0.85209300  0.98144200  1
  C  884  1  0.18911400  0.82671900  0.96579600  1
  C  885  1  0.18510800  0.80011300  0.98054300  1
  C  888  1  0.18491600  0.79984100  0.01130600  1
  C  889  1  0.18096500  0.77270700  0.96414100  1
  C  893  1  0.18070000  0.77213400  0.02717600  1
  C  897  1  0.80857200  0.82626700  0.97063100  1
  C  898  1  0.80284900  0.85191300  0.98576200  1
  C  899  1  0.80260700  0.85217000  0.01574000  1
  C  900  1  0.80810400  0.82679500  0.03138900  1
  C  901  1  0.81209200  0.80018800  0.01664400  1
  C  904  1  0.81229600  0.79991400  0.98588000  1
  C  905  1  0.81620600  0.77278500  0.03304900  1
  C  909  1  0.81648900  0.77220300  0.97001500  1
  C  913  1  0.96645500  0.18081000  0.17921800  1
  C  914  1  0.98393400  0.18287200  0.15373700  1
  C  915  1  0.01627600  0.18229500  0.15450800  1
  C  916  1  0.03224300  0.17961400  0.18077500  1
  C  917  1  0.01524100  0.17910700  0.20706900  1
  C  920  1  0.98197200  0.17972400  0.20627900  1
  C  921  1  0.03191800  0.17802300  0.23524500  1
  C  925  1  0.96373500  0.17936800  0.23363600  1
  C  929  1  0.03104200  0.81653800  0.17934000  1
  C  930  1  0.01361000  0.81449200  0.15382900  1
  C  931  1  0.98126700  0.81511100  0.15453700  1
  C  932  1  0.96525200  0.81783900  0.18077300  1
  C  933  1  0.98219500  0.81833400  0.20709900  1
  C  936  1  0.01546200  0.81767900  0.20636800  1
  C  937  1  0.96546000  0.81945500  0.23524800  1
  C  941  1  0.03364400  0.81804100  0.23375600  1
  C  945  1  0.03078200  0.18091400  0.81793600  1
  C  946  1  0.01330000  0.18298500  0.84341300  1
  C  947  1  0.98095600  0.18240700  0.84264500  1
  C  948  1  0.96499400  0.17970500  0.81637800  1
  C  949  1  0.98199100  0.17917400  0.79008500  1
  C  952  1  0.01525900  0.17979000  0.79087900  1
  C  953  1  0.96531400  0.17806300  0.76190800  1
  C  957  1  0.03349800  0.17940400  0.76352200  1
  C  961  1  0.96611900  0.81655900  0.81784400  1
  C  962  1  0.98354400  0.81448900  0.84335500  1
  C  963  1  0.01588900  0.81507400  0.84265600  1
  C  964  1  0.03191300  0.81778100  0.81642100  1
  C  965  1  0.01497800  0.81827600  0.79009200  1
  C  968  1  0.98170800  0.81765200  0.79081900  1
  C  969  1  0.03172200  0.81936000  0.76194900  1
  C  973  1  0.96353600  0.81800800  0.76342500  1
  C  977  1  0.69007300  0.46679200  0.66091900  1
  C  978  1  0.67313500  0.48160900  0.68210200  1
  C  979  1  0.67287300  0.51157400  0.68267700  1
  C  980  1  0.68954000  0.52744900  0.66208400  1
  C  981  1  0.70805000  0.51304000  0.64117100  1
  C  984  1  0.70828900  0.48227100  0.64055600  1
  C  985  1  0.72641300  0.52974000  0.61956300  1
  C  989  1  0.72680700  0.46670500  0.61823500  1
  C  993  1  0.69030300  0.53056500  0.33610800  1
  C  994  1  0.67338800  0.51572400  0.31492000  1
  C  995  1  0.67317900  0.48575700  0.31433000  1
  C  996  1  0.68989900  0.46990800  0.33490000  1
  C  997  1  0.70835200  0.48434800  0.35583800  1
  C  1000  1  0.70853500  0.51511700  0.35647300  1
  C  1001  1  0.72673300  0.46767300  0.37744600  1
  C  1005  1  0.72701100  0.53070800  0.37881300  1
  C  1009  1  0.30682900  0.53061000  0.66106900  1
  C  1010  1  0.32377000  0.51579700  0.68225200  1
  C  1011  1  0.32404300  0.48583100  0.68282300  1
  C  1012  1  0.30739000  0.46996000  0.66222200  1
  C  1013  1  0.28886600  0.48436000  0.64131500  1
  C  1016  1  0.28861800  0.51512900  0.64070400  1
  C  1017  1  0.27050600  0.46765800  0.61970500  1
  C  1021  1  0.27009500  0.53069200  0.61838500  1
  C  1025  1  0.30716800  0.46684100  0.33624300  1
  C  1026  1  0.32411300  0.48166700  0.31506400  1
  C  1027  1  0.32438200  0.51163200  0.31448900  1
  C  1028  1  0.30772200  0.52749200  0.33508800  1
  C  1029  1  0.28919700  0.51308000  0.35599500  1
  C  1032  1  0.28895400  0.48231000  0.35660900  1
  C  1033  1  0.27083000  0.52976800  0.37760100  1
  C  1037  1  0.27042700  0.46673300  0.37892300  1
  C  1041  1  0.68524300  0.66898500  0.47073500  1
  C  1042  1  0.68964200  0.64314900  0.48591200  1
  C  1043  1  0.68985000  0.64294300  0.51588500  1
  C  1044  1  0.68571600  0.66857800  0.53146700  1
  C  1045  1  0.68301900  0.69529900  0.51667100  1
  C  1048  1  0.68273100  0.69550000  0.48590800  1
  C  1049  1  0.68048400  0.72291300  0.53300200  1
  C  1053  1  0.67974200  0.72331400  0.46998200  1
  C  1057  1  0.31201900  0.66907400  0.52643500  1
  C  1058  1  0.30761500  0.64323700  0.51125600  1
  C  1059  1  0.30741800  0.64304200  0.48128100  1
  C  1060  1  0.31157400  0.66867900  0.46569900  1
  C  1061  1  0.31427800  0.69539400  0.48050800  1
  C  1064  1  0.31455800  0.69559300  0.51127100  1
  C  1065  1  0.31683300  0.72301400  0.46418600  1
  C  1069  1  0.31755900  0.72340400  0.52720300  1
  C  1073  1  0.68524900  0.32833000  0.52633400  1
  C  1074  1  0.68967200  0.35417600  0.51117300  1
  C  1075  1  0.68993400  0.35438400  0.48119700  1
  C  1076  1  0.68582500  0.32875100  0.46559800  1
  C  1077  1  0.68309500  0.30203000  0.48039200  1
  C  1080  1  0.68275000  0.30181900  0.51115600  1
  C  1081  1  0.68058100  0.27441600  0.46405300  1
  C  1085  1  0.67972100  0.27400200  0.52707000  1
  C  1089  1  0.31199800  0.32839800  0.47083800  1
  C  1090  1  0.30758000  0.35424100  0.48600000  1
  C  1091  1  0.30730900  0.35444000  0.51597500  1
  C  1092  1  0.31139500  0.32880500  0.53157000  1
  C  1093  1  0.31410400  0.30208600  0.51677200  1
  C  1096  1  0.31446300  0.30188000  0.48600900  1
  C  1097  1  0.31658800  0.27447000  0.53310700  1
  C  1101  1  0.31747100  0.27406700  0.47009000  1
  C  1105  1  0.46529200  0.68353400  0.68115200  1
  C  1106  1  0.48263400  0.68546300  0.65556900  1
  C  1107  1  0.51499200  0.68495800  0.65616100  1
  C  1108  1  0.53112300  0.68242700  0.68235300  1
  C  1109  1  0.51428000  0.68211700  0.70873800  1
  C  1112  1  0.48100600  0.68273300  0.70812700  1
  C  1113  1  0.53113700  0.68116300  0.73682800  1
  C  1117  1  0.46295200  0.68265600  0.73558900  1
  C  1121  1  0.53161200  0.31384200  0.68104200  1
  C  1122  1  0.51419400  0.31191800  0.65550200  1
  C  1123  1  0.48183900  0.31242200  0.65617200  1
  C  1124  1  0.46577700  0.31496200  0.68240100  1
  C  1125  1  0.48269400  0.31528700  0.70874300  1
  C  1128  1  0.51596600  0.31466900  0.70805200  1
  C  1129  1  0.46591400  0.31626000  0.73687300  1
  C  1133  1  0.53409400  0.31476300  0.73547100  1
  C  1137  1  0.53193900  0.68362500  0.31600000  1
  C  1138  1  0.51458600  0.68557000  0.34157400  1
  C  1139  1  0.48222800  0.68508500  0.34097500  1
  C  1140  1  0.46610100  0.68255800  0.31477900  1
  C  1141  1  0.48295400  0.68219500  0.28840000  1
  C  1144  1  0.51622800  0.68279100  0.28902200  1
  C  1145  1  0.46610100  0.68121900  0.26030600  1
  C  1149  1  0.53428900  0.68266600  0.26156600  1
  C  1153  1  0.46555200  0.31389800  0.31612400  1
  C  1154  1  0.48296100  0.31196700  0.34166600  1
  C  1155  1  0.51531600  0.31244600  0.34100900  1
  C  1156  1  0.53139200  0.31495300  0.31478500  1
  C  1157  1  0.51448600  0.31526800  0.28843600  1
  C  1160  1  0.48121200  0.31467300  0.28911900  1
  C  1161  1  0.53127800  0.31620000  0.26031100  1
  C  1165  1  0.46309800  0.31474900  0.26169100  1
