# generated using pymatgen
data_H36C45N4
_symmetry_space_group_name_H-M   'P 1'
_cell_length_a   55.79020000
_cell_length_b   60.19140000
_cell_length_c   60.19140000
_cell_angle_alpha   90.00000000
_cell_angle_beta   90.00000000
_cell_angle_gamma   89.99200000
_symmetry_Int_Tables_number   1
_chemical_formula_structural   H36C45N4
_chemical_formula_sum   'H576 C720 N64'
_cell_volume   202128.15115926
_cell_formula_units_Z   16
loop_
 _symmetry_equiv_pos_site_id
 _symmetry_equiv_pos_as_xyz
  1  'x, y, z'
loop_
 _atom_site_type_symbol
 _atom_site_label
 _atom_site_symmetry_multiplicity
 _atom_site_fract_x
 _atom_site_fract_y
 _atom_site_fract_z
 _atom_site_occupancy
  H  26  1  0.21308600  0.16180300  0.09438800  1
  H  27  1  0.20655100  0.15956200  0.13342200  1
  H  28  1  0.13848400  0.16026000  0.08356900  1
  H  29  1  0.13193400  0.15763200  0.12225500  1
  H  30  1  0.13680500  0.12162500  0.14508700  1
  H  31  1  0.14372000  0.08284300  0.14704700  1
  H  32  1  0.21229900  0.09451700  0.17381900  1
  H  33  1  0.20565400  0.13353400  0.17148600  1
  H  34  1  0.17648900  0.15320000  0.20187600  1
  H  35  1  0.19925500  0.17687300  0.22553000  1
  H  36  1  0.20923400  0.22145300  0.17235800  1
  H  37  1  0.18646500  0.19810400  0.14894700  1
  H  38  1  0.13827300  0.19461100  0.14830200  1
  H  39  1  0.13295000  0.13700800  0.18792400  1
  H  40  1  0.09236800  0.14567900  0.19585500  1
  H  45  1  0.09782200  0.20345600  0.15656600  1
  H  71  1  0.21315200  0.84248100  0.90968800  1
  H  72  1  0.20663300  0.84468600  0.87065000  1
  H  73  1  0.13855300  0.84420000  0.92048600  1
  H  74  1  0.13202100  0.84678800  0.88179300  1
  H  75  1  0.13684000  0.88269900  0.85887000  1
  H  76  1  0.14375300  0.92147900  0.85690400  1
  H  77  1  0.21242800  0.90978100  0.83034600  1
  H  78  1  0.20578000  0.87076800  0.83268000  1
  H  79  1  0.17667600  0.85114300  0.80219400  1
  H  80  1  0.19945100  0.82745900  0.77855300  1
  H  81  1  0.20926300  0.78281300  0.83169800  1
  H  82  1  0.18649000  0.80617800  0.85509700  1
  H  83  1  0.13835100  0.80973500  0.85583300  1
  H  84  1  0.13308600  0.86724900  0.81606800  1
  H  85  1  0.09251000  0.85857500  0.80812300  1
  H  90  1  0.09790400  0.80089800  0.84756200  1
  H  116  1  0.79108000  0.84247600  0.09441900  1
  H  117  1  0.79759300  0.84467500  0.13345700  1
  H  118  1  0.86568100  0.84420900  0.08363000  1
  H  119  1  0.87220500  0.84679300  0.12232100  1
  H  120  1  0.86739800  0.88267400  0.14525300  1
  H  121  1  0.86048200  0.92145600  0.14719800  1
  H  122  1  0.79179500  0.90978400  0.17373100  1
  H  123  1  0.79844700  0.87076800  0.17141100  1
  H  124  1  0.82755700  0.85113300  0.20191100  1
  H  125  1  0.80479900  0.82745000  0.22555700  1
  H  126  1  0.79500000  0.78279600  0.17242300  1
  H  127  1  0.81775600  0.80616200  0.14901800  1
  H  128  1  0.86587400  0.80971700  0.14827300  1
  H  129  1  0.87114900  0.86721300  0.18805200  1
  H  130  1  0.91172800  0.85853200  0.19598600  1
  H  135  1  0.90632900  0.80086000  0.15653600  1
  H  161  1  0.79115700  0.16172300  0.90970700  1
  H  162  1  0.79770300  0.15950500  0.87067500  1
  H  163  1  0.86575800  0.16023200  0.92054000  1
  H  164  1  0.87231600  0.15762300  0.88185500  1
  H  165  1  0.86741600  0.12159100  0.85904400  1
  H  166  1  0.86050000  0.08281100  0.85707400  1
  H  167  1  0.79195300  0.09451100  0.83023600  1
  H  168  1  0.79859700  0.13352500  0.83257900  1
  H  169  1  0.82779400  0.15320200  0.80221500  1
  H  170  1  0.80502700  0.17687900  0.77856100  1
  H  171  1  0.79496400  0.22141900  0.83175500  1
  H  172  1  0.81773700  0.19806900  0.85516600  1
  H  173  1  0.86595300  0.19459700  0.85576100  1
  H  174  1  0.87131400  0.13695400  0.81620200  1
  H  175  1  0.91189700  0.14561900  0.80827800  1
  H  180  1  0.90640600  0.20343800  0.84750300  1
  H  206  1  0.79433600  0.09261500  0.16292000  1
  H  207  1  0.79968900  0.13179800  0.15993900  1
  H  208  1  0.86917800  0.08367100  0.16055100  1
  H  209  1  0.87456400  0.12244500  0.15740700  1
  H  210  1  0.86733700  0.14292500  0.12081000  1
  H  211  1  0.85986400  0.14399800  0.08235900  1
  H  212  1  0.79228400  0.17298000  0.09424400  1
  H  213  1  0.79945600  0.17120000  0.13315500  1
  H  214  1  0.82855400  0.20111100  0.15233800  1
  H  215  1  0.80581900  0.22479600  0.17600700  1
  H  216  1  0.79686700  0.17196600  0.22116600  1
  H  217  1  0.81960300  0.14854100  0.19783500  1
  H  218  1  0.86842500  0.14984800  0.19366400  1
  H  219  1  0.87144000  0.18662500  0.13401800  1
  H  220  1  0.91220300  0.19520000  0.14105900  1
  H  225  1  0.90920600  0.15903900  0.20094200  1
  H  251  1  0.79443100  0.91167500  0.84118400  1
  H  252  1  0.79977300  0.87248900  0.84415800  1
  H  253  1  0.86926900  0.92059000  0.84369500  1
  H  254  1  0.87464300  0.88181100  0.84682500  1
  H  255  1  0.86746400  0.86125600  0.88335500  1
  H  256  1  0.85997500  0.86019700  0.92180200  1
  H  257  1  0.79231800  0.83139900  0.90989200  1
  H  258  1  0.79951300  0.83316100  0.87098300  1
  H  259  1  0.82861100  0.80318100  0.85182900  1
  H  260  1  0.80589600  0.77949500  0.82814900  1
  H  261  1  0.79702900  0.83230400  0.78294900  1
  H  262  1  0.81974400  0.85573000  0.80629400  1
  H  263  1  0.86853200  0.85452200  0.81051900  1
  H  264  1  0.87152400  0.81759000  0.87007100  1
  H  265  1  0.91230300  0.80904500  0.86303100  1
  H  270  1  0.90931700  0.84536800  0.80324500  1
  H  296  1  0.20990400  0.09261100  0.84121100  1
  H  297  1  0.20455400  0.13179400  0.84419300  1
  H  298  1  0.13505700  0.08369500  0.84350200  1
  H  299  1  0.12967300  0.12247200  0.84664700  1
  H  300  1  0.13694200  0.14289500  0.88329700  1
  H  301  1  0.14442400  0.14395800  0.92174900  1
  H  302  1  0.21195100  0.17302200  0.90986000  1
  H  303  1  0.20478000  0.17123900  0.87095100  1
  H  304  1  0.17566000  0.20112500  0.85175200  1
  H  305  1  0.19839700  0.22480900  0.82808800  1
  H  306  1  0.20742900  0.17195600  0.78296500  1
  H  307  1  0.18468800  0.14853600  0.80629100  1
  H  308  1  0.13582700  0.14986600  0.81044400  1
  H  309  1  0.13279200  0.18662200  0.87010000  1
  H  310  1  0.09201700  0.19518700  0.86306300  1
  H  315  1  0.09504300  0.15904100  0.80317600  1
  H  341  1  0.20979700  0.91168500  0.16292900  1
  H  342  1  0.20445300  0.87250100  0.15994700  1
  H  343  1  0.13495900  0.92061800  0.16041900  1
  H  344  1  0.12958600  0.88184300  0.15727700  1
  H  345  1  0.13677000  0.86130200  0.12074900  1
  H  346  1  0.14425800  0.86023300  0.08230100  1
  H  347  1  0.21190100  0.83138600  0.09421500  1
  H  348  1  0.20470600  0.83315800  0.13312300  1
  H  349  1  0.17561700  0.80319300  0.15226700  1
  H  350  1  0.19835000  0.77950500  0.17593700  1
  H  351  1  0.20722100  0.83231200  0.22113800  1
  H  352  1  0.18448800  0.85573900  0.19780400  1
  H  353  1  0.13570000  0.85451400  0.19358900  1
  H  354  1  0.13271200  0.81763200  0.13401200  1
  H  355  1  0.09194000  0.80907000  0.14105100  1
  H  360  1  0.09490800  0.84534000  0.20086700  1
  H  386  1  0.71299800  0.66063300  0.59337300  1
  H  387  1  0.70658100  0.65857200  0.63241600  1
  H  388  1  0.63834900  0.66260100  0.58293500  1
  H  389  1  0.63188500  0.66004900  0.62161300  1
  H  390  1  0.63819100  0.62234500  0.64309800  1
  H  391  1  0.64519000  0.58358700  0.64542200  1
  H  392  1  0.71198300  0.59558500  0.67570100  1
  H  393  1  0.70533500  0.63456200  0.67295300  1
  H  394  1  0.67533400  0.65567200  0.70149500  1
  H  395  1  0.69794100  0.67977400  0.72480700  1
  H  396  1  0.71144400  0.72171300  0.67022200  1
  H  397  1  0.68855100  0.69802800  0.64705500  1
  H  398  1  0.63873400  0.69578700  0.64878300  1
  H  399  1  0.63281700  0.63684900  0.68632200  1
  H  400  1  0.59225400  0.64535600  0.69425000  1
  H  405  1  0.59822300  0.70450100  0.65714200  1
  H  431  1  0.71290800  0.34368400  0.41075300  1
  H  432  1  0.70647000  0.34571400  0.37171400  1
  H  433  1  0.63826200  0.34180300  0.42123100  1
  H  434  1  0.63178300  0.34432100  0.38254900  1
  H  435  1  0.63804900  0.38198000  0.36101600  1
  H  436  1  0.64504500  0.42073500  0.35869100  1
  H  437  1  0.71187400  0.40872200  0.32848000  1
  H  438  1  0.70522800  0.36974900  0.33122700  1
  H  439  1  0.67525100  0.34866000  0.30264900  1
  H  440  1  0.69785700  0.32455000  0.27933900  1
  H  441  1  0.71128400  0.28257100  0.33391300  1
  H  442  1  0.68839500  0.30626700  0.35707600  1
  H  443  1  0.63861000  0.30855100  0.35539400  1
  H  444  1  0.63272400  0.36745900  0.31780300  1
  H  445  1  0.59217000  0.35895300  0.30984600  1
  H  450  1  0.59810100  0.29983700  0.34701100  1
  H  476  1  0.29132900  0.34367700  0.59335300  1
  H  477  1  0.29776000  0.34569800  0.63239400  1
  H  478  1  0.36597800  0.34181500  0.58289000  1
  H  479  1  0.37244700  0.34432300  0.62157000  1
  H  480  1  0.36620200  0.38195000  0.64312300  1
  H  481  1  0.35920600  0.42070800  0.64542700  1
  H  482  1  0.29234500  0.40872500  0.67557800  1
  H  483  1  0.29899300  0.36974600  0.67285000  1
  H  484  1  0.32896500  0.34865300  0.70145400  1
  H  485  1  0.30636900  0.32454500  0.72476800  1
  H  486  1  0.29297800  0.28254500  0.67020300  1
  H  487  1  0.31585600  0.30624300  0.64703700  1
  H  488  1  0.36562300  0.30853800  0.64868900  1
  H  489  1  0.37150200  0.36740300  0.68633700  1
  H  490  1  0.41205800  0.35889000  0.69428500  1
  H  495  1  0.40613600  0.29980900  0.65706200  1
  H  521  1  0.29124300  0.66057600  0.41072500  1
  H  522  1  0.29766700  0.65854200  0.37168200  1
  H  523  1  0.36589000  0.66254500  0.42117300  1
  H  524  1  0.37235600  0.66001700  0.38249500  1
  H  525  1  0.36603900  0.62231500  0.36101000  1
  H  526  1  0.35904300  0.58356100  0.35867600  1
  H  527  1  0.29225700  0.59557800  0.32838700  1
  H  528  1  0.29890400  0.63455300  0.33114200  1
  H  529  1  0.32892300  0.65566000  0.30260300  1
  H  530  1  0.30631500  0.67976500  0.27928600  1
  H  531  1  0.29277000  0.72169100  0.33387500  1
  H  532  1  0.31566100  0.69800300  0.35704600  1
  H  533  1  0.36549100  0.69576900  0.35529600  1
  H  534  1  0.37142700  0.63681200  0.31779100  1
  H  535  1  0.41199200  0.64530900  0.30986600  1
  H  540  1  0.40600300  0.70447900  0.34693800  1
  H  566  1  0.29468600  0.59145100  0.66197000  1
  H  567  1  0.29986400  0.63066400  0.65920500  1
  H  568  1  0.36962800  0.58300800  0.66251900  1
  H  569  1  0.37486000  0.62178900  0.65949400  1
  H  570  1  0.36614500  0.64097600  0.62150500  1
  H  571  1  0.35841100  0.64230200  0.58307800  1
  H  572  1  0.29269500  0.67458500  0.59534500  1
  H  573  1  0.29995900  0.67241100  0.63421100  1
  H  574  1  0.32983700  0.70066500  0.65472600  1
  H  575  1  0.30724600  0.72400800  0.67882600  1
  H  576  1  0.29498700  0.66975800  0.72151000  1
  H  577  1  0.31788900  0.64659200  0.69786000  1
  H  578  1  0.36825600  0.65011800  0.69471800  1
  H  579  1  0.37175900  0.68496800  0.63394700  1
  H  580  1  0.41249500  0.69353900  0.64083000  1
  H  585  1  0.40907400  0.65938600  0.70185600  1
  H  611  1  0.29456800  0.41284400  0.34206700  1
  H  612  1  0.29974400  0.37363100  0.34482800  1
  H  613  1  0.36951100  0.42126300  0.34155400  1
  H  614  1  0.37473800  0.38247900  0.34457100  1
  H  615  1  0.36608800  0.36326000  0.38252900  1
  H  616  1  0.35838000  0.36195200  0.42096000  1
  H  617  1  0.29260200  0.32978000  0.40873900  1
  H  618  1  0.29984300  0.33193500  0.36986700  1
  H  619  1  0.32969000  0.30363300  0.34935700  1
  H  620  1  0.30709900  0.28028900  0.32526200  1
  H  621  1  0.29490300  0.33451800  0.28253000  1
  H  622  1  0.31780300  0.35768400  0.30617800  1
  H  623  1  0.36815600  0.35422900  0.30935100  1
  H  624  1  0.37163700  0.31926100  0.37005800  1
  H  625  1  0.41238600  0.31071500  0.36318100  1
  H  630  1  0.40897900  0.34498900  0.30222400  1
  H  656  1  0.70955800  0.59145400  0.34214500  1
  H  657  1  0.70437800  0.63066600  0.34490500  1
  H  658  1  0.63461300  0.58302900  0.34157800  1
  H  659  1  0.62938100  0.62181400  0.34459700  1
  H  660  1  0.63809800  0.64099900  0.38260300  1
  H  661  1  0.64583200  0.64233000  0.42103300  1
  H  662  1  0.71154400  0.67459500  0.40876100  1
  H  663  1  0.70428300  0.67241500  0.36989300  1
  H  664  1  0.67440100  0.70067700  0.34937900  1
  H  665  1  0.69700400  0.72401100  0.32528400  1
  H  666  1  0.70928400  0.66975100  0.28261300  1
  H  667  1  0.68637300  0.64659300  0.30625600  1
  H  668  1  0.63598600  0.65010100  0.30939800  1
  H  669  1  0.63247800  0.68499900  0.37014100  1
  H  670  1  0.59172700  0.69354900  0.36326300  1
  H  675  1  0.59516200  0.65934400  0.30226900  1
  H  701  1  0.70965500  0.41285600  0.66204800  1
  H  702  1  0.70448400  0.37364500  0.65926800  1
  H  703  1  0.63471200  0.42128500  0.66258600  1
  H  704  1  0.62949000  0.38250600  0.65954600  1
  H  705  1  0.63817300  0.36332800  0.62157200  1
  H  706  1  0.64588400  0.36200900  0.58314100  1
  H  707  1  0.71161400  0.32973700  0.59536900  1
  H  708  1  0.70437300  0.33190500  0.63424100  1
  H  709  1  0.67452200  0.30363900  0.65475400  1
  H  710  1  0.69712400  0.28029200  0.67884400  1
  H  711  1  0.70935700  0.33452700  0.72155300  1
  H  712  1  0.68644700  0.35769600  0.69791500  1
  H  713  1  0.63608100  0.35420100  0.69475700  1
  H  714  1  0.63259500  0.31931900  0.63400900  1
  H  715  1  0.59185100  0.31075700  0.64088000  1
  H  720  1  0.59525100  0.34494200  0.70188600  1
  H  726  1  0.26262000  0.26350300  0.21045900  1
  H  728  1  0.22660200  0.22534300  0.25812000  1
  H  730  1  0.29343500  0.28804300  0.21845600  1
  H  731  1  0.30977500  0.28127100  0.24255100  1
  H  732  1  0.28763800  0.30250700  0.24328500  1
  H  734  1  0.25676400  0.24860500  0.30735400  1
  H  735  1  0.25094000  0.22206900  0.29620700  1
  H  736  1  0.22780500  0.24222800  0.29786600  1
  H  738  1  0.22812100  0.24142500  0.20018100  1
  H  740  1  0.29548400  0.26180100  0.29090700  1
  H  746  1  0.26275400  0.74078400  0.79362100  1
  H  748  1  0.22673500  0.77895800  0.74596700  1
  H  750  1  0.29356200  0.71623200  0.78562200  1
  H  751  1  0.30990600  0.72301100  0.76153200  1
  H  752  1  0.28777600  0.70177500  0.76078800  1
  H  754  1  0.25689500  0.75569000  0.69672900  1
  H  755  1  0.25107500  0.78222600  0.70788100  1
  H  756  1  0.22793600  0.76207900  0.70621500  1
  H  758  1  0.22827800  0.76288600  0.80391300  1
  H  760  1  0.29561500  0.74248300  0.71317800  1
  H  766  1  0.74155800  0.74074500  0.21050200  1
  H  768  1  0.77750600  0.77896900  0.25815600  1
  H  770  1  0.71076300  0.71618300  0.21850000  1
  H  771  1  0.69440300  0.72295800  0.24258100  1
  H  772  1  0.71655900  0.70174000  0.24334200  1
  H  774  1  0.74734100  0.75571000  0.30739100  1
  H  775  1  0.75313700  0.78224500  0.29622700  1
  H  776  1  0.77629600  0.76211200  0.29791300  1
  H  778  1  0.77602300  0.76285800  0.20022000  1
  H  780  1  0.70863300  0.74247600  0.29091800  1
  H  786  1  0.74161600  0.26349800  0.79364100  1
  H  788  1  0.77764000  0.22533300  0.74598200  1
  H  790  1  0.71080000  0.28804500  0.78564500  1
  H  791  1  0.69446100  0.28126700  0.76155200  1
  H  792  1  0.71658600  0.30250700  0.76081400  1
  H  794  1  0.74747900  0.24860600  0.69674500  1
  H  795  1  0.75330100  0.22206900  0.70789300  1
  H  796  1  0.77643700  0.24222000  0.70623300  1
  H  798  1  0.77611500  0.24141400  0.80392200  1
  H  800  1  0.70875900  0.26180400  0.71319100  1
  H  806  1  0.74255300  0.20994200  0.26269700  1
  H  808  1  0.77894000  0.25752200  0.22473500  1
  H  810  1  0.71170900  0.21803200  0.28719000  1
  H  811  1  0.69548600  0.24218200  0.28036400  1
  H  812  1  0.71753100  0.24284400  0.30167900  1
  H  814  1  0.74888900  0.30683400  0.24798400  1
  H  815  1  0.75477900  0.29570500  0.22145000  1
  H  816  1  0.77783900  0.29725700  0.24168900  1
  H  818  1  0.77692300  0.19949400  0.24060900  1
  H  820  1  0.70997600  0.29041500  0.26103000  1
  H  826  1  0.74269300  0.79434900  0.74142900  1
  H  828  1  0.77906700  0.74675800  0.77940200  1
  H  830  1  0.71184700  0.78627000  0.71693900  1
  H  831  1  0.69561300  0.76213600  0.72378100  1
  H  832  1  0.71764700  0.76145200  0.70245700  1
  H  834  1  0.74899200  0.69745900  0.75616900  1
  H  835  1  0.75489400  0.70858900  0.78269600  1
  H  836  1  0.77794800  0.70701500  0.76245400  1
  H  838  1  0.77707400  0.80478300  0.76351100  1
  H  840  1  0.71008000  0.71390200  0.74310900  1
  H  846  1  0.26170000  0.20993800  0.74141600  1
  H  848  1  0.22531200  0.25752200  0.77938500  1
  H  850  1  0.29254200  0.21802500  0.71692100  1
  H  851  1  0.30876200  0.24217400  0.72374600  1
  H  852  1  0.28671300  0.24283500  0.70243200  1
  H  854  1  0.25535500  0.30682900  0.75613600  1
  H  855  1  0.24946700  0.29570100  0.78266800  1
  H  856  1  0.22640500  0.29725700  0.76243200  1
  H  858  1  0.22732700  0.19949600  0.76350200  1
  H  860  1  0.29427400  0.29039900  0.74307900  1
  H  866  1  0.26153500  0.79434300  0.26267000  1
  H  868  1  0.22518800  0.74676000  0.22467800  1
  H  870  1  0.29237600  0.78625800  0.28716900  1
  H  871  1  0.30861900  0.76212300  0.28032700  1
  H  872  1  0.28657500  0.76143700  0.30164400  1
  H  874  1  0.25526700  0.69745500  0.24791200  1
  H  875  1  0.24937000  0.70859200  0.22138400  1
  H  876  1  0.22630900  0.70701500  0.24161900  1
  H  878  1  0.22715100  0.80477800  0.24058700  1
  H  880  1  0.29417000  0.71389600  0.26098600  1
  H  886  1  0.15233400  0.01715900  0.19575400  1
  H  888  1  0.19907400  0.02606500  0.14197000  1
  H  890  1  0.14646800  0.98349300  0.21384400  1
  H  891  1  0.17073300  0.96486900  0.21197500  1
  H  892  1  0.14539200  0.96170400  0.19436700  1
  H  894  1  0.21713800  0.96741200  0.13600800  1
  H  895  1  0.23114400  0.99353300  0.13817300  1
  H  896  1  0.20696100  0.98955700  0.11945000  1
  H  898  1  0.15149300  0.05103400  0.17253800  1
  H  900  1  0.20654700  0.95079800  0.17382700  1
  H  906  1  0.15250000  0.98715900  0.80823800  1
  H  908  1  0.19914400  0.97823400  0.86209300  1
  H  910  1  0.14667100  0.02082700  0.79013900  1
  H  911  1  0.17093300  0.03944400  0.79204800  1
  H  912  1  0.14556000  0.04261500  0.80961800  1
  H  914  1  0.21721200  0.03687900  0.86808000  1
  H  915  1  0.23121300  0.01074900  0.86593900  1
  H  916  1  0.20699900  0.01474100  0.88462600  1
  H  918  1  0.15161400  0.95328400  0.83143400  1
  H  920  1  0.20668100  0.05350500  0.83026600  1
  H  926  1  0.85175900  0.98714600  0.19583500  1
  H  928  1  0.80507100  0.97823200  0.14201200  1
  H  930  1  0.85760200  0.02081300  0.21392700  1
  H  931  1  0.83334000  0.03943700  0.21203500  1
  H  932  1  0.85869900  0.04260000  0.19444800  1
  H  934  1  0.78700000  0.03688200  0.13603600  1
  H  935  1  0.77299800  0.01075600  0.13819000  1
  H  936  1  0.79719700  0.01473900  0.11948500  1
  H  938  1  0.85261900  0.95326600  0.17265100  1
  H  940  1  0.79757400  0.05350600  0.17387700  1
  H  946  1  0.85189500  0.01712800  0.80834600  1
  H  948  1  0.80516100  0.02605800  0.86213300  1
  H  950  1  0.85775600  0.98345700  0.79026000  1
  H  951  1  0.83349000  0.96484000  0.79213400  1
  H  952  1  0.85883300  0.96167000  0.80974300  1
  H  954  1  0.78709000  0.96741100  0.86810400  1
  H  955  1  0.77308900  0.99353900  0.86593900  1
  H  956  1  0.79727400  0.98955200  0.88466100  1
  H  958  1  0.85274600  0.05100200  0.83156000  1
  H  960  1  0.79767900  0.95078600  0.83029300  1
  H  966  1  0.21241200  0.13329200  0.01908400  1
  H  968  1  0.16820800  0.18902700  0.02724300  1
  H  970  1  0.21789100  0.11493200  0.98532600  1
  H  971  1  0.21712200  0.13311400  0.96240600  1
  H  972  1  0.19207300  0.11591900  0.96847700  1
  H  974  1  0.15014800  0.19475700  0.96859800  1
  H  975  1  0.16057300  0.21115700  0.99070600  1
  H  976  1  0.13584400  0.19305300  0.99468000  1
  H  978  1  0.21196500  0.15704300  0.05452000  1
  H  980  1  0.15377400  0.15345300  0.95744500  1
  H  986  1  0.79176100  0.13330700  0.98503000  1
  H  988  1  0.83609100  0.18894000  0.97684800  1
  H  990  1  0.78623500  0.11497700  0.01879400  1
  H  991  1  0.78707200  0.13314800  0.04172100  1
  H  992  1  0.81207300  0.11589900  0.03561800  1
  H  994  1  0.85417300  0.19464000  0.03549200  1
  H  995  1  0.84378400  0.21106500  0.01338600  1
  H  996  1  0.86846400  0.19289800  0.00940600  1
  H  998  1  0.79224600  0.15710700  0.94958200  1
  H  1000  1  0.85042700  0.15327400  0.04664600  1
  H  1006  1  0.21254300  0.87097000  0.98500900  1
  H  1008  1  0.16814200  0.81538600  0.97681000  1
  H  1010  1  0.21806200  0.88930400  0.01877800  1
  H  1011  1  0.21718300  0.87112900  0.04170000  1
  H  1012  1  0.19221300  0.88841500  0.03559100  1
  H  1014  1  0.14999100  0.80972500  0.03543900  1
  H  1015  1  0.16038500  0.79328500  0.01334700  1
  H  1016  1  0.13572900  0.81147100  0.00933900  1
  H  1018  1  0.21204400  0.84717400  0.94955900  1
  H  1020  1  0.15377700  0.85107900  0.04658100  1
  H  1026  1  0.79171800  0.87099300  0.01910000  1
  H  1028  1  0.83607700  0.81537100  0.02730300  1
  H  1030  1  0.78620600  0.88932500  0.98533300  1
  H  1031  1  0.78708300  0.87116100  0.96240100  1
  H  1032  1  0.81206400  0.88842000  0.96853100  1
  H  1034  1  0.85421800  0.80969200  0.96867100  1
  H  1035  1  0.84381800  0.79325800  0.99076400  1
  H  1036  1  0.86848200  0.81143000  0.99477100  1
  H  1038  1  0.79218600  0.84716400  0.05454300  1
  H  1040  1  0.85044700  0.85107900  0.95752500  1
  H  1046  1  0.01782900  0.22034800  0.16420400  1
  H  1048  1  0.02908000  0.15895800  0.19547100  1
  H  1050  1  0.98064200  0.23732000  0.16088900  1
  H  1051  1  0.95971000  0.22960800  0.18138600  1
  H  1052  1  0.95863400  0.21736000  0.15453700  1
  H  1054  1  0.96587400  0.14613200  0.20703800  1
  H  1055  1  0.99313800  0.14706900  0.22173900  1
  H  1056  1  0.99143400  0.13343900  0.19565600  1
  H  1058  1  0.05733500  0.20549700  0.16623800  1
  H  1060  1  0.94608000  0.18270800  0.20522900  1
  H  1066  1  0.98630700  0.78395900  0.16419900  1
  H  1068  1  0.97504000  0.84532100  0.19551500  1
  H  1070  1  0.02350500  0.76701500  0.16084100  1
  H  1071  1  0.04445500  0.77473200  0.18132100  1
  H  1072  1  0.04548700  0.78699300  0.15447600  1
  H  1074  1  0.03824900  0.85818000  0.20703900  1
  H  1075  1  0.01099600  0.85721800  0.22175700  1
  H  1076  1  0.01267200  0.87086800  0.19568200  1
  H  1078  1  0.94679300  0.79877200  0.16629300  1
  H  1080  1  0.05806500  0.82159100  0.20518700  1
  H  1086  1  0.98638400  0.22034100  0.83986900  1
  H  1088  1  0.97517500  0.15894200  0.80861000  1
  H  1090  1  0.02356200  0.23731600  0.84320000  1
  H  1091  1  0.04450500  0.22960500  0.82270700  1
  H  1092  1  0.04557700  0.21736100  0.84955800  1
  H  1094  1  0.03839400  0.14612100  0.79707500  1
  H  1095  1  0.01113600  0.14705100  0.78236000  1
  H  1096  1  0.01283300  0.13342600  0.80844900  1
  H  1098  1  0.94687600  0.20551600  0.83776500  1
  H  1100  1  0.05816300  0.18269800  0.79887600  1
  H  1106  1  0.01795400  0.78397800  0.83985700  1
  H  1108  1  0.02919300  0.84535700  0.80856800  1
  H  1110  1  0.98076300  0.76703200  0.84321800  1
  H  1111  1  0.95980300  0.77476200  0.82274800  1
  H  1112  1  0.95877800  0.78700800  0.84960100  1
  H  1114  1  0.96597400  0.85822600  0.79707800  1
  H  1115  1  0.99322300  0.85727100  0.78234900  1
  H  1116  1  0.99155400  0.87090600  0.80843200  1
  H  1118  1  0.05748000  0.79874100  0.83766900  1
  H  1120  1  0.94617500  0.82163400  0.79890600  1
  H  1126  1  0.65241900  0.51838500  0.69581000  1
  H  1128  1  0.69931800  0.52681000  0.64207000  1
  H  1130  1  0.64635500  0.48482700  0.71406700  1
  H  1131  1  0.67049800  0.46605800  0.71229900  1
  H  1132  1  0.64515600  0.46296600  0.69467500  1
  H  1134  1  0.71699700  0.46803000  0.63634300  1
  H  1135  1  0.73119300  0.49407200  0.63843800  1
  H  1136  1  0.70699700  0.49018700  0.61970900  1
  H  1138  1  0.65164500  0.55203400  0.67189000  1
  H  1140  1  0.70638000  0.45169000  0.67415600  1
  H  1146  1  0.65232800  0.48595000  0.30833800  1
  H  1148  1  0.69920200  0.47748900  0.36209100  1
  H  1150  1  0.64627600  0.51951500  0.29008800  1
  H  1151  1  0.67042200  0.53827400  0.29186700  1
  H  1152  1  0.64507600  0.54137200  0.30948400  1
  H  1154  1  0.71690000  0.53625700  0.36783300  1
  H  1155  1  0.73108300  0.51020700  0.36574500  1
  H  1156  1  0.70688000  0.51410900  0.38446300  1
  H  1158  1  0.65153200  0.45229700  0.33224700  1
  H  1160  1  0.70628700  0.55262000  0.33001900  1
  H  1166  1  0.35192900  0.48593200  0.69574500  1
  H  1168  1  0.30503000  0.47748500  0.64201000  1
  H  1170  1  0.35798600  0.51949400  0.71399500  1
  H  1171  1  0.33384200  0.53826100  0.71222400  1
  H  1172  1  0.35918100  0.54135100  0.69459900  1
  H  1174  1  0.28733000  0.53625800  0.63627700  1
  H  1175  1  0.27314600  0.51021300  0.63837200  1
  H  1176  1  0.29733900  0.51410600  0.61964300  1
  H  1178  1  0.35270500  0.45227400  0.67185000  1
  H  1180  1  0.29797000  0.55261500  0.67411700  1
  H  1186  1  0.35181800  0.51835000  0.30830100  1
  H  1188  1  0.30490500  0.52680600  0.36202700  1
  H  1190  1  0.35788400  0.48478700  0.29005600  1
  H  1191  1  0.33374000  0.46602500  0.29182100  1
  H  1192  1  0.35907400  0.46292800  0.30945300  1
  H  1194  1  0.28720800  0.46803400  0.36775800  1
  H  1195  1  0.27302500  0.49408500  0.36566000  1
  H  1196  1  0.29721300  0.49018400  0.38439500  1
  H  1198  1  0.35259200  0.55200300  0.33220800  1
  H  1200  1  0.29785000  0.45167700  0.32994600  1
  H  1206  1  0.71140600  0.63291500  0.51814500  1
  H  1208  1  0.66877100  0.68967100  0.52640000  1
  H  1210  1  0.71645900  0.61453100  0.48437800  1
  H  1211  1  0.71652900  0.63286400  0.46157600  1
  H  1212  1  0.69086700  0.61634000  0.46730900  1
  H  1214  1  0.65128100  0.69621400  0.46769900  1
  H  1215  1  0.66198500  0.71218300  0.49000200  1
  H  1216  1  0.63671900  0.69466100  0.49367000  1
  H  1218  1  0.71151200  0.65633800  0.55362700  1
  H  1220  1  0.65367000  0.65526800  0.45625600  1
  H  1226  1  0.29278800  0.63290900  0.48596800  1
  H  1228  1  0.33550300  0.68959800  0.47769100  1
  H  1230  1  0.28770300  0.61455000  0.51974000  1
  H  1231  1  0.28767600  0.63287700  0.54254700  1
  H  1232  1  0.31331100  0.61631800  0.53679100  1
  H  1234  1  0.35300500  0.69613100  0.53639200  1
  H  1235  1  0.34232700  0.71211700  0.51408600  1
  H  1236  1  0.36756100  0.69454600  0.51042000  1
  H  1238  1  0.29270000  0.65638300  0.45047400  1
  H  1240  1  0.35054400  0.65515100  0.54784200  1
  H  1246  1  0.71142800  0.37139300  0.48598600  1
  H  1248  1  0.66868500  0.31471600  0.47774600  1
  H  1250  1  0.71654700  0.38975500  0.51975500  1
  H  1251  1  0.71661000  0.37141400  0.54255200  1
  H  1252  1  0.69097100  0.38798400  0.53684500  1
  H  1254  1  0.65124900  0.30817500  0.53646200  1
  H  1255  1  0.66189900  0.29219800  0.51414100  1
  H  1256  1  0.63666200  0.30976700  0.51050500  1
  H  1258  1  0.71146500  0.34794100  0.45048900  1
  H  1260  1  0.65371300  0.34912400  0.54791000  1
  H  1266  1  0.29283600  0.37141500  0.51812200  1
  H  1268  1  0.33555000  0.31470900  0.52636900  1
  H  1270  1  0.28772100  0.38977400  0.48435500  1
  H  1271  1  0.28766300  0.37144200  0.46154900  1
  H  1272  1  0.31330900  0.38799100  0.46727700  1
  H  1274  1  0.35298100  0.30815800  0.46765300  1
  H  1275  1  0.34232900  0.29218200  0.48997200  1
  H  1276  1  0.36757000  0.30974100  0.49361000  1
  H  1278  1  0.29277400  0.34793800  0.55361400  1
  H  1280  1  0.35052400  0.34913000  0.45620100  1
  H  1286  1  0.51755500  0.72022800  0.66368600  1
  H  1288  1  0.52948200  0.65913500  0.69531300  1
  H  1290  1  0.48021700  0.73694000  0.66049300  1
  H  1291  1  0.45950900  0.72925300  0.68119500  1
  H  1292  1  0.45829900  0.71680300  0.65444400  1
  H  1294  1  0.46646000  0.64602100  0.70741500  1
  H  1295  1  0.49384500  0.64721400  0.72190200  1
  H  1296  1  0.49200200  0.63338700  0.69593100  1
  H  1298  1  0.55722100  0.70563300  0.66557600  1
  H  1300  1  0.44636000  0.68253100  0.70543900  1
  H  1306  1  0.48679900  0.28407700  0.66367400  1
  H  1308  1  0.47483100  0.34513900  0.69534800  1
  H  1310  1  0.52414700  0.26738400  0.66047600  1
  H  1311  1  0.54485000  0.27507000  0.68118300  1
  H  1312  1  0.54605300  0.28753700  0.65443900  1
  H  1314  1  0.53784300  0.35826900  0.70747800  1
  H  1315  1  0.51045000  0.35705600  0.72195000  1
  H  1316  1  0.51230100  0.37090500  0.69599100  1
  H  1318  1  0.44712100  0.29863600  0.66559300  1
  H  1320  1  0.55796900  0.32174800  0.70546600  1
  H  1326  1  0.48666200  0.72020700  0.34038400  1
  H  1328  1  0.47475000  0.65912400  0.30874000  1
  H  1330  1  0.52400100  0.73690900  0.34359500  1
  H  1331  1  0.54472100  0.72921600  0.32290500  1
  H  1332  1  0.54591300  0.71676400  0.34965600  1
  H  1334  1  0.53777900  0.64599700  0.29666200  1
  H  1335  1  0.51039600  0.64719500  0.28217000  1
  H  1336  1  0.51223500  0.63336400  0.30813900  1
  H  1338  1  0.44698300  0.70566400  0.33840400  1
  H  1340  1  0.55788300  0.68253300  0.29866400  1
  H  1346  1  0.51746200  0.28409500  0.34036200  1
  H  1348  1  0.52940100  0.34518000  0.30873000  1
  H  1350  1  0.48012000  0.26739900  0.34355900  1
  H  1351  1  0.45940700  0.27510300  0.32286300  1
  H  1352  1  0.45821100  0.28754800  0.34961800  1
  H  1354  1  0.46637900  0.35832300  0.29663400  1
  H  1355  1  0.49376800  0.35712000  0.28215000  1
  H  1356  1  0.49192300  0.37094900  0.30812000  1
  H  1358  1  0.55714800  0.29860800  0.33836000  1
  H  1360  1  0.44627000  0.32180000  0.29861600  1
  C  1  1  0.09088900  0.17512600  0.17664800  1
  C  2  1  0.10194800  0.15623000  0.18589400  1
  C  3  1  0.12591100  0.15097200  0.18083800  1
  C  4  1  0.13957600  0.16379700  0.16557100  1
  C  5  1  0.12902000  0.18412700  0.15854900  1
  C  6  1  0.10502300  0.18945400  0.16344200  1
  C  7  1  0.16466500  0.15708700  0.15762100  1
  C  8  1  0.18038800  0.17202900  0.17220400  1
  C  9  1  0.18960100  0.19276200  0.16478100  1
  C  10  1  0.20283800  0.20692700  0.17880800  1
  C  11  1  0.20698300  0.20135700  0.20131600  1
  C  12  1  0.19706500  0.18131600  0.20923900  1
  C  13  1  0.18373500  0.16727200  0.19514600  1
  C  14  1  0.16965700  0.13211600  0.15976900  1
  C  15  1  0.16844500  0.16013200  0.13254300  1
  C  16  1  0.19189900  0.16031200  0.12325000  1
  C  17  1  0.19586400  0.16143800  0.10014800  1
  C  18  1  0.17635900  0.16174900  0.08518300  1
  C  19  1  0.15300700  0.16073300  0.09396700  1
  C  20  1  0.14921300  0.15953200  0.11702400  1
  C  21  1  0.15270200  0.11638800  0.15170000  1
  C  22  1  0.15666200  0.09336800  0.15287900  1
  C  23  1  0.17825300  0.08488600  0.16168500  1
  C  24  1  0.19611000  0.10014200  0.16813700  1
  C  25  1  0.19192800  0.12323000  0.16706200  1
  C  46  1  0.09101300  0.82915900  0.82737300  1
  C  47  1  0.10207800  0.84804700  0.81812100  1
  C  48  1  0.12604900  0.85328900  0.82315900  1
  C  49  1  0.13968600  0.84050000  0.83848000  1
  C  50  1  0.12911700  0.82019400  0.84554600  1
  C  51  1  0.10512600  0.81486500  0.84063900  1
  C  52  1  0.16476600  0.84722400  0.84643600  1
  C  53  1  0.18050100  0.83228800  0.83185600  1
  C  54  1  0.18967500  0.81153600  0.83927600  1
  C  55  1  0.20291200  0.79736100  0.82525400  1
  C  56  1  0.20710300  0.80294400  0.80275900  1
  C  57  1  0.19722600  0.82300300  0.79483600  1
  C  58  1  0.18389600  0.83705900  0.80892400  1
  C  59  1  0.16974000  0.87219500  0.84429000  1
  C  60  1  0.16852500  0.84418000  0.87151600  1
  C  61  1  0.19197600  0.84397500  0.88081800  1
  C  62  1  0.19593400  0.84286300  0.90392300  1
  C  63  1  0.17642500  0.84262300  0.91888300  1
  C  64  1  0.15307800  0.84369300  0.91009300  1
  C  65  1  0.14929400  0.84486100  0.88703300  1
  C  66  1  0.15275600  0.88793000  0.85229700  1
  C  67  1  0.15671500  0.91095000  0.85111600  1
  C  68  1  0.17833600  0.91942300  0.84236900  1
  C  69  1  0.19621700  0.90416100  0.83597800  1
  C  70  1  0.19203500  0.88107500  0.83705900  1
  C  91  1  0.91322600  0.82912600  0.17671800  1
  C  92  1  0.90215600  0.84799900  0.18600200  1
  C  93  1  0.87818600  0.85325000  0.18096300  1
  C  94  1  0.86455300  0.84047800  0.16562700  1
  C  95  1  0.87512300  0.82017100  0.15855200  1
  C  96  1  0.89910900  0.81482700  0.16346700  1
  C  97  1  0.83947200  0.84721100  0.15767600  1
  C  98  1  0.82372900  0.83227900  0.17224700  1
  C  99  1  0.81458200  0.81151500  0.16484300  1
  C  100  1  0.80134800  0.79734200  0.17886600  1
  C  101  1  0.79715200  0.80293100  0.20135900  1
  C  102  1  0.80702000  0.82299400  0.20927400  1
  C  103  1  0.82034600  0.83704400  0.19518200  1
  C  104  1  0.83449800  0.87218200  0.15983900  1
  C  105  1  0.83570000  0.84417300  0.13259900  1
  C  106  1  0.81225200  0.84397000  0.12329000  1
  C  107  1  0.80829800  0.84285900  0.10018600  1
  C  108  1  0.82780800  0.84261600  0.08522800  1
  C  109  1  0.85115300  0.84369200  0.09402100  1
  C  110  1  0.85493100  0.84486500  0.11708100  1
  C  111  1  0.85148100  0.88791100  0.15182500  1
  C  112  1  0.84751800  0.91093200  0.15298600  1
  C  113  1  0.82589400  0.91941600  0.16172300  1
  C  114  1  0.80800900  0.90416000  0.16810900  1
  C  115  1  0.81219300  0.88107300  0.16703700  1
  C  136  1  0.91335700  0.17508400  0.82745500  1
  C  137  1  0.90231800  0.15616500  0.81824800  1
  C  138  1  0.87834600  0.15092100  0.82328300  1
  C  139  1  0.86467100  0.16376200  0.83853100  1
  C  140  1  0.87522500  0.18409200  0.84554900  1
  C  141  1  0.89921000  0.18943400  0.84063000  1
  C  142  1  0.83957900  0.15706400  0.84647800  1
  C  143  1  0.82386000  0.17201400  0.83189600  1
  C  144  1  0.81461600  0.19273400  0.83932500  1
  C  145  1  0.80138100  0.20690100  0.82529800  1
  C  146  1  0.79726200  0.20134600  0.80278400  1
  C  147  1  0.80720800  0.18131800  0.79485200  1
  C  148  1  0.82053500  0.16726800  0.80894900  1
  C  149  1  0.83458400  0.13209400  0.84432800  1
  C  150  1  0.83581000  0.16011900  0.87155600  1
  C  151  1  0.81235400  0.16026500  0.88085000  1
  C  152  1  0.80838000  0.16138500  0.90395100  1
  C  153  1  0.82788000  0.16170400  0.91892000  1
  C  154  1  0.85123500  0.16068400  0.91013900  1
  C  155  1  0.85503500  0.15951100  0.88708300  1
  C  156  1  0.85152600  0.11636000  0.85241500  1
  C  157  1  0.84756400  0.09334200  0.85123100  1
  C  158  1  0.82599100  0.08486700  0.84238900  1
  C  159  1  0.80814000  0.10013000  0.83592600  1
  C  160  1  0.81232200  0.12321600  0.83700600  1
  C  181  1  0.91465100  0.17784500  0.17156800  1
  C  182  1  0.90303500  0.18577700  0.15238900  1
  C  183  1  0.87895200  0.18034700  0.14815000  1
  C  184  1  0.86587600  0.16565400  0.16213600  1
  C  185  1  0.87718100  0.15973500  0.18248900  1
  C  186  1  0.90124800  0.16522500  0.18694700  1
  C  187  1  0.84076800  0.15698000  0.15641400  1
  C  188  1  0.82512300  0.17156700  0.17144100  1
  C  189  1  0.81620600  0.16427200  0.19233300  1
  C  190  1  0.80299000  0.17832200  0.20649800  1
  C  191  1  0.79854700  0.20073700  0.20076100  1
  C  192  1  0.80821000  0.20856600  0.18057700  1
  C  193  1  0.82152000  0.19444800  0.16653500  1
  C  194  1  0.83499800  0.15838200  0.13151500  1
  C  195  1  0.83780800  0.13189700  0.16021400  1
  C  196  1  0.81463900  0.12201100  0.16081800  1
  C  197  1  0.81137000  0.09884000  0.16248300  1
  C  198  1  0.83131200  0.08438200  0.16276100  1
  C  199  1  0.85436300  0.09371200  0.16106400  1
  C  200  1  0.85747500  0.11684100  0.15965500  1
  C  201  1  0.85142500  0.14960400  0.11569500  1
  C  202  1  0.84708800  0.15031200  0.09273200  1
  C  203  1  0.82560000  0.15942200  0.08427400  1
  C  204  1  0.80836900  0.16690100  0.09971600  1
  C  205  1  0.81284900  0.16612800  0.12277700  1
  C  226  1  0.91475900  0.82648100  0.83257000  1
  C  227  1  0.90313200  0.81848300  0.85171400  1
  C  228  1  0.87904100  0.82388900  0.85595100  1
  C  229  1  0.86597100  0.83862000  0.84199700  1
  C  230  1  0.87726300  0.84456100  0.82164500  1
  C  231  1  0.90134600  0.83910600  0.81719900  1
  C  232  1  0.84086300  0.84729100  0.84774000  1
  C  233  1  0.82520700  0.83272100  0.83271300  1
  C  234  1  0.81634600  0.83999900  0.81179300  1
  C  235  1  0.80313600  0.82595000  0.79762300  1
  C  236  1  0.79866300  0.80354600  0.80337500  1
  C  237  1  0.80829600  0.79572300  0.82357400  1
  C  238  1  0.82160100  0.80984100  0.83761700  1
  C  239  1  0.83509800  0.84586300  0.87263700  1
  C  240  1  0.83789100  0.87237400  0.84396100  1
  C  241  1  0.81472700  0.88227200  0.84332300  1
  C  242  1  0.81146300  0.90544600  0.84167000  1
  C  243  1  0.83140700  0.91989700  0.84143200  1
  C  244  1  0.85445300  0.91055700  0.84316600  1
  C  245  1  0.85755400  0.88742500  0.84458400  1
  C  246  1  0.85154000  0.85460300  0.88846400  1
  C  247  1  0.84718800  0.85391400  0.91142500  1
  C  248  1  0.82566800  0.84486700  0.91987500  1
  C  249  1  0.80842500  0.83743100  0.90442600  1
  C  250  1  0.81291700  0.83819300  0.88136800  1
  C  271  1  0.08958300  0.17783800  0.83255200  1
  C  272  1  0.10119100  0.18576600  0.85173400  1
  C  273  1  0.12527400  0.18033500  0.85597600  1
  C  274  1  0.13836700  0.16567000  0.84197200  1
  C  275  1  0.12708600  0.15978800  0.82159900  1
  C  276  1  0.10301000  0.16526700  0.81714600  1
  C  277  1  0.16347900  0.15699200  0.84769400  1
  C  278  1  0.17912300  0.17157600  0.83266700  1
  C  279  1  0.18805600  0.16427500  0.81178200  1
  C  280  1  0.20128100  0.17832000  0.79762200  1
  C  281  1  0.20570500  0.20073900  0.80335000  1
  C  282  1  0.19601500  0.20857700  0.82352100  1
  C  283  1  0.18270200  0.19446100  0.83755900  1
  C  284  1  0.16925100  0.15839500  0.87259100  1
  C  285  1  0.16643400  0.13190700  0.84389200  1
  C  286  1  0.18960300  0.12201300  0.84330300  1
  C  287  1  0.19287100  0.09884100  0.84163500  1
  C  288  1  0.17292600  0.08439000  0.84135100  1
  C  289  1  0.14987400  0.09372900  0.84301700  1
  C  290  1  0.14676700  0.11685800  0.84443900  1
  C  291  1  0.15283300  0.14960800  0.88841400  1
  C  292  1  0.15718100  0.15030100  0.91137500  1
  C  293  1  0.17865200  0.15944100  0.91983200  1
  C  294  1  0.19587100  0.16693200  0.90438900  1
  C  295  1  0.19139200  0.16615800  0.88132800  1
  C  316  1  0.08948100  0.82647100  0.17153100  1
  C  317  1  0.10110500  0.81850500  0.15237100  1
  C  318  1  0.12519200  0.82392300  0.14813500  1
  C  319  1  0.13825800  0.83864400  0.16209800  1
  C  320  1  0.12695000  0.84459200  0.18244300  1
  C  321  1  0.10288100  0.83910600  0.18690200  1
  C  322  1  0.16336600  0.84731200  0.15636500  1
  C  323  1  0.17900900  0.83272500  0.17139100  1
  C  324  1  0.18789900  0.84001200  0.19229600  1
  C  325  1  0.20110900  0.82596000  0.20646500  1
  C  326  1  0.20557900  0.80355300  0.20071300  1
  C  327  1  0.19593900  0.79573100  0.18051700  1
  C  328  1  0.18262900  0.80984900  0.16647700  1
  C  329  1  0.16913500  0.84590400  0.13146800  1
  C  330  1  0.16633700  0.87239500  0.16015600  1
  C  331  1  0.18950100  0.88228700  0.16079400  1
  C  332  1  0.19276300  0.90545900  0.16245100  1
  C  333  1  0.17281800  0.91991600  0.16269700  1
  C  334  1  0.14977300  0.91058000  0.16096400  1
  C  335  1  0.14667100  0.88745100  0.15955000  1
  C  336  1  0.15269300  0.85464300  0.11564100  1
  C  337  1  0.15704400  0.85394500  0.09267900  1
  C  338  1  0.17855800  0.84487900  0.08423100  1
  C  339  1  0.19579600  0.83743200  0.09968000  1
  C  340  1  0.19130600  0.83820100  0.12273900  1
  C  361  1  0.59102300  0.67545600  0.67607600  1
  C  362  1  0.60193900  0.65621100  0.68471200  1
  C  363  1  0.62591100  0.65105000  0.67961700  1
  C  364  1  0.63978100  0.66437500  0.66493700  1
  C  365  1  0.62934300  0.68498100  0.65858400  1
  C  366  1  0.60531800  0.69021100  0.66350100  1
  C  367  1  0.66494100  0.65792900  0.65689700  1
  C  368  1  0.68068900  0.67315700  0.67120500  1
  C  369  1  0.69100500  0.69321000  0.66315100  1
  C  370  1  0.70433300  0.70753900  0.67692900  1
  C  371  1  0.70725500  0.70301000  0.69973700  1
  C  372  1  0.69638900  0.68362000  0.70833500  1
  C  373  1  0.68319900  0.66928200  0.69441600  1
  C  374  1  0.67015200  0.63300500  0.65927200  1
  C  375  1  0.66854400  0.66084500  0.63175900  1
  C  376  1  0.69192100  0.66000600  0.62232100  1
  C  377  1  0.69580800  0.66104500  0.59921000  1
  C  378  1  0.67626200  0.66232700  0.58434900  1
  C  379  1  0.65293700  0.66237200  0.59326000  1
  C  380  1  0.64921400  0.66125600  0.61633700  1
  C  381  1  0.65373700  0.61717700  0.65045300  1
  C  382  1  0.65772800  0.59417900  0.65186300  1
  C  383  1  0.67879500  0.58580600  0.66178700  1
  C  384  1  0.69615100  0.60114500  0.66915700  1
  C  385  1  0.69194000  0.62421800  0.66782600  1
  C  406  1  0.59093000  0.32885200  0.32802000  1
  C  407  1  0.60184400  0.34810800  0.31941100  1
  C  408  1  0.62581900  0.35325500  0.32450000  1
  C  409  1  0.63967100  0.33994600  0.33921100  1
  C  410  1  0.62921800  0.31935800  0.34559200  1
  C  411  1  0.60520800  0.31411400  0.34063500  1
  C  412  1  0.66483000  0.34638700  0.34725000  1
  C  413  1  0.68057600  0.33116200  0.33293400  1
  C  414  1  0.69087900  0.31109800  0.34098700  1
  C  415  1  0.70420600  0.29676300  0.32721100  1
  C  416  1  0.70714000  0.30129500  0.30440500  1
  C  417  1  0.69629400  0.32070000  0.29581000  1
  C  418  1  0.68310500  0.33504200  0.30972800  1
  C  419  1  0.67003200  0.37131200  0.34488300  1
  C  420  1  0.66843100  0.34346200  0.37238500  1
  C  421  1  0.69181300  0.34429800  0.38181500  1
  C  422  1  0.69571500  0.34327300  0.40492500  1
  C  423  1  0.67617400  0.34203800  0.41979700  1
  C  424  1  0.65284600  0.34201700  0.41089700  1
  C  425  1  0.64911200  0.34310300  0.38782100  1
  C  426  1  0.65360700  0.38714300  0.35368700  1
  C  427  1  0.65759200  0.41014100  0.35226600  1
  C  428  1  0.67866700  0.41850800  0.34236300  1
  C  429  1  0.69603400  0.40316800  0.33501100  1
  C  430  1  0.69182600  0.38009400  0.33634400  1
  C  451  1  0.41330700  0.32881100  0.67607100  1
  C  452  1  0.40238200  0.34804400  0.68472500  1
  C  453  1  0.37840900  0.35320200  0.67963300  1
  C  454  1  0.36456400  0.33991100  0.66490200  1
  C  455  1  0.37501400  0.31932100  0.65851200  1
  C  456  1  0.39902900  0.31407600  0.66346000  1
  C  457  1  0.33940700  0.34636900  0.65686400  1
  C  458  1  0.32365000  0.33115100  0.67116900  1
  C  459  1  0.31338300  0.31107000  0.66312900  1
  C  460  1  0.30006000  0.29673400  0.67690500  1
  C  461  1  0.29710900  0.30127800  0.69970700  1
  C  462  1  0.30793900  0.32068800  0.70829800  1
  C  463  1  0.32112300  0.33503100  0.69437800  1
  C  464  1  0.33421300  0.37129500  0.65924800  1
  C  465  1  0.33579700  0.34345600  0.63173100  1
  C  466  1  0.31241700  0.34428900  0.62229400  1
  C  467  1  0.30852200  0.34326600  0.59918500  1
  C  468  1  0.32806500  0.34203400  0.58431600  1
  C  469  1  0.35139100  0.34202000  0.59322100  1
  C  470  1  0.35511800  0.34310600  0.61629700  1
  C  471  1  0.35064200  0.38712100  0.65044800  1
  C  472  1  0.34665400  0.41012000  0.65184700  1
  C  473  1  0.32557000  0.41849700  0.66173000  1
  C  474  1  0.30819200  0.40316400  0.66906900  1
  C  475  1  0.31240100  0.38008800  0.66774600  1
  C  496  1  0.41321400  0.67542100  0.32802300  1
  C  497  1  0.40231100  0.65615900  0.31941800  1
  C  498  1  0.37833300  0.65101200  0.32449600  1
  C  499  1  0.36445600  0.66434600  0.33916500  1
  C  500  1  0.37489700  0.68494700  0.34552100  1
  C  501  1  0.39891000  0.69019100  0.34057700  1
  C  502  1  0.33929400  0.65791000  0.34720400  1
  C  503  1  0.32355000  0.67314000  0.33289300  1
  C  504  1  0.31321800  0.69318900  0.34094900  1
  C  505  1  0.29989000  0.70752000  0.32716800  1
  C  506  1  0.29698200  0.70299700  0.30435700  1
  C  507  1  0.30785900  0.68360900  0.29576000  1
  C  508  1  0.32104900  0.66926900  0.30968200  1
  C  509  1  0.33408400  0.63298500  0.34482800  1
  C  510  1  0.33570200  0.66083800  0.37233900  1
  C  511  1  0.31232500  0.65997900  0.38177900  1
  C  512  1  0.30843200  0.66100700  0.40489000  1
  C  513  1  0.32797700  0.66228600  0.41975200  1
  C  514  1  0.35130200  0.66232800  0.41084400  1
  C  515  1  0.35502600  0.66122600  0.38776900  1
  C  516  1  0.35049200  0.61715400  0.35366000  1
  C  517  1  0.34650500  0.59415800  0.35223600  1
  C  518  1  0.32545100  0.58579000  0.34229500  1
  C  519  1  0.30809200  0.60113200  0.33493000  1
  C  520  1  0.31230200  0.62420400  0.33626200  1
  C  541  1  0.41475000  0.67716400  0.67188600  1
  C  542  1  0.40325000  0.68450200  0.65241800  1
  C  543  1  0.37916000  0.67904100  0.64827500  1
  C  544  1  0.36590500  0.66491100  0.66269900  1
  C  545  1  0.37712200  0.65959600  0.68326300  1
  C  546  1  0.40121200  0.66511900  0.68762400  1
  C  547  1  0.34072300  0.65617900  0.65725500  1
  C  548  1  0.32508700  0.67050700  0.67258200  1
  C  549  1  0.31514300  0.66258500  0.69285300  1
  C  550  1  0.30181100  0.67637600  0.70717200  1
  C  551  1  0.29854200  0.69909900  0.70242700  1
  C  552  1  0.30906700  0.70759700  0.68283600  1
  C  553  1  0.32224600  0.69365500  0.66850500  1
  C  554  1  0.33469800  0.65782600  0.63240900  1
  C  555  1  0.33794100  0.63103600  0.66092100  1
  C  556  1  0.31484200  0.62097600  0.66065700  1
  C  557  1  0.31167500  0.59779200  0.66222000  1
  C  558  1  0.33169800  0.58347200  0.66330000  1
  C  559  1  0.35473200  0.59295700  0.66248000  1
  C  560  1  0.35772900  0.61610900  0.66117900  1
  C  561  1  0.35057000  0.64837100  0.61647800  1
  C  562  1  0.34613100  0.64929000  0.59354100  1
  C  563  1  0.32516800  0.65948800  0.58521300  1
  C  564  1  0.30844500  0.66772900  0.60074200  1
  C  565  1  0.31299800  0.66666667  0.62378500  1
  C  586  1  0.41465000  0.32715100  0.33216000  1
  C  587  1  0.40313700  0.31975700  0.35159800  1
  C  588  1  0.37904100  0.32520100  0.35573800  1
  C  589  1  0.36579400  0.33936300  0.34133600  1
  C  590  1  0.37699800  0.34468300  0.32076700  1
  C  591  1  0.40110300  0.33919100  0.31642000  1
  C  592  1  0.34061500  0.34810000  0.34679800  1
  C  593  1  0.32496200  0.33378400  0.33148200  1
  C  594  1  0.31506100  0.34169000  0.31118500  1
  C  595  1  0.30173400  0.32790000  0.29686600  1
  C  596  1  0.29843200  0.30518700  0.30163300  1
  C  597  1  0.30893600  0.29669500  0.32123800  1
  C  598  1  0.32211700  0.31063900  0.33556600  1
  C  599  1  0.33461400  0.34644800  0.37164800  1
  C  600  1  0.33781700  0.37324200  0.34314000  1
  C  601  1  0.31472400  0.38331300  0.34338900  1
  C  602  1  0.31155600  0.40649700  0.34181800  1
  C  603  1  0.33158100  0.42081100  0.34076400  1
  C  604  1  0.35461400  0.41132000  0.34159700  1
  C  605  1  0.35760600  0.38816700  0.34291100  1
  C  606  1  0.35050400  0.35589200  0.38756700  1
  C  607  1  0.34608400  0.35497900  0.41050700  1
  C  608  1  0.32510900  0.34481900  0.41885000  1
  C  609  1  0.30835900  0.33660400  0.40333300  1
  C  610  1  0.31289900  0.33761700  0.38028800  1
  C  631  1  0.58947800  0.67714000  0.33222500  1
  C  632  1  0.60097800  0.68450300  0.35168100  1
  C  633  1  0.62507000  0.67904700  0.35582800  1
  C  634  1  0.63833600  0.66492700  0.34140100  1
  C  635  1  0.62713700  0.65962600  0.32082500  1
  C  636  1  0.60303200  0.66511600  0.31647900  1
  C  637  1  0.66352000  0.65619300  0.34685300  1
  C  638  1  0.67915500  0.67051700  0.33152600  1
  C  639  1  0.68910100  0.66259100  0.31125500  1
  C  640  1  0.70244200  0.67637700  0.29694100  1
  C  641  1  0.70571200  0.69909800  0.30168600  1
  C  642  1  0.69517900  0.70760200  0.32127300  1
  C  643  1  0.68199200  0.69366500  0.33559900  1
  C  644  1  0.66954000  0.65784400  0.37169700  1
  C  645  1  0.66630100  0.63105000  0.34319200  1
  C  646  1  0.68940000  0.62098200  0.34345600  1
  C  647  1  0.69256800  0.59779800  0.34189400  1
  C  648  1  0.67254400  0.58348300  0.34082800  1
  C  649  1  0.64951000  0.59297200  0.34163500  1
  C  650  1  0.64651500  0.61612500  0.34294700  1
  C  651  1  0.65366700  0.64839800  0.38763200  1
  C  652  1  0.65810600  0.64931900  0.41056700  1
  C  653  1  0.67906500  0.65952200  0.41889500  1
  C  654  1  0.69579400  0.66774700  0.40336500  1
  C  655  1  0.69124100  0.66666667  0.38032300  1
  C  676  1  0.58959100  0.32714000  0.67192900  1
  C  677  1  0.60109600  0.31979000  0.65247200  1
  C  678  1  0.62518900  0.32524400  0.64833300  1
  C  679  1  0.63843600  0.33938600  0.66275400  1
  C  680  1  0.62721900  0.34470000  0.68332000  1
  C  681  1  0.60312700  0.33917800  0.68767600  1
  C  682  1  0.66361600  0.34812000  0.65730400  1
  C  683  1  0.67925500  0.33378800  0.67262600  1
  C  684  1  0.68919600  0.34170500  0.69290100  1
  C  685  1  0.70251700  0.32790900  0.70722200  1
  C  686  1  0.70580800  0.30519300  0.70246200  1
  C  687  1  0.69529000  0.29670000  0.68286500  1
  C  688  1  0.68210500  0.31064400  0.66853900  1
  C  689  1  0.66962800  0.34648300  0.63245900  1
  C  690  1  0.66641100  0.37326100  0.66097600  1
  C  691  1  0.68950400  0.38332900  0.66071900  1
  C  692  1  0.69266600  0.40651300  0.66228200  1
  C  693  1  0.67264100  0.42082800  0.66337200  1
  C  694  1  0.64961000  0.41134000  0.66254900  1
  C  695  1  0.64661900  0.38818700  0.66123400  1
  C  696  1  0.65374700  0.35593800  0.61653600  1
  C  697  1  0.65817100  0.35502000  0.59359800  1
  C  698  1  0.67913000  0.34482700  0.58525600  1
  C  699  1  0.69586800  0.33658700  0.60077500  1
  C  700  1  0.69132700  0.33760600  0.62382000  1
  C  721  1  0.24261600  0.24272100  0.23161600  1
  C  722  1  0.25986100  0.25919100  0.22673000  1
  C  723  1  0.27377700  0.26960300  0.24343200  1
  C  724  1  0.27010300  0.26365000  0.26615600  1
  C  725  1  0.25254600  0.24719500  0.27148000  1
  C  727  1  0.23922500  0.23706100  0.25416200  1
  C  729  1  0.29214100  0.28623900  0.23646900  1
  C  733  1  0.24685700  0.23973100  0.29453000  1
  C  737  1  0.22944700  0.23306500  0.21436300  1
  C  739  1  0.28492100  0.27228600  0.28272600  1
  C  741  1  0.24274500  0.76157000  0.77246700  1
  C  742  1  0.25998600  0.74508900  0.77735000  1
  C  743  1  0.27390300  0.73467900  0.76064600  1
  C  744  1  0.27022800  0.74063300  0.73792400  1
  C  745  1  0.25267300  0.75709600  0.73260300  1
  C  747  1  0.23935200  0.76723300  0.74992200  1
  C  749  1  0.29227200  0.71804100  0.76760900  1
  C  753  1  0.24698800  0.76456700  0.70955400  1
  C  757  1  0.22958300  0.77123300  0.78972400  1
  C  759  1  0.28505400  0.73199900  0.72135800  1
  C  761  1  0.76153000  0.76155800  0.23165600  1
  C  762  1  0.74430300  0.74506900  0.22677300  1
  C  763  1  0.73039000  0.73465600  0.24347300  1
  C  764  1  0.73404600  0.74062000  0.26619700  1
  C  765  1  0.75157800  0.75710000  0.27151700  1
  C  767  1  0.76490100  0.76723400  0.25419900  1
  C  769  1  0.71204600  0.71800000  0.23651200  1
  C  773  1  0.75724400  0.76458500  0.29456500  1
  C  777  1  0.77469500  0.77121500  0.21440300  1
  C  779  1  0.71921900  0.73199100  0.28276300  1
  C  781  1  0.76162600  0.24271700  0.77248400  1
  C  782  1  0.74438300  0.25919500  0.77736800  1
  C  783  1  0.73046500  0.26960500  0.76066600  1
  C  784  1  0.73414000  0.26365300  0.73794200  1
  C  785  1  0.75169800  0.24719400  0.73262100  1
  C  787  1  0.76501900  0.23705800  0.74993900  1
  C  789  1  0.71209300  0.28623900  0.76763200  1
  C  793  1  0.75738600  0.23972800  0.70957100  1
  C  797  1  0.77479400  0.23305700  0.78973900  1
  C  799  1  0.71931300  0.27228900  0.72137800  1
  C  801  1  0.76274300  0.23105000  0.24201600  1
  C  802  1  0.74541000  0.22620800  0.25842500  1
  C  803  1  0.73153900  0.24294800  0.26882600  1
  C  804  1  0.73534400  0.26566500  0.26292900  1
  C  805  1  0.75298000  0.27094800  0.24653300  1
  C  807  1  0.76626200  0.25359300  0.23641100  1
  C  809  1  0.71307700  0.23604100  0.28539400  1
  C  813  1  0.75878500  0.29398800  0.23912200  1
  C  817  1  0.77585300  0.21375400  0.23235500  1
  C  819  1  0.72054900  0.28226600  0.27153000  1
  C  821  1  0.76287900  0.77323400  0.76211300  1
  C  822  1  0.74555400  0.77808200  0.74569700  1
  C  823  1  0.73167000  0.76134700  0.73530600  1
  C  824  1  0.73546600  0.73863100  0.74121300  1
  C  825  1  0.75310200  0.73334100  0.75760600  1
  C  827  1  0.76639200  0.75069000  0.76772200  1
  C  829  1  0.71320400  0.76826300  0.71874000  1
  C  833  1  0.75889700  0.71029800  0.76502200  1
  C  837  1  0.77599600  0.79052500  0.77176900  1
  C  839  1  0.72066200  0.72203900  0.73261300  1
  C  841  1  0.24151000  0.23104800  0.76210000  1
  C  842  1  0.25884100  0.22620500  0.74568700  1
  C  843  1  0.27271100  0.24294300  0.73528700  1
  C  844  1  0.26890200  0.26566100  0.74118500  1
  C  845  1  0.25126600  0.27094500  0.75758300  1
  C  847  1  0.23799000  0.25359200  0.76770600  1
  C  849  1  0.29117100  0.23603400  0.71871700  1
  C  853  1  0.24545900  0.29398500  0.76499600  1
  C  857  1  0.22840400  0.21375300  0.77176100  1
  C  859  1  0.28369100  0.28226100  0.73258400  1
  C  861  1  0.24136300  0.77323300  0.24197600  1
  C  862  1  0.25868200  0.77807500  0.25839900  1
  C  863  1  0.27256600  0.76133900  0.26879100  1
  C  864  1  0.26877700  0.73862300  0.26288000  1
  C  865  1  0.25114800  0.73333900  0.24647900  1
  C  867  1  0.23785700  0.75069000  0.23636300  1
  C  869  1  0.29102200  0.76825100  0.28536300  1
  C  873  1  0.24536000  0.71029700  0.23905600  1
  C  877  1  0.22824800  0.79052600  0.23231900  1
  C  879  1  0.28358000  0.72202900  0.27148000  1
  C  881  1  0.17508400  0.02507400  0.16899100  1
  C  882  1  0.16425300  0.01068300  0.18452800  1
  C  883  1  0.16924300  0.98764800  0.18499100  1
  C  884  1  0.18544100  0.97854700  0.16902700  1
  C  885  1  0.19677300  0.99287500  0.15330300  1
  C  887  1  0.19137900  0.01587300  0.15360200  1
  C  889  1  0.15726300  0.97374300  0.20226800  1
  C  893  1  0.21390800  0.98526200  0.13585800  1
  C  897  1  0.16828800  0.04729400  0.16832800  1
  C  899  1  0.19039000  0.95592000  0.16914200  1
  C  901  1  0.17520200  0.97923600  0.83503700  1
  C  902  1  0.16440200  0.99363000  0.81948000  1
  C  903  1  0.16939400  0.01666300  0.81902800  1
  C  904  1  0.18556500  0.02575800  0.83501600  1
  C  905  1  0.19686800  0.01142600  0.85075700  1
  C  907  1  0.19146700  0.98843100  0.85045500  1
  C  909  1  0.15744500  0.03057300  0.80173400  1
  C  913  1  0.21397500  0.01903100  0.86822800  1
  C  917  1  0.16839700  0.95701800  0.83568900  1
  C  919  1  0.19051400  0.04838400  0.83491300  1
  C  921  1  0.82903600  0.97922800  0.16905100  1
  C  922  1  0.83985000  0.99362100  0.18459800  1
  C  923  1  0.83485600  0.01665400  0.18505500  1
  C  924  1  0.81867400  0.02575300  0.16907700  1
  C  925  1  0.80735700  0.01142300  0.15334500  1
  C  927  1  0.81275400  0.98842600  0.15364900  1
  C  929  1  0.84681900  0.03056200  0.20234100  1
  C  933  1  0.79023400  0.01903300  0.13588700  1
  C  937  1  0.83583700  0.95700800  0.16839600  1
  C  939  1  0.81372500  0.04838000  0.16918200  1
  C  941  1  0.82914700  0.02505300  0.83511000  1
  C  942  1  0.83997500  0.01065700  0.81957200  1
  C  943  1  0.83498500  0.98762400  0.81911500  1
  C  944  1  0.81878700  0.97853000  0.83508200  1
  C  945  1  0.80745900  0.99286400  0.85080500  1
  C  947  1  0.81285800  0.01585900  0.85050800  1
  C  949  1  0.84696200  0.97371100  0.80184000  1
  C  953  1  0.79032300  0.98525900  0.86825300  1
  C  957  1  0.83594800  0.04727000  0.83577000  1
  C  959  1  0.81383600  0.95590400  0.83497100  1
  C  961  1  0.19098200  0.16109000  0.02654400  1
  C  962  1  0.20131300  0.14508000  0.01236800  1
  C  963  1  0.19574000  0.14417800  0.98943500  1
  C  964  1  0.17969800  0.16023700  0.98030100  1
  C  965  1  0.16980800  0.17708300  0.99425900  1
  C  967  1  0.17561500  0.17715500  0.01713500  1
  C  969  1  0.20632700  0.12599600  0.97574200  1
  C  973  1  0.15318700  0.19489500  0.98648100  1
  C  977  1  0.19552000  0.16053200  0.04921800  1
  C  979  1  0.17093300  0.15758900  0.95889400  1
  C  981  1  0.81324500  0.16106100  0.97756300  1
  C  982  1  0.80285800  0.14509200  0.99174700  1
  C  983  1  0.80844800  0.14417500  0.01467600  1
  C  984  1  0.82453500  0.16019800  0.02380500  1
  C  985  1  0.83445800  0.17701700  0.00983800  1
  C  987  1  0.82865300  0.17709200  0.98696100  1
  C  989  1  0.79783500  0.12601000  0.02837100  1
  C  993  1  0.85113000  0.19478600  0.01761000  1
  C  997  1  0.80871500  0.16049000  0.95488700  1
  C  999  1  0.83329700  0.15752000  0.04520700  1
  C  1001  1  0.19101700  0.84324500  0.97753100  1
  C  1002  1  0.20139600  0.85921900  0.99171600  1
  C  1003  1  0.19580100  0.86014000  0.01464300  1
  C  1004  1  0.17968700  0.84413700  0.02376200  1
  C  1005  1  0.16975100  0.82732300  0.00979600  1
  C  1007  1  0.17558300  0.82723100  0.98692400  1
  C  1009  1  0.20643800  0.87828600  0.02834800  1
  C  1013  1  0.15305400  0.80957200  0.01755900  1
  C  1017  1  0.19557400  0.84379700  0.95486000  1
  C  1019  1  0.17090400  0.84682100  0.04515600  1
  C  1021  1  0.81321400  0.84324400  0.02657800  1
  C  1022  1  0.80282900  0.85921300  0.01238800  1
  C  1023  1  0.80843900  0.86013700  0.98946500  1
  C  1024  1  0.82454400  0.84412100  0.98034400  1
  C  1025  1  0.83446700  0.82730200  0.99431400  1
  C  1027  1  0.82864200  0.82722100  0.01718700  1
  C  1029  1  0.79782600  0.87830100  0.97576300  1
  C  1033  1  0.85115600  0.80954100  0.98655200  1
  C  1037  1  0.80866700  0.84380800  0.04924900  1
  C  1039  1  0.83332500  0.84680600  0.95895000  1
  C  1041  1  0.02740300  0.19004000  0.17931100  1
  C  1042  1  0.01121500  0.20662800  0.17220200  1
  C  1043  1  0.98618400  0.20485200  0.17553700  1
  C  1044  1  0.97681800  0.18559900  0.18632700  1
  C  1045  1  0.99282500  0.16869000  0.19385100  1
  C  1047  1  0.01773800  0.17128000  0.19023000  1
  C  1049  1  0.97051400  0.22333800  0.16763200  1
  C  1053  1  0.98521000  0.14777100  0.20516900  1
  C  1057  1  0.05185200  0.19228000  0.17472800  1
  C  1059  1  0.95230900  0.18340600  0.18976800  1
  C  1061  1  0.97672500  0.81425300  0.17933300  1
  C  1062  1  0.99291800  0.79767800  0.17220100  1
  C  1063  1  0.01795300  0.79947200  0.17551000  1
  C  1064  1  0.02731400  0.81872400  0.18630400  1
  C  1065  1  0.01130300  0.83561700  0.19385500  1
  C  1067  1  0.98638800  0.83301600  0.19025000  1
  C  1069  1  0.03362800  0.78100000  0.16758000  1
  C  1073  1  0.01891100  0.85653300  0.20518000  1
  C  1077  1  0.95227300  0.81199400  0.17477700  1
  C  1079  1  0.05182400  0.82093200  0.18973000  1
  C  1081  1  0.97683100  0.19002700  0.82476500  1
  C  1082  1  0.99300800  0.20661800  0.83187700  1
  C  1083  1  0.01804100  0.20484600  0.82855300  1
  C  1084  1  0.02742000  0.18559100  0.81776900  1
  C  1085  1  0.01142600  0.16867700  0.81024300  1
  C  1087  1  0.98651000  0.17126400  0.81385500  1
  C  1089  1  0.03369800  0.22333500  0.83645900  1
  C  1093  1  0.01905500  0.14775700  0.79893600  1
  C  1097  1  0.95237900  0.19226600  0.82933600  1
  C  1099  1  0.05193200  0.18340600  0.81433500  1
  C  1101  1  0.02752100  0.81428000  0.82473500  1
  C  1102  1  0.01133600  0.79770300  0.83186400  1
  C  1103  1  0.98630000  0.79949800  0.82856600  1
  C  1104  1  0.97692900  0.81875700  0.81778400  1
  C  1105  1  0.99293200  0.83565500  0.81024000  1
  C  1107  1  0.01785000  0.83305000  0.81383500  1
  C  1109  1  0.97063300  0.78102400  0.83648900  1
  C  1113  1  0.98531400  0.85657600  0.79892900  1
  C  1117  1  0.05197900  0.81201200  0.82927200  1
  C  1119  1  0.95241800  0.82096300  0.81436300  1
  C  1121  1  0.67529900  0.52605000  0.66907400  1
  C  1122  1  0.66433500  0.51179200  0.68464700  1
  C  1123  1  0.66919100  0.48873400  0.68522000  1
  C  1124  1  0.68535900  0.47947900  0.66931800  1
  C  1125  1  0.69680500  0.49367800  0.65354500  1
  C  1127  1  0.69156000  0.51670700  0.65374400  1
  C  1129  1  0.65709700  0.47496700  0.70254200  1
  C  1133  1  0.71389900  0.48590000  0.63613700  1
  C  1137  1  0.66858300  0.54827200  0.66822000  1
  C  1139  1  0.69020500  0.45683400  0.66954700  1
  C  1141  1  0.67519500  0.47826800  0.33508100  1
  C  1142  1  0.66424200  0.49253400  0.31950400  1
  C  1143  1  0.66910100  0.51559000  0.31893900  1
  C  1144  1  0.68526500  0.52483300  0.33485000  1
  C  1145  1  0.69670100  0.51062700  0.35062300  1
  C  1147  1  0.69144700  0.48760100  0.35042200  1
  C  1149  1  0.65701800  0.52936600  0.30161900  1
  C  1153  1  0.71379200  0.51839200  0.36803900  1
  C  1157  1  0.66846900  0.45604800  0.33592700  1
  C  1159  1  0.69011400  0.54747500  0.33463200  1
  C  1161  1  0.32905100  0.47825600  0.66901000  1
  C  1162  1  0.34001100  0.49251900  0.68458200  1
  C  1163  1  0.33515000  0.51557600  0.68515100  1
  C  1164  1  0.31897900  0.52482400  0.66924600  1
  C  1165  1  0.30753600  0.51062100  0.65347800  1
  C  1167  1  0.31278600  0.48759400  0.65368100  1
  C  1169  1  0.34724200  0.52934900  0.70246700  1
  C  1173  1  0.29043600  0.51839200  0.63607100  1
  C  1177  1  0.33577200  0.45603500  0.66816300  1
  C  1179  1  0.31412900  0.54746700  0.66946600  1
  C  1181  1  0.32893000  0.52603100  0.33503100  1
  C  1182  1  0.33989700  0.51176500  0.31946100  1
  C  1183  1  0.33503900  0.48870900  0.31889400  1
  C  1184  1  0.31886600  0.47946200  0.33479500  1
  C  1185  1  0.30741800  0.49366800  0.35056100  1
  C  1187  1  0.31267000  0.51669400  0.35036400  1
  C  1189  1  0.34713600  0.47493300  0.30158100  1
  C  1193  1  0.29031400  0.48590200  0.36796600  1
  C  1197  1  0.33565200  0.54825000  0.33588000  1
  C  1199  1  0.31401700  0.45682000  0.33457300  1
  C  1201  1  0.69073400  0.66118600  0.52565900  1
  C  1202  1  0.70067800  0.64500100  0.51144300  1
  C  1203  1  0.69522200  0.64436000  0.48847800  1
  C  1204  1  0.67971600  0.66087300  0.47934200  1
  C  1205  1  0.67022000  0.67787000  0.49335800  1
  C  1207  1  0.67588200  0.67766700  0.51626600  1
  C  1209  1  0.70536000  0.62597300  0.47476500  1
  C  1213  1  0.65417600  0.69614000  0.48560400  1
  C  1217  1  0.69522400  0.66042900  0.54834000  1
  C  1219  1  0.67102800  0.65858000  0.45786100  1
  C  1221  1  0.31349000  0.66115100  0.47844500  1
  C  1222  1  0.30350500  0.64500100  0.49267100  1
  C  1223  1  0.30897700  0.64435200  0.51563300  1
  C  1224  1  0.32451400  0.66084100  0.52476400  1
  C  1225  1  0.33403200  0.67781700  0.51074000  1
  C  1227  1  0.32837300  0.67761000  0.48783000  1
  C  1229  1  0.29882500  0.62597400  0.52934900  1
  C  1233  1  0.35010800  0.69606000  0.51848700  1
  C  1237  1  0.30901500  0.66037900  0.45576600  1
  C  1239  1  0.33319800  0.65852700  0.54624400  1
  C  1241  1  0.69070000  0.34316200  0.47847800  1
  C  1242  1  0.70068700  0.35932100  0.49269300  1
  C  1243  1  0.69525600  0.35996300  0.51566300  1
  C  1244  1  0.67973000  0.34347400  0.52480600  1
  C  1245  1  0.67019100  0.32650000  0.51079400  1
  C  1247  1  0.67582800  0.32670300  0.48787800  1
  C  1249  1  0.70543900  0.37832800  0.52937400  1
  C  1253  1  0.65412400  0.30825300  0.51855400  1
  C  1257  1  0.69516300  0.34392600  0.45579700  1
  C  1259  1  0.67106400  0.34577600  0.54629500  1
  C  1261  1  0.31354200  0.34316400  0.52563000  1
  C  1262  1  0.30354400  0.35931700  0.51141000  1
  C  1263  1  0.30899300  0.35996100  0.48844300  1
  C  1264  1  0.32451400  0.34346400  0.47930100  1
  C  1265  1  0.33404200  0.32648700  0.49331900  1
  C  1267  1  0.32841100  0.32669800  0.51623500  1
  C  1269  1  0.29882800  0.37834200  0.47473700  1
  C  1273  1  0.35010800  0.30823400  0.48555900  1
  C  1277  1  0.30908500  0.34393700  0.54831400  1
  C  1279  1  0.33317700  0.34577000  0.45781300  1
  C  1281  1  0.52746500  0.69008600  0.67893500  1
  C  1282  1  0.51110200  0.70652100  0.67182000  1
  C  1283  1  0.48610900  0.70461500  0.67533500  1
  C  1284  1  0.47695800  0.68538300  0.68632700  1
  C  1285  1  0.49314700  0.66863100  0.69386400  1
  C  1287  1  0.51801400  0.67134700  0.69005300  1
  C  1289  1  0.47024400  0.72294700  0.66740900  1
  C  1293  1  0.48577000  0.64775200  0.70538800  1
  C  1297  1  0.55187300  0.69245200  0.67419700  1
  C  1299  1  0.45248600  0.68306300  0.68994000  1
  C  1301  1  0.47686900  0.31420200  0.67894400  1
  C  1302  1  0.49324200  0.29777700  0.67182100  1
  C  1303  1  0.51823600  0.29969600  0.67533900  1
  C  1304  1  0.52737200  0.31892600  0.68634700  1
  C  1305  1  0.51117200  0.33566400  0.69389400  1
  C  1307  1  0.48630800  0.33294000  0.69007500  1
  C  1309  1  0.53411200  0.28137800  0.66740200  1
  C  1313  1  0.51853500  0.35653500  0.70543800  1
  C  1317  1  0.45246100  0.31182300  0.67421100  1
  C  1319  1  0.55184100  0.32125800  0.68996500  1
  C  1321  1  0.47675900  0.69007100  0.32512600  1
  C  1322  1  0.49311900  0.70650200  0.33225200  1
  C  1323  1  0.51811600  0.70458600  0.32874800  1
  C  1324  1  0.52727000  0.68535300  0.31775900  1
  C  1325  1  0.51108600  0.66860700  0.31021000  1
  C  1327  1  0.48621600  0.67133000  0.31401000  1
  C  1329  1  0.53397500  0.72291200  0.33668400  1
  C  1333  1  0.51846900  0.64772900  0.29868500  1
  C  1337  1  0.45235000  0.69244300  0.32985100  1
  C  1339  1  0.55174400  0.68302100  0.31416100  1
  C  1341  1  0.52737700  0.31423100  0.32511100  1
  C  1342  1  0.51101100  0.29780200  0.33222700  1
  C  1343  1  0.48601500  0.29972400  0.32872000  1
  C  1344  1  0.47687000  0.31896000  0.31772800  1
  C  1345  1  0.49306100  0.33570500  0.31018900  1
  C  1347  1  0.51792800  0.33297900  0.31400000  1
  C  1349  1  0.47014900  0.28139900  0.33664800  1
  C  1353  1  0.48568900  0.35658400  0.29866400  1
  C  1357  1  0.55178900  0.31184500  0.32983100  1
  C  1359  1  0.45240000  0.32129400  0.31411400  1
  N  41  1  0.17819100  0.16248500  0.06315900  1
  N  42  1  0.18274000  0.06314300  0.16307300  1
  N  43  1  0.06741800  0.17742200  0.18004200  1
  N  44  1  0.21960700  0.21372800  0.21566500  1
  N  86  1  0.17824600  0.84190600  0.94090800  1
  N  87  1  0.18283000  0.94116500  0.84098500  1
  N  88  1  0.06753400  0.82689400  0.82400900  1
  N  89  1  0.21972700  0.79056400  0.78841300  1
  N  131  1  0.82599100  0.84191000  0.06320200  1
  N  132  1  0.82140000  0.94115900  0.16310300  1
  N  133  1  0.93670400  0.82684700  0.18009700  1
  N  134  1  0.78453000  0.79055600  0.21570500  1
  N  176  1  0.82604600  0.16241200  0.94094400  1
  N  177  1  0.82149500  0.06312600  0.84101200  1
  N  178  1  0.93682900  0.17738100  0.82406600  1
  N  179  1  0.78463800  0.21372000  0.78843300  1
  N  221  1  0.83015800  0.06234100  0.16384400  1
  N  222  1  0.82040700  0.16091200  0.06262600  1
  N  223  1  0.93812000  0.18119800  0.17311400  1
  N  224  1  0.78592100  0.21510300  0.21312000  1
  N  266  1  0.83026000  0.94193700  0.84032700  1
  N  267  1  0.82045900  0.84338600  0.94152100  1
  N  268  1  0.93823300  0.82315300  0.83102200  1
  N  269  1  0.78604500  0.78918100  0.79101300  1
  N  311  1  0.17407800  0.06235000  0.84024100  1
  N  312  1  0.18385100  0.16091100  0.94147900  1
  N  313  1  0.06611500  0.18119300  0.83099400  1
  N  314  1  0.21833200  0.21510200  0.79099500  1
  N  356  1  0.17396600  0.94195500  0.16379100  1
  N  357  1  0.18376900  0.84340200  0.06258500  1
  N  358  1  0.06600900  0.82313700  0.17307300  1
  N  359  1  0.21820500  0.78918700  0.21307300  1
  N  401  1  0.67802000  0.66302500  0.56231400  1
  N  402  1  0.68325800  0.56407600  0.66337300  1
  N  403  1  0.56755700  0.67770700  0.67951700  1
  N  404  1  0.71994500  0.71754500  0.71171300  1
  N  446  1  0.67794700  0.34135600  0.44183200  1
  N  447  1  0.68313600  0.44023700  0.34077800  1
  N  448  1  0.56746300  0.32662100  0.32458600  1
  N  449  1  0.71982700  0.28675300  0.29243000  1
  N  491  1  0.32629900  0.34136300  0.56227900  1
  N  492  1  0.32110300  0.44022700  0.66330900  1
  N  493  1  0.43677400  0.32656800  0.67951700  1
  N  494  1  0.28441700  0.28674300  0.71168100  1
  N  536  1  0.32621900  0.66295600  0.44178900  1
  N  537  1  0.32097900  0.56406200  0.34071600  1
  N  538  1  0.43667900  0.67766900  0.32458400  1
  N  539  1  0.28429000  0.71753400  0.29238000  1
  N  581  1  0.33061900  0.56142200  0.66425700  1
  N  582  1  0.31995000  0.66107400  0.56358000  1
  N  583  1  0.43820800  0.68060800  0.67339000  1
  N  584  1  0.28582400  0.71108600  0.71693600  1
  N  626  1  0.33050400  0.44286100  0.33978900  1
  N  627  1  0.31991100  0.34323800  0.44048800  1
  N  628  1  0.43811300  0.32373200  0.33066200  1
  N  629  1  0.28570600  0.29320100  0.28713400  1
  N  671  1  0.67362400  0.56143300  0.33984200  1
  N  672  1  0.68428800  0.66109200  0.44052800  1
  N  673  1  0.56601700  0.68056700  0.33071500  1
  N  674  1  0.71844700  0.71107900  0.28718900  1
  N  716  1  0.67371700  0.44287800  0.66434400  1
  N  717  1  0.68433300  0.34324600  0.56362000  1
  N  718  1  0.56612800  0.32371500  0.67342100  1
  N  719  1  0.71853100  0.29320400  0.71696400  1
