# generated using pymatgen
data_H24C39(N4O)2
_symmetry_space_group_name_H-M   'P 1'
_cell_length_a   32.35040000
_cell_length_b   47.42240000
_cell_length_c   47.42240000
_cell_angle_alpha   90.00000000
_cell_angle_beta   90.00000000
_cell_angle_gamma   90.00000000
_symmetry_Int_Tables_number   1
_chemical_formula_structural   H24C39(N4O)2
_chemical_formula_sum   'H384 C624 N128 O32'
_cell_volume   72752.29765754
_cell_formula_units_Z   16
loop_
 _symmetry_equiv_pos_site_id
 _symmetry_equiv_pos_as_xyz
  1  'x, y, z'
loop_
 _atom_site_type_symbol
 _atom_site_label
 _atom_site_symmetry_multiplicity
 _atom_site_fract_x
 _atom_site_fract_y
 _atom_site_fract_z
 _atom_site_occupancy
  H  25  1  0.00457500  0.18800400  0.32168800  1
  H  26  1  0.00667100  0.16826000  0.36799100  1
  H  27  1  0.01216000  0.14033700  0.41207100  1
  H  28  1  0.01463400  0.10620500  0.44936600  1
  H  29  1  0.01585800  0.04022500  0.38946100  1
  H  30  1  0.01306600  0.10645000  0.28615200  1
  H  31  1  0.92570100  0.08056300  0.34795200  1
  H  32  1  0.90283300  0.00201400  0.30877400  1
  H  33  1  0.97568500  0.99669600  0.29923200  1
  H  34  1  0.10173200  0.08115400  0.34813900  1
  H  35  1  0.05308900  0.99697800  0.29930800  1
  H  36  1  0.12577500  0.00266900  0.30913700  1
  H  66  1  0.00619500  0.83912900  0.70536700  1
  H  67  1  0.00816700  0.85872300  0.65901300  1
  H  68  1  0.01010800  0.88656400  0.61484600  1
  H  69  1  0.00916500  0.92056100  0.57745300  1
  H  70  1  0.01295800  0.98675700  0.63707200  1
  H  71  1  0.01296400  0.92087300  0.74063900  1
  H  72  1  0.92541300  0.94629300  0.67868800  1
  H  73  1  0.90202300  0.02490100  0.71759700  1
  H  74  1  0.97481600  0.03043100  0.72720700  1
  H  75  1  0.10151000  0.94630800  0.67854800  1
  H  76  1  0.05218100  0.03035100  0.72728900  1
  H  77  1  0.12494200  0.02486700  0.71758100  1
  H  107  1  0.50503200  0.70557400  0.18792500  1
  H  108  1  0.50711900  0.65926900  0.16819100  1
  H  109  1  0.51250700  0.61518400  0.14027900  1
  H  110  1  0.51491800  0.57787700  0.10615900  1
  H  111  1  0.51625300  0.63776000  0.04016200  1
  H  112  1  0.51351800  0.74109500  0.10636200  1
  H  113  1  0.42613700  0.67917900  0.08036300  1
  H  114  1  0.40339200  0.71830200  0.00176900  1
  H  115  1  0.47623500  0.72796400  0.99657100  1
  H  116  1  0.60214700  0.67907600  0.08111100  1
  H  117  1  0.55359700  0.72785600  0.99688500  1
  H  118  1  0.62627300  0.71800700  0.00260400  1
  H  148  1  0.50591600  0.32191100  0.83906100  1
  H  149  1  0.50789800  0.36825000  0.85869300  1
  H  150  1  0.50980500  0.41239400  0.88658100  1
  H  151  1  0.50893600  0.44975800  0.92060900  1
  H  152  1  0.51257200  0.39007900  0.98675500  1
  H  153  1  0.51253500  0.28657300  0.92078200  1
  H  154  1  0.42501500  0.34857800  0.94620900  1
  H  155  1  0.40147300  0.30965700  0.02479600  1
  H  156  1  0.47424400  0.30001000  0.03036100  1
  H  157  1  0.60106500  0.34867300  0.94636700  1
  H  158  1  0.55156000  0.30002900  0.03040700  1
  H  159  1  0.62430400  0.30980300  0.02502700  1
  H  189  1  0.51713700  0.83900800  0.32330300  1
  H  190  1  0.51749000  0.86019700  0.36911900  1
  H  191  1  0.51492700  0.88904600  0.41196300  1
  H  192  1  0.51279100  0.92369800  0.44861900  1
  H  193  1  0.51204300  0.98878800  0.38767300  1
  H  194  1  0.51281300  0.91971900  0.28549000  1
  H  195  1  0.60271900  0.95103100  0.34880100  1
  H  196  1  0.62224900  0.02289500  0.29766500  1
  H  197  1  0.55015700  0.02487100  0.28699100  1
  H  198  1  0.42474900  0.95058700  0.34921000  1
  H  199  1  0.47595400  0.02466800  0.28715500  1
  H  200  1  0.40398900  0.02230800  0.29810400  1
  H  230  1  0.51579000  0.18856400  0.70399800  1
  H  231  1  0.51635500  0.16755900  0.65810500  1
  H  232  1  0.51804000  0.13883700  0.61518200  1
  H  233  1  0.51944900  0.10432100  0.57841900  1
  H  234  1  0.51431500  0.03901200  0.63902500  1
  H  235  1  0.51244200  0.10768800  0.74149800  1
  H  236  1  0.60258900  0.07673700  0.67803200  1
  H  237  1  0.62236000  0.00485000  0.72909800  1
  H  238  1  0.55030200  0.00277500  0.73981500  1
  H  239  1  0.42457900  0.07685600  0.67762500  1
  H  240  1  0.47609600  0.00279400  0.73957400  1
  H  241  1  0.40413100  0.00503300  0.72865300  1
  H  271  1  0.01663100  0.32337900  0.18827300  1
  H  272  1  0.01700300  0.36920700  0.16711300  1
  H  273  1  0.01450400  0.41207300  0.13829600  1
  H  274  1  0.01244800  0.44875200  0.10366700  1
  H  275  1  0.01150200  0.38784800  0.03853600  1
  H  276  1  0.01216400  0.28561800  0.10754200  1
  H  277  1  0.10209100  0.34895300  0.07616500  1
  H  278  1  0.12150900  0.29758700  0.00444700  1
  H  279  1  0.04943100  0.28688500  0.00257200  1
  H  280  1  0.92411200  0.34935000  0.07678300  1
  H  281  1  0.97514400  0.28705800  0.00283600  1
  H  282  1  0.90319700  0.29803200  0.00522100  1
  H  312  1  0.01609700  0.70411200  0.83873000  1
  H  313  1  0.01669100  0.65821600  0.85973100  1
  H  314  1  0.01837500  0.61528900  0.88844700  1
  H  315  1  0.01980500  0.57852000  0.92296200  1
  H  316  1  0.01497600  0.63913200  0.98828200  1
  H  317  1  0.01299800  0.74160900  0.91961200  1
  H  318  1  0.10323200  0.67822800  0.95035900  1
  H  319  1  0.12322400  0.72924000  0.02225200  1
  H  320  1  0.05116300  0.73986300  0.02450400  1
  H  321  1  0.92516300  0.67781900  0.95050000  1
  H  322  1  0.97694000  0.73978700  0.02449800  1
  H  323  1  0.90494100  0.72890400  0.02233000  1
  H  336  1  0.06572200  0.97956000  0.50843900  1
  H  338  1  0.90482900  0.01557900  0.53816300  1
  H  339  1  0.90422100  0.01028400  0.57505100  1
  H  340  1  0.92466200  0.98370400  0.55295600  1
  H  342  1  0.97860000  0.06677100  0.47249000  1
  H  344  1  0.04277500  0.95850900  0.55239700  1
  H  352  1  0.56584100  0.51861800  0.97961300  1
  H  354  1  0.40475200  0.48925400  0.01554200  1
  H  355  1  0.40398600  0.45236400  0.01026500  1
  H  356  1  0.42455700  0.47440400  0.98368500  1
  H  358  1  0.47872700  0.55481600  0.06672000  1
  H  360  1  0.54276900  0.47468900  0.95858700  1
  H  368  1  0.46008700  0.04669700  0.51037100  1
  H  370  1  0.62330900  0.01297500  0.53750500  1
  H  371  1  0.62418400  0.01697900  0.57455300  1
  H  372  1  0.60237000  0.04391300  0.55352300  1
  H  374  1  0.55066400  0.96301500  0.47045700  1
  H  376  1  0.48276100  0.06650600  0.55482600  1
  H  384  1  0.96014600  0.51062100  0.98061000  1
  H  386  1  0.12346300  0.53738300  0.01442100  1
  H  387  1  0.12453500  0.57442500  0.01038700  1
  H  388  1  0.10265100  0.55342600  0.98345500  1
  H  390  1  0.05040600  0.47054100  0.06436700  1
  H  392  1  0.98305400  0.55501400  0.96079500  1
  H  400  1  0.74528600  0.02254500  0.28796900  1
  H  402  1  0.73172200  0.00033900  0.40704000  1
  H  403  1  0.69001000  0.97629000  0.40705900  1
  H  404  1  0.68611200  0.00770700  0.38718200  1
  H  406  1  0.86118900  0.01399200  0.36424100  1
  H  408  1  0.68605600  0.99188100  0.29419000  1
  H  416  1  0.74558000  0.00556500  0.73886400  1
  H  418  1  0.73064000  0.02566800  0.61949200  1
  H  419  1  0.68905200  0.04981800  0.61927300  1
  H  420  1  0.68523400  0.01877500  0.63973600  1
  H  422  1  0.86069700  0.01255100  0.66195100  1
  H  424  1  0.68618900  0.03587500  0.73241100  1
  H  432  1  0.24643500  0.73932800  0.02104300  1
  H  434  1  0.23168500  0.61988400  0.00140200  1
  H  435  1  0.18993700  0.61952100  0.97738200  1
  H  436  1  0.18627600  0.64010200  0.00835500  1
  H  438  1  0.36181900  0.66267000  0.01383400  1
  H  440  1  0.18686200  0.73270200  0.99095600  1
  H  448  1  0.24461500  0.28846500  0.00420700  1
  H  450  1  0.23053200  0.40742100  0.02692300  1
  H  451  1  0.18896900  0.40723200  0.05109300  1
  H  452  1  0.18498100  0.38748100  0.01960200  1
  H  454  1  0.36007900  0.36508300  0.01265200  1
  H  456  1  0.18553600  0.29441400  0.03507400  1
  H  464  1  0.28166200  0.00570200  0.73843800  1
  H  466  1  0.29556300  0.02688900  0.61918200  1
  H  467  1  0.33702200  0.05114400  0.61906600  1
  H  468  1  0.34113900  0.01991500  0.63921700  1
  H  470  1  0.16601800  0.01282900  0.66185600  1
  H  472  1  0.34059900  0.03659100  0.73204600  1
  H  480  1  0.28172700  0.02146000  0.28838500  1
  H  482  1  0.29586400  0.00071300  0.40773600  1
  H  483  1  0.33726900  0.97641800  0.40788500  1
  H  484  1  0.34140800  0.00757900  0.38762900  1
  H  486  1  0.16617900  0.01498900  0.36515900  1
  H  488  1  0.34053400  0.99045200  0.29481400  1
  H  496  1  0.78075400  0.28857200  0.00607500  1
  H  498  1  0.79520500  0.40787700  0.02693000  1
  H  499  1  0.83672500  0.40797200  0.05113500  1
  H  500  1  0.84068500  0.38774300  0.01994700  1
  H  502  1  0.66546000  0.36536900  0.01304000  1
  H  504  1  0.83977600  0.29491800  0.03688500  1
  H  512  1  0.78250600  0.73872000  0.02173600  1
  H  514  1  0.79630500  0.61943900  0.00060100  1
  H  515  1  0.83771700  0.61930600  0.97630900  1
  H  516  1  0.84190300  0.63947000  0.00752600  1
  H  518  1  0.66684200  0.66214900  0.01483300  1
  H  520  1  0.84140200  0.73228900  0.99083800  1
  H  528  1  0.98824400  0.19510500  0.17430900  1
  H  530  1  0.10524700  0.26238900  0.23281000  1
  H  531  1  0.09626100  0.29630300  0.21861800  1
  H  532  1  0.09993400  0.26707600  0.19562000  1
  H  534  1  0.04383100  0.19476800  0.27954100  1
  H  536  1  0.00451000  0.23955600  0.14719500  1
  H  544  1  0.98900200  0.83239800  0.85286500  1
  H  546  1  0.10557800  0.76483900  0.79432300  1
  H  547  1  0.09643300  0.73094800  0.80852300  1
  H  548  1  0.10025800  0.76016800  0.83151600  1
  H  550  1  0.04486100  0.83269500  0.74771400  1
  H  552  1  0.00531400  0.78791900  0.88000000  1
  H  560  1  0.48895800  0.85298700  0.19498700  1
  H  562  1  0.60568000  0.79435000  0.26237800  1
  H  563  1  0.59665100  0.80854200  0.29628600  1
  H  564  1  0.60043800  0.83154400  0.26707000  1
  H  566  1  0.54429300  0.74769300  0.19468300  1
  H  568  1  0.50519300  0.88007600  0.23945600  1
  H  576  1  0.48840500  0.17444200  0.83225600  1
  H  578  1  0.60527800  0.23286900  0.76483000  1
  H  579  1  0.59618400  0.21867900  0.73092900  1
  H  580  1  0.59989000  0.19568100  0.76015300  1
  H  582  1  0.54451600  0.27953500  0.83262500  1
  H  584  1  0.50473900  0.14729800  0.78779000  1
  H  609  1  0.12822100  0.25126500  0.82777800  1
  H  610  1  0.13031700  0.23152100  0.87408100  1
  H  611  1  0.13580600  0.20359800  0.91816100  1
  H  612  1  0.13828000  0.16946600  0.95545600  1
  H  613  1  0.13950400  0.10348600  0.89555100  1
  H  614  1  0.13671200  0.16971100  0.79224200  1
  H  615  1  0.04934710  0.14382400  0.85404200  1
  H  616  1  0.02647910  0.06527520  0.81486400  1
  H  617  1  0.09933110  0.05995720  0.80532200  1
  H  618  1  0.22537800  0.14441500  0.85422900  1
  H  619  1  0.17673500  0.06023920  0.80539800  1
  H  620  1  0.24942100  0.06593020  0.81522700  1
  H  650  1  0.12984100  0.90239000  0.21145700  1
  H  651  1  0.13181300  0.92198400  0.16510300  1
  H  652  1  0.13375400  0.94982500  0.12093600  1
  H  653  1  0.13281100  0.98382200  0.08354290  1
  H  654  1  0.13660400  0.05001820  0.14316200  1
  H  655  1  0.13661000  0.98413400  0.24672900  1
  H  656  1  0.04905910  0.00955424  0.18477800  1
  H  657  1  0.02566910  0.08816220  0.22368700  1
  H  658  1  0.09846210  0.09369220  0.23329700  1
  H  659  1  0.22515600  0.00956924  0.18463800  1
  H  660  1  0.17582700  0.09361220  0.23337900  1
  H  661  1  0.24858800  0.08812820  0.22367100  1
  H  691  1  0.62867800  0.76883500  0.69401500  1
  H  692  1  0.63076500  0.72253000  0.67428100  1
  H  693  1  0.63615300  0.67844500  0.64636900  1
  H  694  1  0.63856400  0.64113800  0.61224900  1
  H  695  1  0.63989900  0.70102100  0.54625200  1
  H  696  1  0.63716400  0.80435600  0.61245200  1
  H  697  1  0.54978300  0.74244000  0.58645300  1
  H  698  1  0.52703800  0.78156300  0.50785900  1
  H  699  1  0.59988100  0.79122500  0.50266100  1
  H  700  1  0.72579300  0.74233700  0.58720100  1
  H  701  1  0.67724300  0.79111700  0.50297500  1
  H  702  1  0.74991900  0.78126800  0.50869400  1
  H  732  1  0.62956200  0.38517200  0.34515100  1
  H  733  1  0.63154400  0.43151100  0.36478300  1
  H  734  1  0.63345100  0.47565500  0.39267100  1
  H  735  1  0.63258200  0.51301900  0.42669900  1
  H  736  1  0.63621800  0.45334000  0.49284500  1
  H  737  1  0.63618100  0.34983400  0.42687200  1
  H  738  1  0.54866100  0.41183900  0.45229900  1
  H  739  1  0.52511900  0.37291800  0.53088600  1
  H  740  1  0.59789000  0.36327100  0.53645100  1
  H  741  1  0.72471100  0.41193400  0.45245700  1
  H  742  1  0.67520600  0.36329000  0.53649700  1
  H  743  1  0.74795000  0.37306400  0.53111700  1
  H  773  1  0.64078300  0.90226900  0.82939300  1
  H  774  1  0.64113600  0.92345800  0.87520900  1
  H  775  1  0.63857300  0.95230700  0.91805300  1
  H  776  1  0.63643700  0.98695900  0.95470900  1
  H  777  1  0.63568900  0.05204920  0.89376300  1
  H  778  1  0.63645900  0.98298000  0.79158000  1
  H  779  1  0.72636500  0.01429220  0.85489100  1
  H  780  1  0.74589500  0.08615620  0.80375500  1
  H  781  1  0.67380300  0.08813220  0.79308100  1
  H  782  1  0.54839500  0.01384820  0.85530000  1
  H  783  1  0.59960000  0.08792920  0.79324500  1
  H  784  1  0.52763500  0.08556920  0.80419400  1
  H  814  1  0.63943600  0.25182500  0.21008800  1
  H  815  1  0.64000100  0.23082000  0.16419500  1
  H  816  1  0.64168600  0.20209800  0.12127200  1
  H  817  1  0.64309500  0.16758200  0.08450890  1
  H  818  1  0.63796100  0.10227300  0.14511500  1
  H  819  1  0.63608800  0.17094900  0.24758800  1
  H  820  1  0.72623500  0.13999800  0.18412200  1
  H  821  1  0.74600600  0.06811120  0.23518800  1
  H  822  1  0.67394800  0.06603620  0.24590500  1
  H  823  1  0.54822500  0.14011700  0.18371500  1
  H  824  1  0.59974200  0.06605520  0.24566400  1
  H  825  1  0.52777700  0.06829420  0.23474300  1
  H  855  1  0.14027700  0.38664000  0.69436300  1
  H  856  1  0.14064900  0.43246800  0.67320300  1
  H  857  1  0.13815000  0.47533400  0.64438600  1
  H  858  1  0.13609400  0.51201300  0.60975700  1
  H  859  1  0.13514800  0.45110900  0.54462600  1
  H  860  1  0.13581000  0.34887900  0.61363200  1
  H  861  1  0.22573700  0.41221400  0.58225500  1
  H  862  1  0.24515500  0.36084800  0.51053700  1
  H  863  1  0.17307700  0.35014600  0.50866200  1
  H  864  1  0.04775810  0.41261100  0.58287300  1
  H  865  1  0.09879010  0.35031900  0.50892600  1
  H  866  1  0.02684310  0.36129300  0.51131100  1
  H  896  1  0.13974300  0.76737300  0.34482000  1
  H  897  1  0.14033700  0.72147700  0.36582100  1
  H  898  1  0.14202100  0.67855000  0.39453700  1
  H  899  1  0.14345100  0.64178100  0.42905200  1
  H  900  1  0.13862200  0.70239300  0.49437200  1
  H  901  1  0.13664400  0.80487000  0.42570200  1
  H  902  1  0.22687800  0.74148900  0.45644900  1
  H  903  1  0.24687000  0.79250100  0.52834200  1
  H  904  1  0.17480900  0.80312400  0.53059400  1
  H  905  1  0.04880910  0.74108000  0.45659000  1
  H  906  1  0.10058600  0.80304800  0.53058800  1
  H  907  1  0.02858710  0.79216500  0.52842000  1
  H  920  1  0.18936800  0.04282120  0.01452890  1
  H  922  1  0.02847510  0.07884020  0.04425290  1
  H  923  1  0.02786710  0.07354520  0.08114090  1
  H  924  1  0.04830810  0.04696520  0.05904590  1
  H  926  1  0.10224600  0.13003200  0.97858000  1
  H  928  1  0.16642100  0.02177020  0.05848690  1
  H  936  1  0.68948700  0.58187900  0.48570300  1
  H  938  1  0.52839800  0.55251500  0.52163200  1
  H  939  1  0.52763200  0.51562500  0.51635500  1
  H  940  1  0.54820300  0.53766500  0.48977500  1
  H  942  1  0.60237300  0.61807700  0.57281000  1
  H  944  1  0.66641500  0.53795000  0.46467700  1
  H  952  1  0.58373300  0.10995800  0.01646090  1
  H  954  1  0.74695500  0.07623620  0.04359490  1
  H  955  1  0.74783000  0.08024020  0.08064290  1
  H  956  1  0.72601600  0.10717400  0.05961290  1
  H  958  1  0.67431000  0.02627620  0.97654700  1
  H  960  1  0.60640700  0.12976700  0.06091590  1
  H  968  1  0.08379210  0.57388200  0.48670000  1
  H  970  1  0.24710900  0.60064400  0.52051100  1
  H  971  1  0.24818100  0.63768600  0.51647700  1
  H  972  1  0.22629700  0.61668700  0.48954500  1
  H  974  1  0.17405200  0.53380200  0.57045700  1
  H  976  1  0.10670000  0.61827500  0.46688500  1
  H  984  1  0.86893200  0.08580620  0.79405900  1
  H  986  1  0.85536800  0.06360020  0.91313000  1
  H  987  1  0.81365600  0.03955120  0.91314900  1
  H  988  1  0.80975800  0.07096820  0.89327200  1
  H  990  1  0.98483500  0.07725320  0.87033100  1
  H  992  1  0.80970200  0.05514220  0.80028000  1
  H  1000  1  0.86922600  0.06882620  0.24495400  1
  H  1002  1  0.85428600  0.08892920  0.12558200  1
  H  1003  1  0.81269800  0.11307900  0.12536300  1
  H  1004  1  0.80888000  0.08203620  0.14582600  1
  H  1006  1  0.98434300  0.07581220  0.16804100  1
  H  1008  1  0.80983500  0.09913620  0.23850100  1
  H  1016  1  0.37008100  0.80258900  0.52713300  1
  H  1018  1  0.35533100  0.68314500  0.50749200  1
  H  1019  1  0.31358300  0.68278200  0.48347200  1
  H  1020  1  0.30992200  0.70336300  0.51444500  1
  H  1022  1  0.48546500  0.72593100  0.51992400  1
  H  1024  1  0.31050800  0.79596300  0.49704600  1
  H  1032  1  0.36826100  0.35172600  0.51029700  1
  H  1034  1  0.35417800  0.47068200  0.53301300  1
  H  1035  1  0.31261500  0.47049300  0.55718300  1
  H  1036  1  0.30862700  0.45074200  0.52569200  1
  H  1038  1  0.48372500  0.42834400  0.51874200  1
  H  1040  1  0.30918200  0.35767500  0.54116400  1
  H  1048  1  0.40530800  0.06896320  0.24452800  1
  H  1050  1  0.41920900  0.09015020  0.12527200  1
  H  1051  1  0.46066800  0.11440500  0.12515600  1
  H  1052  1  0.46478500  0.08317620  0.14530700  1
  H  1054  1  0.28966400  0.07609020  0.16794600  1
  H  1056  1  0.46424500  0.09985220  0.23813600  1
  H  1064  1  0.40537300  0.08472120  0.79447500  1
  H  1066  1  0.41951000  0.06397420  0.91382600  1
  H  1067  1  0.46091500  0.03967920  0.91397500  1
  H  1068  1  0.46505400  0.07084020  0.89371900  1
  H  1070  1  0.28982500  0.07825020  0.87124900  1
  H  1072  1  0.46418000  0.05371320  0.80090400  1
  H  1080  1  0.90440000  0.35183300  0.51216500  1
  H  1082  1  0.91885100  0.47113800  0.53302000  1
  H  1083  1  0.96037100  0.47123300  0.55722500  1
  H  1084  1  0.96433100  0.45100400  0.52603700  1
  H  1086  1  0.78910600  0.42863000  0.51913000  1
  H  1088  1  0.96342200  0.35817900  0.54297500  1
  H  1096  1  0.90615200  0.80198100  0.52782600  1
  H  1098  1  0.91995100  0.68270000  0.50669100  1
  H  1099  1  0.96136300  0.68256700  0.48239900  1
  H  1100  1  0.96554900  0.70273100  0.51361600  1
  H  1102  1  0.79048800  0.72541000  0.52092300  1
  H  1104  1  0.96504800  0.79555000  0.49692800  1
  H  1112  1  0.11189000  0.25836600  0.68039900  1
  H  1114  1  0.22889300  0.32565000  0.73890000  1
  H  1115  1  0.21990700  0.35956400  0.72470800  1
  H  1116  1  0.22358000  0.33033700  0.70171000  1
  H  1118  1  0.16747700  0.25802900  0.78563100  1
  H  1120  1  0.12815600  0.30281700  0.65328500  1
  H  1128  1  0.11264800  0.89565900  0.35895500  1
  H  1130  1  0.22922400  0.82810000  0.30041300  1
  H  1131  1  0.22007900  0.79420900  0.31461300  1
  H  1132  1  0.22390400  0.82342900  0.33760600  1
  H  1134  1  0.16850700  0.89595600  0.25380400  1
  H  1136  1  0.12896000  0.85118000  0.38609000  1
  H  1144  1  0.61260400  0.91624800  0.70107700  1
  H  1146  1  0.72932600  0.85761100  0.76846800  1
  H  1147  1  0.72029700  0.87180300  0.80237600  1
  H  1148  1  0.72408400  0.89480500  0.77316000  1
  H  1150  1  0.66793900  0.81095400  0.70077300  1
  H  1152  1  0.62883900  0.94333700  0.74554600  1
  H  1160  1  0.61205100  0.23770300  0.33834600  1
  H  1162  1  0.72892400  0.29613000  0.27092000  1
  H  1163  1  0.71983000  0.28194000  0.23701900  1
  H  1164  1  0.72353600  0.25894200  0.26624300  1
  H  1166  1  0.66816200  0.34279600  0.33871500  1
  H  1168  1  0.62838500  0.21055900  0.29388000  1
  C  1  1  0.04931500  0.06055400  0.33117000  1
  C  2  1  0.03556000  0.03612500  0.31743200  1
  C  3  1  0.99262700  0.03596800  0.31733900  1
  C  4  1  0.97848900  0.06018800  0.33124400  1
  C  5  1  0.93583700  0.06341100  0.33684700  1
  C  6  1  0.90788700  0.04178000  0.32911400  1
  C  7  1  0.92273000  0.01777700  0.31451000  1
  C  8  1  0.96511300  0.01469800  0.30863000  1
  C  9  1  0.06338000  0.01505100  0.30871500  1
  C  10  1  0.10566900  0.01835300  0.31475800  1
  C  11  1  0.12012300  0.04243100  0.32942200  1
  C  12  1  0.09189600  0.06399500  0.33692300  1
  C  13  1  0.01285000  0.10776200  0.33086500  1
  C  14  1  0.01154200  0.12587400  0.35420400  1
  C  15  1  0.01227200  0.11018600  0.37904000  1
  C  16  1  0.01361000  0.08148800  0.37235400  1
  C  17  1  0.01241400  0.11933600  0.40724400  1
  C  18  1  0.01360100  0.09917500  0.42898900  1
  C  19  1  0.01400300  0.06982400  0.42310200  1
  C  20  1  0.01472200  0.06120100  0.39439600  1
  C  21  1  0.01223500  0.11959000  0.30322400  1
  C  22  1  0.01073500  0.14939900  0.29909900  1
  C  23  1  0.00775600  0.16662700  0.32354500  1
  C  24  1  0.00870800  0.15522900  0.35088100  1
  C  37  1  0.01371900  0.07780500  0.34103900  1
  C  42  1  0.04889300  0.96678800  0.69538000  1
  C  43  1  0.03494900  0.99117100  0.70910600  1
  C  44  1  0.99201500  0.99114700  0.70923900  1
  C  45  1  0.97805000  0.96683400  0.69541400  1
  C  46  1  0.93540700  0.96345000  0.68984300  1
  C  47  1  0.90733600  0.98507200  0.69740700  1
  C  48  1  0.92201300  0.00915800  0.71195500  1
  C  49  1  0.96436500  0.01237400  0.71785300  1
  C  50  1  0.06260800  0.01234200  0.71782500  1
  C  51  1  0.10494400  0.00914700  0.71188300  1
  C  52  1  0.11960500  0.98510400  0.69725500  1
  C  53  1  0.09151900  0.96347300  0.68969300  1
  C  54  1  0.01303500  0.91940700  0.69592800  1
  C  55  1  0.01213300  0.90120100  0.67265200  1
  C  56  1  0.01247600  0.91680300  0.64775500  1
  C  57  1  0.01326100  0.94553400  0.65433000  1
  C  58  1  0.01135400  0.90756700  0.61959100  1
  C  59  1  0.01116500  0.92766100  0.59776600  1
  C  60  1  0.01262400  0.95702200  0.60352700  1
  C  61  1  0.01295500  0.96574800  0.63220700  1
  C  62  1  0.01249700  0.90766400  0.72361200  1
  C  63  1  0.01146800  0.87785700  0.72785000  1
  C  64  1  0.00901700  0.86052400  0.70345000  1
  C  65  1  0.00985800  0.87183500  0.67607900  1
  C  78  1  0.01343100  0.94933400  0.68563400  1
  C  83  1  0.54976400  0.69607800  0.06050000  1
  C  84  1  0.53604600  0.70988000  0.03609500  1
  C  85  1  0.49310700  0.70986900  0.03586300  1
  C  86  1  0.47893700  0.69596000  0.06007200  1
  C  87  1  0.43627900  0.69032300  0.06323900  1
  C  88  1  0.40838100  0.69797800  0.04154800  1
  C  89  1  0.42326200  0.71258100  0.01755600  1
  C  90  1  0.46563900  0.71851100  0.01453800  1
  C  91  1  0.56387200  0.71844900  0.01496500  1
  C  92  1  0.60615900  0.71241600  0.01829500  1
  C  93  1  0.62059200  0.69778400  0.04239700  1
  C  94  1  0.59233900  0.69030000  0.06395200  1
  C  95  1  0.51322400  0.69638000  0.10768000  1
  C  96  1  0.51193500  0.67304700  0.12579900  1
  C  97  1  0.51267700  0.64820400  0.11011800  1
  C  98  1  0.51404000  0.65488500  0.08141800  1
  C  99  1  0.51278800  0.62000600  0.11927800  1
  C  100  1  0.51393200  0.59825300  0.09912300  1
  C  101  1  0.51431500  0.60413000  0.06976900  1
  C  102  1  0.51511900  0.63283400  0.06113900  1
  C  103  1  0.51266100  0.72402500  0.11950500  1
  C  104  1  0.51115000  0.72815600  0.14931300  1
  C  105  1  0.50818500  0.70371200  0.16654800  1
  C  106  1  0.50910000  0.67637600  0.15515200  1
  C  119  1  0.51414500  0.68619700  0.07772600  1
  C  124  1  0.54842000  0.33178000  0.96675800  1
  C  125  1  0.53444200  0.31799100  0.99109900  1
  C  126  1  0.49150500  0.31794900  0.99107600  1
  C  127  1  0.47757400  0.33171200  0.96671400  1
  C  128  1  0.43496800  0.33743800  0.96338600  1
  C  129  1  0.40685400  0.32986900  0.98498000  1
  C  130  1  0.42148800  0.31530700  0.00906900  1
  C  131  1  0.46382700  0.30937500  0.01230000  1
  C  132  1  0.56203300  0.30940900  0.01237000  1
  C  133  1  0.60436000  0.31541800  0.00924700  1
  C  134  1  0.61907400  0.33000900  0.98519700  1
  C  135  1  0.59104700  0.33751100  0.96351300  1
  C  136  1  0.51264000  0.33128400  0.91935000  1
  C  137  1  0.51173700  0.35457500  0.90116700  1
  C  138  1  0.51210500  0.37945800  0.91679200  1
  C  139  1  0.51285000  0.37285500  0.94551900  1
  C  140  1  0.51103200  0.40763000  0.90757900  1
  C  141  1  0.51088700  0.42943600  0.92769200  1
  C  142  1  0.51235500  0.42365400  0.95705000  1
  C  143  1  0.51257800  0.39496100  0.96575000  1
  C  144  1  0.51209900  0.30361000  0.90758800  1
  C  145  1  0.51109100  0.29939600  0.87777900  1
  C  146  1  0.50869500  0.32381100  0.86046000  1
  C  147  1  0.50953300  0.35117200  0.87179500  1
  C  160  1  0.51299500  0.34154700  0.94928800  1
  C  165  1  0.47786700  0.96661700  0.32849700  1
  C  166  1  0.49197800  0.98823300  0.31081500  1
  C  167  1  0.53471700  0.98841900  0.31080200  1
  C  168  1  0.54922000  0.96686400  0.32839300  1
  C  169  1  0.59203000  0.96572100  0.33480800  1
  C  170  1  0.61956900  0.98583800  0.32297800  1
  C  171  1  0.60350700  0.00719300  0.30514500  1
  C  172  1  0.56127600  0.00854000  0.29882500  1
  C  173  1  0.46511900  0.00827000  0.29901900  1
  C  174  1  0.42296200  0.00668900  0.30549100  1
  C  175  1  0.40727800  0.98524500  0.32337500  1
  C  176  1  0.43513500  0.96527200  0.33510700  1
  C  177  1  0.51405800  0.91983300  0.33032500  1
  C  178  1  0.51524900  0.90231800  0.35410700  1
  C  179  1  0.51507500  0.91868800  0.37845200  1
  C  180  1  0.51401800  0.94727800  0.37113300  1
  C  181  1  0.51493900  0.90995800  0.40676800  1
  C  182  1  0.51398700  0.93044400  0.42814600  1
  C  183  1  0.51390100  0.95970000  0.42181300  1
  C  184  1  0.51312800  0.96789300  0.39291800  1
  C  185  1  0.51359500  0.90719400  0.30300700  1
  C  186  1  0.51453800  0.87725200  0.29999300  1
  C  187  1  0.51621600  0.86056600  0.32468600  1
  C  188  1  0.51642000  0.87279800  0.35165200  1
  C  201  1  0.51370000  0.95012500  0.33966000  1
  C  206  1  0.47778100  0.06085500  0.69825400  1
  C  207  1  0.49198500  0.03926800  0.71594000  1
  C  208  1  0.53472000  0.03920600  0.71600500  1
  C  209  1  0.54914000  0.06078500  0.69841500  1
  C  210  1  0.59195900  0.06203200  0.69202900  1
  C  211  1  0.61955900  0.04191600  0.70380000  1
  C  212  1  0.60356300  0.02052000  0.72161000  1
  C  213  1  0.56135000  0.01912000  0.72796600  1
  C  214  1  0.46518700  0.01921400  0.72777400  1
  C  215  1  0.42303600  0.02068500  0.72125400  1
  C  216  1  0.40724400  0.04212100  0.70340800  1
  C  217  1  0.43503600  0.06213600  0.69166500  1
  C  218  1  0.51359500  0.10775000  0.69665800  1
  C  219  1  0.51464300  0.12536700  0.67294800  1
  C  220  1  0.51486800  0.10909600  0.64853700  1
  C  221  1  0.51396900  0.08047300  0.65573000  1
  C  222  1  0.51654100  0.11792300  0.62027400  1
  C  223  1  0.51701700  0.09751300  0.59881600  1
  C  224  1  0.51507200  0.06825600  0.60500100  1
  C  225  1  0.51446300  0.05994100  0.63386500  1
  C  226  1  0.51302900  0.12028600  0.72402900  1
  C  227  1  0.51367800  0.15022200  0.72716300  1
  C  228  1  0.51509100  0.16701000  0.70253100  1
  C  229  1  0.51544300  0.15488300  0.67552000  1
  C  242  1  0.51354200  0.07749400  0.68719200  1
  C  247  1  0.97721200  0.32868200  0.06067200  1
  C  248  1  0.99128300  0.31089300  0.03913100  1
  C  249  1  0.03401300  0.31087400  0.03891500  1
  C  250  1  0.04855300  0.32855800  0.06038100  1
  C  251  1  0.09138200  0.33491800  0.06152300  1
  C  252  1  0.11889300  0.32303900  0.04141400  1
  C  253  1  0.10279400  0.30513600  0.02013100  1
  C  254  1  0.06055800  0.29881200  0.01883400  1
  C  255  1  0.96435600  0.29899400  0.01919700  1
  C  256  1  0.92220500  0.30548600  0.02078900  1
  C  257  1  0.90657600  0.32345700  0.04217300  1
  C  258  1  0.93445800  0.33520400  0.06212700  1
  C  259  1  0.01345300  0.33045300  0.10745400  1
  C  260  1  0.01468800  0.35422300  0.12498400  1
  C  261  1  0.01452800  0.37857800  0.10863100  1
  C  262  1  0.01342800  0.37128000  0.08003700  1
  C  263  1  0.01448000  0.40689000  0.11737900  1
  C  264  1  0.01356400  0.42828100  0.09690700  1
  C  265  1  0.01342800  0.42196500  0.06764900  1
  C  266  1  0.01259300  0.39307800  0.05943600  1
  C  267  1  0.01297000  0.30312700  0.12007900  1
  C  268  1  0.01395400  0.30009700  0.15001900  1
  C  269  1  0.01568100  0.32477700  0.16671900  1
  C  270  1  0.01589300  0.35174900  0.15450200  1
  C  283  1  0.01306900  0.33981200  0.07716900  1
  C  288  1  0.97847000  0.69829900  0.96654300  1
  C  289  1  0.99273300  0.71597800  0.98810900  1
  C  290  1  0.03545900  0.71610500  0.98806900  1
  C  291  1  0.04981500  0.69854700  0.96644000  1
  C  292  1  0.09264100  0.69220900  0.96509200  1
  C  293  1  0.12030800  0.70399600  0.98515500  1
  C  294  1  0.10438800  0.72180400  0.00657900  1
  C  295  1  0.06217300  0.72813900  0.00806100  1
  C  296  1  0.96600000  0.72790900  0.00814400  1
  C  297  1  0.92383400  0.72142300  0.00671200  1
  C  298  1  0.90798900  0.70356600  0.98530400  1
  C  299  1  0.93568800  0.69183300  0.96522300  1
  C  300  1  0.01409700  0.69677000  0.91954600  1
  C  301  1  0.01509600  0.67305900  0.90192600  1
  C  302  1  0.01536100  0.64864500  0.91819500  1
  C  303  1  0.01459100  0.65584000  0.94681800  1
  C  304  1  0.01699400  0.62038200  0.90936500  1
  C  305  1  0.01747700  0.59892400  0.92977400  1
  C  306  1  0.01562400  0.60511100  0.95903200  1
  C  307  1  0.01509200  0.63397200  0.96735100  1
  C  308  1  0.01352400  0.72414100  0.90701000  1
  C  309  1  0.01409300  0.72727600  0.87707500  1
  C  310  1  0.01545100  0.70264500  0.86028300  1
  C  311  1  0.01581200  0.67563200  0.87241000  1
  C  324  1  0.01416600  0.68729700  0.94980000  1
  C  329  1  0.98703200  0.01571400  0.53629100  1
  C  330  1  0.01882000  0.99510100  0.53594900  1
  C  331  1  0.04247300  0.99399000  0.51075200  1
  C  333  1  0.00482800  0.03167500  0.48979600  1
  C  337  1  0.92190200  0.00650100  0.55586400  1
  C  341  1  0.99814500  0.05109100  0.46834400  1
  C  343  1  0.02562300  0.97521200  0.55737400  1
  C  345  1  0.48696100  0.49095800  0.01572000  1
  C  346  1  0.51878800  0.49121700  0.99513300  1
  C  347  1  0.54255600  0.51636300  0.99402400  1
  C  349  1  0.50493300  0.53742900  0.03165900  1
  C  353  1  0.42175700  0.47151300  0.00648200  1
  C  357  1  0.49831500  0.55891100  0.05105300  1
  C  359  1  0.52553900  0.46976100  0.97526900  1
  C  361  1  0.54106300  0.01136200  0.53610300  1
  C  362  1  0.50820700  0.03115700  0.53689200  1
  C  363  1  0.48409600  0.03275200  0.51190800  1
  C  365  1  0.52335000  0.99699100  0.48903500  1
  C  369  1  0.60610400  0.02109000  0.55560700  1
  C  373  1  0.53043800  0.97843800  0.46686600  1
  C  375  1  0.50096400  0.05012000  0.55909900  1
  C  377  1  0.04120800  0.53618100  0.01597800  1
  C  378  1  0.00838000  0.53703500  0.99616200  1
  C  379  1  0.98414200  0.51211000  0.99456800  1
  C  381  1  0.02323900  0.48916300  0.03036300  1
  C  385  1  0.10636200  0.55552000  0.00628000  1
  C  389  1  0.03019500  0.46698600  0.04892900  1
  C  391  1  0.00127300  0.55925000  0.97718400  1
  C  393  1  0.74538500  0.99265300  0.35197300  1
  C  394  1  0.72942500  0.99919900  0.32490500  1
  C  395  1  0.75476000  0.01634200  0.30759700  1
  C  397  1  0.80752300  0.01821100  0.34230000  1
  C  401  1  0.70731100  0.99111000  0.39406100  1
  C  405  1  0.84639700  0.02663400  0.35083400  1
  C  407  1  0.69067100  0.99121700  0.31497600  1
  C  409  1  0.74503200  0.03432000  0.67434600  1
  C  410  1  0.72936600  0.02830500  0.70162000  1
  C  411  1  0.75484400  0.01140800  0.71908000  1
  C  413  1  0.80716500  0.00877600  0.68411500  1
  C  417  1  0.70643600  0.03519200  0.63244200  1
  C  421  1  0.84589000  0.00008600  0.67551400  1
  C  423  1  0.69071200  0.03646800  0.71161300  1
  C  425  1  0.24588000  0.67471900  0.99248900  1
  C  426  1  0.23018100  0.70199100  0.99846700  1
  C  427  1  0.25571600  0.71954000  0.01523000  1
  C  429  1  0.30816000  0.68465900  0.01779100  1
  C  433  1  0.20738400  0.63276800  0.99190200  1
  C  437  1  0.34697600  0.67615100  0.02636700  1
  C  439  1  0.19144900  0.71191000  0.99039300  1
  C  441  1  0.24453500  0.35235500  0.03433300  1
  C  442  1  0.22868800  0.32527000  0.02773500  1
  C  443  1  0.25401600  0.30809500  0.01045300  1
  C  445  1  0.30656600  0.34295200  0.00854400  1
  C  449  1  0.20624600  0.39434100  0.03616600  1
  C  453  1  0.34533100  0.35163500  0.00002500  1
  C  455  1  0.19003600  0.31520800  0.03579500  1
  C  457  1  0.28152400  0.03497500  0.67415600  1
  C  458  1  0.29742900  0.02878500  0.70132000  1
  C  459  1  0.27220600  0.01166700  0.71873400  1
  C  461  1  0.21965100  0.00912200  0.68391900  1
  C  465  1  0.31980400  0.03634800  0.63214600  1
  C  469  1  0.18093500  0.00035600  0.67535800  1
  C  471  1  0.33608200  0.03702100  0.71124200  1
  C  473  1  0.28168500  0.99246500  0.35279500  1
  C  474  1  0.29751000  0.99849800  0.32557600  1
  C  475  1  0.27231300  0.01559700  0.30812900  1
  C  477  1  0.21991300  0.01841900  0.34302800  1
  C  481  1  0.32005500  0.99119000  0.39477500  1
  C  485  1  0.18130200  0.02731600  0.35164200  1
  C  487  1  0.33609500  0.99016100  0.31562700  1
  C  489  1  0.78097600  0.35294100  0.03515800  1
  C  490  1  0.79672900  0.32571900  0.02904900  1
  C  491  1  0.77140600  0.30831600  0.01198800  1
  C  493  1  0.71904500  0.34326000  0.00934100  1
  C  497  1  0.81942100  0.39488900  0.03639000  1
  C  501  1  0.68038100  0.35189300  0.00054400  1
  C  503  1  0.83535000  0.31573000  0.03727700  1
  C  505  1  0.78227500  0.67441700  0.99250600  1
  C  506  1  0.79819400  0.70158600  0.99865200  1
  C  507  1  0.77302900  0.71901500  0.01579200  1
  C  509  1  0.72048600  0.68420000  0.01844000  1
  C  513  1  0.82053400  0.63239500  0.99111600  1
  C  517  1  0.68180600  0.67564700  0.02728200  1
  C  519  1  0.83684300  0.71149100  0.99038600  1
  C  521  1  0.03186700  0.24349500  0.21573100  1
  C  522  1  0.01438900  0.23305400  0.19029500  1
  C  523  1  0.00119300  0.20449000  0.19158800  1
  C  525  1  0.02167600  0.19931700  0.23976600  1
  C  529  1  0.08893800  0.27399700  0.21629400  1
  C  533  1  0.02645900  0.18490100  0.26527300  1
  C  535  1  0.01066400  0.24915900  0.16532400  1
  C  537  1  0.03229600  0.78390200  0.81141600  1
  C  538  1  0.01490500  0.79438000  0.83686200  1
  C  539  1  0.00186700  0.82298000  0.83557500  1
  C  541  1  0.02233700  0.82811700  0.78738300  1
  C  545  1  0.08922000  0.75327000  0.81084500  1
  C  549  1  0.02726500  0.84252600  0.76187800  1
  C  551  1  0.01117400  0.77828400  0.86184400  1
  C  553  1  0.53238000  0.81150700  0.24341200  1
  C  554  1  0.51498600  0.83696500  0.23295700  1
  C  555  1  0.50184500  0.83569100  0.20438100  1
  C  557  1  0.52221300  0.78748800  0.19922100  1
  C  561  1  0.58938400  0.81087800  0.27397200  1
  C  565  1  0.52695500  0.76197700  0.18480800  1
  C  567  1  0.51129200  0.86193900  0.24906200  1
  C  569  1  0.53191600  0.21584700  0.78381300  1
  C  570  1  0.51443600  0.19042100  0.79427000  1
  C  571  1  0.50133800  0.19171800  0.82285600  1
  C  573  1  0.52192200  0.23988400  0.82802000  1
  C  577  1  0.58891400  0.21636400  0.75324500  1
  C  581  1  0.52688100  0.26537900  0.84243900  1
  C  583  1  0.51068000  0.16544800  0.77816600  1
  C  585  1  0.17296100  0.12381500  0.83726000  1
  C  586  1  0.15920600  0.09938620  0.82352200  1
  C  587  1  0.11627300  0.09922920  0.82342900  1
  C  588  1  0.10213500  0.12344900  0.83733400  1
  C  589  1  0.05948310  0.12667200  0.84293700  1
  C  590  1  0.03153310  0.10504100  0.83520400  1
  C  591  1  0.04637610  0.08103820  0.82060000  1
  C  592  1  0.08875910  0.07795920  0.81472000  1
  C  593  1  0.18702600  0.07831220  0.81480500  1
  C  594  1  0.22931500  0.08161420  0.82084800  1
  C  595  1  0.24376900  0.10569200  0.83551200  1
  C  596  1  0.21554200  0.12725600  0.84301300  1
  C  597  1  0.13649600  0.17102300  0.83695500  1
  C  598  1  0.13518800  0.18913500  0.86029400  1
  C  599  1  0.13591800  0.17344700  0.88513000  1
  C  600  1  0.13725600  0.14474900  0.87844400  1
  C  601  1  0.13606000  0.18259700  0.91333400  1
  C  602  1  0.13724700  0.16243600  0.93507900  1
  C  603  1  0.13764900  0.13308500  0.92919200  1
  C  604  1  0.13836800  0.12446200  0.90048600  1
  C  605  1  0.13588100  0.18285100  0.80931400  1
  C  606  1  0.13438100  0.21266000  0.80518900  1
  C  607  1  0.13140200  0.22988800  0.82963500  1
  C  608  1  0.13235400  0.21849000  0.85697100  1
  C  621  1  0.13736500  0.14106600  0.84712900  1
  C  626  1  0.17253900  0.03004920  0.20147000  1
  C  627  1  0.15859500  0.05443220  0.21519600  1
  C  628  1  0.11566100  0.05440820  0.21532900  1
  C  629  1  0.10169600  0.03009520  0.20150400  1
  C  630  1  0.05905310  0.02671120  0.19593300  1
  C  631  1  0.03098210  0.04833320  0.20349700  1
  C  632  1  0.04565910  0.07241920  0.21804500  1
  C  633  1  0.08801110  0.07563520  0.22394300  1
  C  634  1  0.18625400  0.07560320  0.22391500  1
  C  635  1  0.22859000  0.07240820  0.21797300  1
  C  636  1  0.24325100  0.04836520  0.20334500  1
  C  637  1  0.21516500  0.02673420  0.19578300  1
  C  638  1  0.13668100  0.98266800  0.20201800  1
  C  639  1  0.13577900  0.96446200  0.17874200  1
  C  640  1  0.13612200  0.98006400  0.15384500  1
  C  641  1  0.13690700  0.00879524  0.16042000  1
  C  642  1  0.13500000  0.97082800  0.12568100  1
  C  643  1  0.13481100  0.99092200  0.10385600  1
  C  644  1  0.13627000  0.02028320  0.10961700  1
  C  645  1  0.13660100  0.02900920  0.13829700  1
  C  646  1  0.13614300  0.97092500  0.22970200  1
  C  647  1  0.13511400  0.94111800  0.23394000  1
  C  648  1  0.13266300  0.92378500  0.20954000  1
  C  649  1  0.13350400  0.93509600  0.18216900  1
  C  662  1  0.13707700  0.01259520  0.19172400  1
  C  667  1  0.67341000  0.75933900  0.56659000  1
  C  668  1  0.65969200  0.77314100  0.54218500  1
  C  669  1  0.61675300  0.77313000  0.54195300  1
  C  670  1  0.60258300  0.75922100  0.56616200  1
  C  671  1  0.55992500  0.75358400  0.56932900  1
  C  672  1  0.53202700  0.76123900  0.54763800  1
  C  673  1  0.54690800  0.77584200  0.52364600  1
  C  674  1  0.58928500  0.78177200  0.52062800  1
  C  675  1  0.68751800  0.78171000  0.52105500  1
  C  676  1  0.72980500  0.77567700  0.52438500  1
  C  677  1  0.74423800  0.76104500  0.54848700  1
  C  678  1  0.71598500  0.75356100  0.57004200  1
  C  679  1  0.63687000  0.75964100  0.61377000  1
  C  680  1  0.63558100  0.73630800  0.63188900  1
  C  681  1  0.63632300  0.71146500  0.61620800  1
  C  682  1  0.63768600  0.71814600  0.58750800  1
  C  683  1  0.63643400  0.68326700  0.62536800  1
  C  684  1  0.63757800  0.66151400  0.60521300  1
  C  685  1  0.63796100  0.66739100  0.57585900  1
  C  686  1  0.63876500  0.69609500  0.56722900  1
  C  687  1  0.63630700  0.78728600  0.62559500  1
  C  688  1  0.63479600  0.79141700  0.65540300  1
  C  689  1  0.63183100  0.76697300  0.67263800  1
  C  690  1  0.63274600  0.73963700  0.66124200  1
  C  703  1  0.63779100  0.74945800  0.58381600  1
  C  708  1  0.67206600  0.39504100  0.47284800  1
  C  709  1  0.65808800  0.38125200  0.49718900  1
  C  710  1  0.61515100  0.38121000  0.49716600  1
  C  711  1  0.60122000  0.39497300  0.47280400  1
  C  712  1  0.55861400  0.40069900  0.46947600  1
  C  713  1  0.53050000  0.39313000  0.49107000  1
  C  714  1  0.54513400  0.37856800  0.51515900  1
  C  715  1  0.58747300  0.37263600  0.51839000  1
  C  716  1  0.68567900  0.37267000  0.51846000  1
  C  717  1  0.72800600  0.37867900  0.51533700  1
  C  718  1  0.74272000  0.39327000  0.49128700  1
  C  719  1  0.71469300  0.40077200  0.46960300  1
  C  720  1  0.63628600  0.39454500  0.42544000  1
  C  721  1  0.63538300  0.41783600  0.40725700  1
  C  722  1  0.63575100  0.44271900  0.42288200  1
  C  723  1  0.63649600  0.43611600  0.45160900  1
  C  724  1  0.63467800  0.47089100  0.41366900  1
  C  725  1  0.63453300  0.49269700  0.43378200  1
  C  726  1  0.63600100  0.48691500  0.46314000  1
  C  727  1  0.63622400  0.45822200  0.47184000  1
  C  728  1  0.63574500  0.36687100  0.41367800  1
  C  729  1  0.63473700  0.36265700  0.38386900  1
  C  730  1  0.63234100  0.38707200  0.36655000  1
  C  731  1  0.63317900  0.41443300  0.37788500  1
  C  744  1  0.63664100  0.40480800  0.45537800  1
  C  749  1  0.60151300  0.02987820  0.83458700  1
  C  750  1  0.61562400  0.05149420  0.81690500  1
  C  751  1  0.65836300  0.05168020  0.81689200  1
  C  752  1  0.67286600  0.03012520  0.83448300  1
  C  753  1  0.71567600  0.02898220  0.84089800  1
  C  754  1  0.74321500  0.04909920  0.82906800  1
  C  755  1  0.72715300  0.07045420  0.81123500  1
  C  756  1  0.68492200  0.07180120  0.80491500  1
  C  757  1  0.58876500  0.07153120  0.80510900  1
  C  758  1  0.54660800  0.06995020  0.81158100  1
  C  759  1  0.53092400  0.04850620  0.82946500  1
  C  760  1  0.55878100  0.02853320  0.84119700  1
  C  761  1  0.63770400  0.98309400  0.83641500  1
  C  762  1  0.63889500  0.96557900  0.86019700  1
  C  763  1  0.63872100  0.98194900  0.88454200  1
  C  764  1  0.63766400  0.01053920  0.87722300  1
  C  765  1  0.63858500  0.97321900  0.91285800  1
  C  766  1  0.63763300  0.99370500  0.93423600  1
  C  767  1  0.63754700  0.02296120  0.92790300  1
  C  768  1  0.63677400  0.03115420  0.89900800  1
  C  769  1  0.63724100  0.97045500  0.80909700  1
  C  770  1  0.63818400  0.94051300  0.80608300  1
  C  771  1  0.63986200  0.92382700  0.83077600  1
  C  772  1  0.64006600  0.93605900  0.85774200  1
  C  785  1  0.63734600  0.01338620  0.84575000  1
  C  790  1  0.60142700  0.12411600  0.20434400  1
  C  791  1  0.61563100  0.10252900  0.22203000  1
  C  792  1  0.65836600  0.10246700  0.22209500  1
  C  793  1  0.67278600  0.12404600  0.20450500  1
  C  794  1  0.71560500  0.12529300  0.19811900  1
  C  795  1  0.74320500  0.10517700  0.20989000  1
  C  796  1  0.72720900  0.08378120  0.22770000  1
  C  797  1  0.68499600  0.08238120  0.23405600  1
  C  798  1  0.58883300  0.08247520  0.23386400  1
  C  799  1  0.54668200  0.08394620  0.22734400  1
  C  800  1  0.53089000  0.10538200  0.20949800  1
  C  801  1  0.55868200  0.12539700  0.19775500  1
  C  802  1  0.63724100  0.17101100  0.20274800  1
  C  803  1  0.63828900  0.18862800  0.17903800  1
  C  804  1  0.63851400  0.17235700  0.15462700  1
  C  805  1  0.63761500  0.14373400  0.16182000  1
  C  806  1  0.64018700  0.18118400  0.12636400  1
  C  807  1  0.64066300  0.16077400  0.10490600  1
  C  808  1  0.63871800  0.13151700  0.11109100  1
  C  809  1  0.63810900  0.12320200  0.13995500  1
  C  810  1  0.63667500  0.18354700  0.23011900  1
  C  811  1  0.63732400  0.21348300  0.23325300  1
  C  812  1  0.63873700  0.23027100  0.20862100  1
  C  813  1  0.63908900  0.21814400  0.18161000  1
  C  826  1  0.63718800  0.14075500  0.19328200  1
  C  831  1  0.10085800  0.39194300  0.56676200  1
  C  832  1  0.11492900  0.37415400  0.54522100  1
  C  833  1  0.15765900  0.37413500  0.54500500  1
  C  834  1  0.17219900  0.39181900  0.56647100  1
  C  835  1  0.21502800  0.39817900  0.56761300  1
  C  836  1  0.24253900  0.38630000  0.54750400  1
  C  837  1  0.22644000  0.36839700  0.52622100  1
  C  838  1  0.18420400  0.36207300  0.52492400  1
  C  839  1  0.08800210  0.36225500  0.52528700  1
  C  840  1  0.04585110  0.36874700  0.52687900  1
  C  841  1  0.03022210  0.38671800  0.54826300  1
  C  842  1  0.05810410  0.39846500  0.56821700  1
  C  843  1  0.13709900  0.39371400  0.61354400  1
  C  844  1  0.13833400  0.41748400  0.63107400  1
  C  845  1  0.13817400  0.44183900  0.61472100  1
  C  846  1  0.13707400  0.43454100  0.58612700  1
  C  847  1  0.13812600  0.47015100  0.62346900  1
  C  848  1  0.13721000  0.49154200  0.60299700  1
  C  849  1  0.13707400  0.48522600  0.57373900  1
  C  850  1  0.13623900  0.45633900  0.56552600  1
  C  851  1  0.13661600  0.36638800  0.62616900  1
  C  852  1  0.13760000  0.36335800  0.65610900  1
  C  853  1  0.13932700  0.38803800  0.67280900  1
  C  854  1  0.13953900  0.41501000  0.66059200  1
  C  867  1  0.13671500  0.40307300  0.58325900  1
  C  872  1  0.10211600  0.76156000  0.47263300  1
  C  873  1  0.11637900  0.77923900  0.49419900  1
  C  874  1  0.15910500  0.77936600  0.49415900  1
  C  875  1  0.17346100  0.76180800  0.47253000  1
  C  876  1  0.21628700  0.75547000  0.47118200  1
  C  877  1  0.24395400  0.76725700  0.49124500  1
  C  878  1  0.22803400  0.78506500  0.51266900  1
  C  879  1  0.18581900  0.79140000  0.51415100  1
  C  880  1  0.08964610  0.79117000  0.51423400  1
  C  881  1  0.04748010  0.78468400  0.51280200  1
  C  882  1  0.03163510  0.76682700  0.49139400  1
  C  883  1  0.05933410  0.75509400  0.47131300  1
  C  884  1  0.13774300  0.76003100  0.42563600  1
  C  885  1  0.13874200  0.73632000  0.40801600  1
  C  886  1  0.13900700  0.71190600  0.42428500  1
  C  887  1  0.13823700  0.71910100  0.45290800  1
  C  888  1  0.14064000  0.68364300  0.41545500  1
  C  889  1  0.14112300  0.66218500  0.43586400  1
  C  890  1  0.13927000  0.66837200  0.46512200  1
  C  891  1  0.13873800  0.69723300  0.47344100  1
  C  892  1  0.13717000  0.78740200  0.41310000  1
  C  893  1  0.13773900  0.79053700  0.38316500  1
  C  894  1  0.13909700  0.76590600  0.36637300  1
  C  895  1  0.13945800  0.73889300  0.37850000  1
  C  908  1  0.13781200  0.75055800  0.45589000  1
  C  913  1  0.11067800  0.07897520  0.04238090  1
  C  914  1  0.14246600  0.05836220  0.04203890  1
  C  915  1  0.16611900  0.05725120  0.01684190  1
  C  917  1  0.12847400  0.09493620  0.99588600  1
  C  921  1  0.04554810  0.06976220  0.06195390  1
  C  925  1  0.12179100  0.11435200  0.97443400  1
  C  927  1  0.14926900  0.03847320  0.06346390  1
  C  929  1  0.61060700  0.55421900  0.52181000  1
  C  930  1  0.64243400  0.55447800  0.50122300  1
  C  931  1  0.66620200  0.57962400  0.50011400  1
  C  933  1  0.62857900  0.60069000  0.53774900  1
  C  937  1  0.54540300  0.53477400  0.51257200  1
  C  941  1  0.62196100  0.62217200  0.55714300  1
  C  943  1  0.64918500  0.53302200  0.48135900  1
  C  945  1  0.66470900  0.07462320  0.04219290  1
  C  946  1  0.63185300  0.09441820  0.04298190  1
  C  947  1  0.60774200  0.09601320  0.01799790  1
  C  949  1  0.64699600  0.06025220  0.99512500  1
  C  953  1  0.72975000  0.08435120  0.06169690  1
  C  957  1  0.65408400  0.04169920  0.97295600  1
  C  959  1  0.62461000  0.11338100  0.06518890  1
  C  961  1  0.16485400  0.59944200  0.52206800  1
  C  962  1  0.13202600  0.60029600  0.50225200  1
  C  963  1  0.10778800  0.57537100  0.50065800  1
  C  965  1  0.14688500  0.55242400  0.53645300  1
  C  969  1  0.23000800  0.61878100  0.51237000  1
  C  973  1  0.15384100  0.53024700  0.55501900  1
  C  975  1  0.12491900  0.62251100  0.48327400  1
  C  977  1  0.86903100  0.05591420  0.85806300  1
  C  978  1  0.85307100  0.06246020  0.83099500  1
  C  979  1  0.87840600  0.07960320  0.81368700  1
  C  981  1  0.93116900  0.08147220  0.84839000  1
  C  985  1  0.83095700  0.05437120  0.90015100  1
  C  989  1  0.97004300  0.08989520  0.85692400  1
  C  991  1  0.81431700  0.05447820  0.82106600  1
  C  993  1  0.86867800  0.09758120  0.18043600  1
  C  994  1  0.85301200  0.09156620  0.20771000  1
  C  995  1  0.87849000  0.07466920  0.22517000  1
  C  997  1  0.93081100  0.07203720  0.19020500  1
  C  1001  1  0.83008200  0.09845320  0.13853200  1
  C  1005  1  0.96953600  0.06334720  0.18160400  1
  C  1007  1  0.81435800  0.09972920  0.21770300  1
  C  1009  1  0.36952600  0.73798000  0.49857900  1
  C  1010  1  0.35382700  0.76525200  0.50455700  1
  C  1011  1  0.37936200  0.78280100  0.52132000  1
  C  1013  1  0.43180600  0.74792000  0.52388100  1
  C  1017  1  0.33103000  0.69602900  0.49799200  1
  C  1021  1  0.47062200  0.73941200  0.53245700  1
  C  1023  1  0.31509500  0.77517100  0.49648300  1
  C  1025  1  0.36818100  0.41561600  0.54042300  1
  C  1026  1  0.35233400  0.38853100  0.53382500  1
  C  1027  1  0.37766200  0.37135600  0.51654300  1
  C  1029  1  0.43021200  0.40621300  0.51463400  1
  C  1033  1  0.32989200  0.45760200  0.54225600  1
  C  1037  1  0.46897700  0.41489600  0.50611500  1
  C  1039  1  0.31368200  0.37846900  0.54188500  1
  C  1041  1  0.40517000  0.09823620  0.18024600  1
  C  1042  1  0.42107500  0.09204620  0.20741000  1
  C  1043  1  0.39585200  0.07492820  0.22482400  1
  C  1045  1  0.34329700  0.07238320  0.19000900  1
  C  1049  1  0.44345000  0.09960920  0.13823600  1
  C  1053  1  0.30458100  0.06361720  0.18144800  1
  C  1055  1  0.45972800  0.10028200  0.21733200  1
  C  1057  1  0.40533100  0.05572620  0.85888500  1
  C  1058  1  0.42115600  0.06175920  0.83166600  1
  C  1059  1  0.39595900  0.07885820  0.81421900  1
  C  1061  1  0.34355900  0.08168020  0.84911800  1
  C  1065  1  0.44370100  0.05445120  0.90086500  1
  C  1069  1  0.30494800  0.09057720  0.85773200  1
  C  1071  1  0.45974100  0.05342220  0.82171700  1
  C  1073  1  0.90462200  0.41620200  0.54124800  1
  C  1074  1  0.92037500  0.38898000  0.53513900  1
  C  1075  1  0.89505200  0.37157700  0.51807800  1
  C  1077  1  0.84269100  0.40652100  0.51543100  1
  C  1081  1  0.94306700  0.45815000  0.54248000  1
  C  1085  1  0.80402700  0.41515400  0.50663400  1
  C  1087  1  0.95899600  0.37899100  0.54336700  1
  C  1089  1  0.90592100  0.73767800  0.49859600  1
  C  1090  1  0.92184000  0.76484700  0.50474200  1
  C  1091  1  0.89667500  0.78227600  0.52188200  1
  C  1093  1  0.84413200  0.74746100  0.52453000  1
  C  1097  1  0.94418000  0.69565600  0.49720600  1
  C  1101  1  0.80545200  0.73890800  0.53337200  1
  C  1103  1  0.96048900  0.77475200  0.49647600  1
  C  1105  1  0.15551300  0.30675600  0.72182100  1
  C  1106  1  0.13803500  0.29631500  0.69638500  1
  C  1107  1  0.12483900  0.26775100  0.69767800  1
  C  1109  1  0.14532200  0.26257800  0.74585600  1
  C  1113  1  0.21258400  0.33725800  0.72238400  1
  C  1117  1  0.15010500  0.24816200  0.77136300  1
  C  1119  1  0.13431000  0.31242000  0.67141400  1
  C  1121  1  0.15594200  0.84716300  0.31750600  1
  C  1122  1  0.13855100  0.85764100  0.34295200  1
  C  1123  1  0.12551300  0.88624100  0.34166500  1
  C  1125  1  0.14598300  0.89137800  0.29347300  1
  C  1129  1  0.21286600  0.81653100  0.31693500  1
  C  1133  1  0.15091100  0.90578700  0.26796800  1
  C  1135  1  0.13482000  0.84154500  0.36793400  1
  C  1137  1  0.65602600  0.87476800  0.74950200  1
  C  1138  1  0.63863200  0.90022600  0.73904700  1
  C  1139  1  0.62549100  0.89895200  0.71047100  1
  C  1141  1  0.64585900  0.85074900  0.70531100  1
  C  1145  1  0.71303000  0.87413900  0.78006200  1
  C  1149  1  0.65060100  0.82523800  0.69089800  1
  C  1151  1  0.63493800  0.92520000  0.75515200  1
  C  1153  1  0.65556200  0.27910800  0.28990300  1
  C  1154  1  0.63808200  0.25368200  0.30036000  1
  C  1155  1  0.62498400  0.25497900  0.32894600  1
  C  1157  1  0.64556800  0.30314500  0.33411000  1
  C  1161  1  0.71256000  0.27962500  0.25933500  1
  C  1165  1  0.65052700  0.32864000  0.34852900  1
  C  1167  1  0.63432600  0.22870900  0.28425600  1
  N  38  1  0.01652400  0.05079900  0.44412300  1
  N  39  1  0.15980900  0.04472100  0.33627100  1
  N  40  1  0.86809700  0.04403000  0.33564100  1
  N  41  1  0.00911600  0.16149800  0.27311600  1
  N  79  1  0.01025000  0.97610800  0.58255200  1
  N  80  1  0.15936800  0.98287900  0.69057200  1
  N  81  1  0.86757500  0.98275300  0.69080000  1
  N  82  1  0.00976800  0.86582500  0.75387600  1
  N  120  1  0.51679400  0.58309600  0.05075600  1
  N  121  1  0.66027900  0.69093700  0.04471700  1
  N  122  1  0.36859200  0.69142200  0.04374600  1
  N  123  1  0.50959800  0.75414600  0.16140700  1
  N  161  1  0.51001800  0.44462300  0.97614400  1
  N  162  1  0.65882600  0.33673500  0.98301200  1
  N  163  1  0.36711100  0.33650500  0.98261800  1
  N  164  1  0.50936300  0.27338300  0.86572800  1
  N  202  1  0.51121800  0.97868700  0.44291700  1
  N  203  1  0.36797400  0.98732200  0.33172300  1
  N  204  1  0.65895900  0.98793000  0.33113700  1
  N  205  1  0.51488700  0.86217000  0.27611400  1
  N  243  1  0.51761900  0.04923200  0.58393100  1
  N  244  1  0.36790300  0.04003900  0.69511900  1
  N  245  1  0.65890400  0.03976500  0.69553400  1
  N  246  1  0.51408600  0.16522000  0.75110100  1
  N  284  1  0.01087100  0.44307700  0.04866300  1
  N  285  1  0.86725000  0.33179900  0.04017300  1
  N  286  1  0.15824800  0.33127200  0.03923100  1
  N  287  1  0.01429700  0.27620700  0.16508700  1
  N  325  1  0.01805400  0.58404000  0.97806500  1
  N  326  1  0.86862300  0.69533600  0.98736400  1
  N  327  1  0.15967800  0.69577700  0.98721500  1
  N  328  1  0.01451500  0.75121500  0.86207300  1
  N  332  1  0.03521000  0.01192200  0.48890400  1
  N  334  1  0.98178100  0.03320500  0.51377000  1
  N  348  1  0.53535700  0.53824100  0.01193300  1
  N  350  1  0.48177800  0.51350200  0.03318900  1
  N  364  1  0.49189500  0.01596100  0.48924300  1
  N  366  1  0.54681200  0.99499400  0.51280000  1
  N  380  1  0.99180800  0.48943700  0.01137400  1
  N  382  1  0.04682000  0.51287600  0.03236300  1
  N  396  1  0.79231500  0.02522500  0.31656300  1
  N  398  1  0.78378900  0.00183700  0.35939300  1
  N  412  1  0.79223700  0.00226700  0.71005900  1
  N  414  1  0.78330100  0.02490800  0.66687300  1
  N  428  1  0.29320100  0.71060100  0.02427400  1
  N  430  1  0.28423800  0.66733000  0.00179400  1
  N  444  1  0.29146000  0.31719800  0.00148400  1
  N  446  1  0.28283300  0.35991400  0.02505600  1
  N  460  1  0.23481300  0.00246300  0.70976200  1
  N  462  1  0.24327600  0.02548300  0.66666667  1
  N  476  1  0.23500800  0.02493100  0.31712900  1
  N  478  1  0.24351400  0.00207900  0.36024500  1
  N  492  1  0.73406200  0.31735600  0.00275800  1
  N  494  1  0.74276300  0.36043500  0.02564800  1
  N  508  1  0.73566900  0.71004800  0.02505900  1
  N  510  1  0.74405600  0.66700100  0.00206000  1
  N  524  1  0.00489600  0.18875700  0.21564900  1
  N  526  1  0.03434400  0.22667100  0.23891000  1
  N  540  1  0.00563800  0.83871100  0.81151300  1
  N  542  1  0.03485600  0.80072700  0.78823900  1
  N  556  1  0.50551500  0.81162700  0.18864900  1
  N  558  1  0.53483100  0.78832600  0.22658900  1
  N  572  1  0.50513700  0.21577400  0.83859500  1
  N  574  1  0.53450000  0.23902000  0.80064500  1
  N  622  1  0.14017000  0.11406000  0.95021300  1
  N  623  1  0.28345500  0.10798200  0.84236100  1
  N  624  1  0.99174300  0.10729100  0.84173100  1
  N  625  1  0.13276200  0.22475900  0.77920600  1
  N  663  1  0.13389600  0.03936920  0.08864190  1
  N  664  1  0.28301400  0.04614020  0.19666200  1
  N  665  1  0.99122100  0.04601420  0.19689000  1
  N  666  1  0.13341400  0.92908600  0.25996600  1
  N  704  1  0.64044000  0.64635700  0.55684600  1
  N  705  1  0.78392500  0.75419800  0.55080700  1
  N  706  1  0.49223800  0.75468300  0.54983600  1
  N  707  1  0.63324400  0.81740700  0.66749700  1
  N  745  1  0.63366400  0.50788400  0.48223400  1
  N  746  1  0.78247200  0.39999600  0.48910200  1
  N  747  1  0.49075700  0.39976600  0.48870800  1
  N  748  1  0.63300900  0.33664400  0.37181800  1
  N  786  1  0.63486400  0.04194820  0.94900700  1
  N  787  1  0.49162000  0.05058320  0.83781300  1
  N  788  1  0.78260500  0.05119120  0.83722700  1
  N  789  1  0.63853300  0.92543100  0.78220400  1
  N  827  1  0.64126500  0.11249300  0.09002090  1
  N  828  1  0.49154900  0.10330000  0.20120900  1
  N  829  1  0.78255000  0.10302600  0.20162400  1
  N  830  1  0.63773200  0.22848100  0.25719100  1
  N  868  1  0.13451700  0.50633800  0.55475300  1
  N  869  1  0.99089600  0.39506000  0.54626300  1
  N  870  1  0.28189400  0.39453300  0.54532100  1
  N  871  1  0.13794300  0.33946800  0.67117700  1
  N  909  1  0.14170000  0.64730100  0.48415500  1
  N  910  1  0.99226900  0.75859700  0.49345400  1
  N  911  1  0.28332400  0.75903800  0.49330500  1
  N  912  1  0.13816100  0.81447600  0.36816300  1
  N  916  1  0.15885600  0.07518320  0.99499400  1
  N  918  1  0.10542700  0.09646620  0.01985990  1
  N  932  1  0.65900300  0.60150200  0.51802300  1
  N  934  1  0.60542400  0.57676300  0.53927900  1
  N  948  1  0.61554100  0.07922220  0.99533300  1
  N  950  1  0.67045800  0.05825520  0.01888990  1
  N  964  1  0.11545400  0.55269800  0.51746400  1
  N  966  1  0.17046600  0.57613700  0.53845300  1
  N  980  1  0.91596100  0.08848620  0.82265300  1
  N  982  1  0.90743500  0.06509820  0.86548300  1
  N  996  1  0.91588300  0.06552820  0.21614900  1
  N  998  1  0.90694700  0.08816920  0.17296300  1
  N  1012  1  0.41684700  0.77386200  0.53036400  1
  N  1014  1  0.40788400  0.73059100  0.50788400  1
  N  1028  1  0.41510600  0.38045900  0.50757400  1
  N  1030  1  0.40647900  0.42317500  0.53114600  1
  N  1044  1  0.35845900  0.06572420  0.21585200  1
  N  1046  1  0.36692200  0.08874420  0.17282300  1
  N  1060  1  0.35865400  0.08819220  0.82321900  1
  N  1062  1  0.36716000  0.06534020  0.86633500  1
  N  1076  1  0.85770800  0.38061700  0.50884800  1
  N  1078  1  0.86640900  0.42369600  0.53173800  1
  N  1092  1  0.85931500  0.77330900  0.53114900  1
  N  1094  1  0.86770200  0.73026200  0.50815000  1
  N  1108  1  0.12854200  0.25201800  0.72173900  1
  N  1110  1  0.15799000  0.28993200  0.74500000  1
  N  1124  1  0.12928400  0.90197200  0.31760300  1
  N  1126  1  0.15850200  0.86398800  0.29432900  1
  N  1140  1  0.62916100  0.87488800  0.69473900  1
  N  1142  1  0.65847700  0.85158700  0.73267900  1
  N  1156  1  0.62878300  0.27903500  0.34468500  1
  N  1158  1  0.65814600  0.30228100  0.30673500  1
  O  335  1  0.96174400  0.01955500  0.55909400  1
  O  351  1  0.46157100  0.46820700  0.01955900  1
  O  367  1  0.56685800  0.00715900  0.55857800  1
  O  383  1  0.06711200  0.55859700  0.02018100  1
  O  399  1  0.72419800  0.97588000  0.37048500  1
  O  415  1  0.72369700  0.05079800  0.65564400  1
  O  431  1  0.22448200  0.65592800  0.97615000  1
  O  447  1  0.22335500  0.37074500  0.05124400  1
  O  463  1  0.30262000  0.05169200  0.65554500  1
  O  479  1  0.30278400  0.97578800  0.37144500  1
  O  495  1  0.80218500  0.37155600  0.05180600  1
  O  511  1  0.80332200  0.65578900  0.97577700  1
  O  527  1  0.04491400  0.27076900  0.21882100  1
  O  543  1  0.04521100  0.75659800  0.80832500  1
  O  559  1  0.54535900  0.80839800  0.27069700  1
  O  575  1  0.54490200  0.21892800  0.75652400  1
  O  919  1  0.08539010  0.08281620  0.06518390  1
  O  935  1  0.58521700  0.53146800  0.52564900  1
  O  951  1  0.69050400  0.07042020  0.06466790  1
  O  967  1  0.19075800  0.62185800  0.52627100  1
  O  983  1  0.84784400  0.03914120  0.87657500  1
  O  999  1  0.84734300  0.11405900  0.16173400  1
  O  1015  1  0.34812800  0.71918900  0.48224000  1
  O  1031  1  0.34700100  0.43400600  0.55733400  1
  O  1047  1  0.42626600  0.11495300  0.16163500  1
  O  1063  1  0.42643000  0.03904920  0.87753500  1
  O  1079  1  0.92583100  0.43481700  0.55789600  1
  O  1095  1  0.92696800  0.71905000  0.48186700  1
  O  1111  1  0.16856000  0.33403000  0.72491100  1
  O  1127  1  0.16885700  0.81985900  0.31441500  1
  O  1143  1  0.66900500  0.87165900  0.77678700  1
  O  1159  1  0.66854800  0.28218900  0.26261400  1
