# generated using pymatgen
data_H16C33N4
_symmetry_space_group_name_H-M   'P 1'
_cell_length_a   23.76980000
_cell_length_b   29.03740000
_cell_length_c   44.77030000
_cell_angle_alpha   90.00000000
_cell_angle_beta   90.00000000
_cell_angle_gamma   90.00100000
_symmetry_Int_Tables_number   1
_chemical_formula_structural   H16C33N4
_chemical_formula_sum   'H256 C528 N64'
_cell_volume   30901.05159883
_cell_formula_units_Z   16
loop_
 _symmetry_equiv_pos_site_id
 _symmetry_equiv_pos_as_xyz
  1  'x, y, z'
loop_
 _atom_site_type_symbol
 _atom_site_label
 _atom_site_symmetry_multiplicity
 _atom_site_fract_x
 _atom_site_fract_y
 _atom_site_fract_z
 _atom_site_occupancy
  C  1  1  0.30545300  0.08479200  0.16010700  1
  C  2  1  0.28988900  0.05537900  0.18352600  1
  C  3  1  0.23182000  0.05259100  0.18464600  1
  C  4  1  0.20939300  0.07965300  0.16165300  1
  C  5  1  0.15394100  0.07035000  0.15160400  1
  C  6  1  0.12145300  0.03439700  0.16481200  1
  C  7  1  0.14488500  0.01065400  0.18963900  1
  C  8  1  0.19979100  0.01905300  0.19943500  1
  C  9  1  0.32852300  0.02581600  0.19750900  1
  C  10  1  0.38331700  0.02349600  0.18624600  1
  C  11  1  0.39941800  0.04972000  0.16095700  1
  C  12  1  0.36100900  0.08207900  0.14866300  1
  C  13  1  0.25193900  0.11670200  0.11545200  1
  C  14  1  0.24715600  0.16390600  0.10947400  1
  C  15  1  0.24708500  0.18852900  0.13592900  1
  C  16  1  0.25134200  0.15814200  0.16004300  1
  C  17  1  0.24394800  0.23642000  0.13982600  1
  C  18  1  0.24409100  0.25442600  0.16885000  1
  C  19  1  0.24684200  0.22558800  0.19441300  1
  C  20  1  0.25174300  0.17704900  0.18948300  1
  C  21  1  0.25328100  0.08536600  0.09103100  1
  C  22  1  0.24859000  0.10196300  0.06117400  1
  C  23  1  0.24382800  0.15012700  0.05641200  1
  C  24  1  0.24305900  0.18118100  0.08029400  1
  C  37  1  0.25460900  0.10930700  0.14860300  1
  C  38  1  0.20703200  0.08453800  0.84635900  1
  C  39  1  0.22303500  0.05493100  0.82309500  1
  C  40  1  0.28110100  0.05172700  0.82262400  1
  C  41  1  0.30321000  0.07910200  0.84552300  1
  C  42  1  0.35869100  0.07013600  0.85566800  1
  C  43  1  0.39144200  0.03420500  0.84261700  1
  C  44  1  0.36834200  0.01022100  0.81779900  1
  C  45  1  0.31341400  0.01828500  0.80791800  1
  C  46  1  0.18470000  0.02499100  0.80920400  1
  C  47  1  0.12978600  0.02258900  0.82028300  1
  C  48  1  0.11332400  0.04888400  0.84546500  1
  C  49  1  0.15148800  0.08139600  0.85779500  1
  C  50  1  0.25971400  0.11611200  0.89141500  1
  C  51  1  0.26440600  0.16329300  0.89750600  1
  C  52  1  0.26525700  0.18800400  0.87108500  1
  C  53  1  0.26140600  0.15770700  0.84690400  1
  C  54  1  0.26852200  0.23590600  0.86727000  1
  C  55  1  0.26872000  0.25403000  0.83827300  1
  C  56  1  0.26612000  0.22530300  0.81265100  1
  C  57  1  0.26127200  0.17673500  0.81749800  1
  C  58  1  0.25774500  0.08466000  0.91576000  1
  C  59  1  0.26087400  0.10121000  0.94567500  1
  C  60  1  0.26572300  0.14932700  0.95058000  1
  C  61  1  0.26755700  0.18045600  0.92675100  1
  C  74  1  0.25776700  0.10883700  0.85824400  1
  C  75  1  0.80275700  0.95427200  0.84457600  1
  C  76  1  0.77936200  0.98172300  0.82208800  1
  C  77  1  0.72133500  0.97880900  0.82379900  1
  C  78  1  0.70680800  0.94938800  0.84744900  1
  C  79  1  0.65186800  0.95229200  0.85969600  1
  C  80  1  0.61307200  0.98497400  0.84809900  1
  C  81  1  0.62815400  0.01143600  0.82273600  1
  C  82  1  0.68233800  0.00900700  0.81071700  1
  C  83  1  0.81084600  0.01536700  0.80705300  1
  C  84  1  0.86636000  0.02331600  0.81603300  1
  C  85  1  0.89089000  0.99909700  0.84035700  1
  C  86  1  0.85882200  0.96312900  0.85382100  1
  C  87  1  0.76349200  0.91710600  0.89120300  1
  C  88  1  0.77267500  0.87023900  0.89682100  1
  C  89  1  0.77094100  0.84570500  0.87034800  1
  C  90  1  0.76124900  0.87586600  0.84656000  1
  C  91  1  0.77664900  0.79802200  0.86621300  1
  C  92  1  0.77103200  0.77981100  0.83740200  1
  C  93  1  0.75921400  0.80816000  0.81234300  1
  C  94  1  0.75608600  0.85679800  0.81728800  1
  C  95  1  0.76131800  0.94806600  0.91580400  1
  C  96  1  0.76955900  0.93154200  0.94547100  1
  C  97  1  0.77892200  0.88373500  0.94983600  1
  C  98  1  0.78048300  0.85300200  0.92579100  1
  C  111  1  0.75810800  0.92462000  0.85815400  1
  C  112  1  0.70986600  0.95553600  0.16183000  1
  C  113  1  0.73337000  0.98332400  0.18409500  1
  C  114  1  0.79133800  0.98013500  0.18248400  1
  C  115  1  0.80589100  0.95012200  0.15917200  1
  C  116  1  0.86109600  0.95231600  0.14721700  1
  C  117  1  0.90017600  0.98468100  0.15891400  1
  C  118  1  0.88511200  0.01143100  0.18415700  1
  C  119  1  0.83064600  0.00972700  0.19587900  1
  C  120  1  0.70193600  0.01695900  0.19915800  1
  C  121  1  0.64640000  0.02484000  0.19018300  1
  C  122  1  0.62173400  0.00035000  0.16600500  1
  C  123  1  0.65372400  0.96421800  0.15266800  1
  C  124  1  0.74934800  0.91850100  0.11526700  1
  C  125  1  0.73993400  0.87172700  0.10943000  1
  C  126  1  0.74099600  0.84697900  0.13583900  1
  C  127  1  0.75078600  0.87687900  0.15975900  1
  C  128  1  0.73482700  0.79930600  0.13981400  1
  C  129  1  0.74013800  0.78083700  0.16857800  1
  C  130  1  0.75220400  0.80889400  0.19374900  1
  C  131  1  0.75572200  0.85755500  0.18896800  1
  C  132  1  0.75214200  0.94970500  0.09081800  1
  C  133  1  0.74480500  0.93339900  0.06105500  1
  C  134  1  0.73514800  0.88570200  0.05641100  1
  C  135  1  0.73260200  0.85478600  0.08034200  1
  C  148  1  0.75443400  0.92569500  0.14834500  1
  C  149  1  0.80363600  0.58337100  0.65965000  1
  C  150  1  0.78745200  0.55326200  0.68258200  1
  C  151  1  0.72931500  0.55087500  0.68327700  1
  C  152  1  0.70736200  0.57939000  0.66090100  1
  C  153  1  0.65214400  0.57044000  0.65032200  1
  C  154  1  0.61914600  0.53420000  0.66285700  1
  C  155  1  0.64184800  0.50962500  0.68753400  1
  C  156  1  0.69676000  0.51717400  0.69756800  1
  C  157  1  0.82531800  0.52225700  0.69582100  1
  C  158  1  0.88017800  0.51986400  0.68467800  1
  C  159  1  0.89690200  0.54701800  0.65992200  1
  C  160  1  0.85914400  0.58035800  0.64818200  1
  C  161  1  0.75123900  0.61865000  0.61565900  1
  C  162  1  0.74839000  0.66631200  0.61087000  1
  C  163  1  0.74908600  0.68933100  0.63795000  1
  C  164  1  0.75143800  0.65718300  0.66113500  1
  C  165  1  0.74838000  0.73699000  0.64335600  1
  C  166  1  0.75004300  0.75293200  0.67292900  1
  C  167  1  0.75176500  0.72216400  0.69753700  1
  C  168  1  0.75234600  0.67387900  0.69105700  1
  C  169  1  0.75197900  0.58871600  0.59053300  1
  C  170  1  0.74864800  0.60716500  0.56110900  1
  C  171  1  0.74573300  0.65565400  0.55747300  1
  C  172  1  0.74563400  0.68534300  0.58210500  1
  C  185  1  0.75331300  0.60902800  0.64854200  1
  C  186  1  0.70600800  0.58416300  0.34608700  1
  C  187  1  0.72140600  0.55384000  0.32313400  1
  C  188  1  0.77944200  0.55080300  0.32209800  1
  C  189  1  0.80197500  0.57857000  0.34470900  1
  C  190  1  0.85733000  0.56932400  0.35493400  1
  C  191  1  0.88957800  0.53271200  0.34230100  1
  C  192  1  0.86604200  0.50830300  0.31776700  1
  C  193  1  0.81120800  0.51657100  0.30784900  1
  C  194  1  0.68255800  0.52407200  0.30951300  1
  C  195  1  0.62764800  0.52261900  0.32066800  1
  C  196  1  0.61167800  0.54992800  0.34549300  1
  C  197  1  0.65032800  0.58241400  0.35739600  1
  C  198  1  0.75926600  0.61839200  0.39003600  1
  C  199  1  0.76340600  0.66596100  0.39495900  1
  C  200  1  0.76334400  0.68915500  0.36792700  1
  C  201  1  0.75991400  0.65720000  0.34466600  1
  C  202  1  0.76513300  0.73682500  0.36261800  1
  C  203  1  0.76340800  0.75295600  0.33308300  1
  C  204  1  0.76048400  0.72236100  0.30841500  1
  C  205  1  0.75891400  0.67406100  0.31478700  1
  C  206  1  0.75730000  0.58829600  0.41505900  1
  C  207  1  0.75985400  0.60654500  0.44454300  1
  C  208  1  0.76446200  0.65491300  0.44835100  1
  C  209  1  0.76621800  0.68473700  0.42379700  1
  C  222  1  0.75692600  0.60903100  0.35713700  1
  C  223  1  0.30120200  0.45680700  0.34464200  1
  C  224  1  0.27709600  0.48482900  0.32267800  1
  C  225  1  0.21924600  0.48084800  0.32440300  1
  C  226  1  0.20542200  0.45002900  0.34740500  1
  C  227  1  0.15041400  0.45155900  0.35966100  1
  C  228  1  0.11074300  0.48384400  0.34842800  1
  C  229  1  0.12503400  0.51121300  0.32333100  1
  C  230  1  0.17939400  0.51041400  0.31146300  1
  C  231  1  0.30790600  0.51933000  0.30808800  1
  C  232  1  0.36350200  0.52733000  0.31690700  1
  C  233  1  0.38881400  0.50230300  0.34066800  1
  C  234  1  0.35733300  0.46562300  0.35370800  1
  C  235  1  0.26325400  0.41625900  0.39038400  1
  C  236  1  0.27459100  0.36937200  0.39484200  1
  C  237  1  0.27392600  0.34637700  0.36773300  1
  C  238  1  0.26231500  0.37780500  0.34491900  1
  C  239  1  0.28190500  0.29924900  0.36201500  1
  C  240  1  0.27754600  0.28306200  0.33256400  1
  C  241  1  0.26461500  0.31296600  0.30845000  1
  C  242  1  0.25751700  0.36081700  0.31517800  1
  C  243  1  0.25983900  0.44580700  0.41563100  1
  C  244  1  0.26864800  0.42784400  0.44485300  1
  C  245  1  0.28047600  0.38021600  0.44816800  1
  C  246  1  0.28354700  0.35087500  0.42340200  1
  C  259  1  0.25741500  0.42571300  0.35761900  1
  C  260  1  0.20829400  0.45513000  0.66159500  1
  C  261  1  0.23173300  0.48341400  0.68362100  1
  C  262  1  0.28973800  0.48021500  0.68198400  1
  C  263  1  0.30421500  0.44967800  0.65891100  1
  C  264  1  0.35881700  0.45271600  0.64623700  1
  C  265  1  0.39752600  0.48607300  0.65711700  1
  C  266  1  0.38268900  0.51321700  0.68222100  1
  C  267  1  0.32869200  0.51103700  0.69446300  1
  C  268  1  0.20030200  0.51762200  0.69814000  1
  C  269  1  0.14475000  0.52519100  0.68908900  1
  C  270  1  0.12005400  0.49991700  0.66526500  1
  C  271  1  0.15216100  0.46351600  0.65232800  1
  C  272  1  0.24693500  0.41460600  0.61602000  1
  C  273  1  0.23641100  0.36753900  0.61184800  1
  C  274  1  0.23778800  0.34488200  0.63905100  1
  C  275  1  0.24882400  0.37671700  0.66170900  1
  C  276  1  0.23073100  0.29771500  0.64495700  1
  C  277  1  0.23538300  0.28188900  0.67446500  1
  C  278  1  0.24760600  0.31220300  0.69846800  1
  C  279  1  0.25390100  0.36006600  0.69152800  1
  C  280  1  0.24929600  0.44384400  0.59057900  1
  C  281  1  0.23969900  0.42554700  0.56148600  1
  C  282  1  0.22881500  0.37769200  0.55854300  1
  C  283  1  0.22718300  0.34858500  0.58345200  1
  C  296  1  0.25273600  0.42455500  0.64874100  1
  C  297  1  0.25789200  0.07358900  0.97191100  1
  C  298  1  0.30734700  0.06854700  0.98921900  1
  C  299  1  0.30410600  0.06907700  0.02068800  1
  C  300  1  0.25138800  0.07445100  0.03486200  1
  C  305  1  0.75084600  0.96038800  0.03469200  1
  C  306  1  0.70347600  0.96575000  0.01583800  1
  C  307  1  0.71014400  0.96460000  0.98453100  1
  C  308  1  0.76416200  0.95831800  0.97197500  1
  C  313  1  0.75658400  0.58019900  0.47127500  1
  C  314  1  0.80608900  0.57441400  0.48839800  1
  C  315  1  0.80310600  0.57483000  0.51986700  1
  C  316  1  0.75071800  0.58100900  0.53428800  1
  C  321  1  0.24551700  0.45056300  0.53428500  1
  C  322  1  0.29999000  0.45774400  0.52252800  1
  C  323  1  0.30796700  0.45891100  0.49131000  1
  C  324  1  0.26163000  0.45305300  0.47182400  1
  C  329  1  0.95492000  0.99173000  0.14747300  1
  C  330  1  0.97127000  0.03612700  0.13767700  1
  C  331  1  0.02749400  0.05055800  0.14106000  1
  C  332  1  0.06685000  0.02066200  0.15458700  1
  C  337  1  0.55850200  0.99243600  0.85962900  1
  C  338  1  0.54199000  0.03707800  0.86892700  1
  C  339  1  0.48563400  0.05126200  0.86573800  1
  C  340  1  0.44610800  0.02082200  0.85290500  1
  C  345  1  0.05841000  0.04105400  0.85638300  1
  C  346  1  0.04209200  0.99648600  0.86588000  1
  C  347  1  0.98574200  0.98221800  0.86288100  1
  C  348  1  0.94604400  0.01243000  0.84995000  1
  C  353  1  0.45430400  0.04205300  0.14990900  1
  C  354  1  0.47052600  0.99746400  0.14045300  1
  C  355  1  0.52689500  0.98327900  0.14351200  1
  C  356  1  0.56654600  0.01358200  0.15641200  1
  C  361  1  0.45208400  0.49317700  0.64539900  1
  C  362  1  0.46883500  0.53782700  0.63621200  1
  C  363  1  0.52525400  0.55177400  0.63953600  1
  C  364  1  0.56458400  0.52105500  0.65226100  1
  C  369  1  0.05608100  0.49025000  0.36013600  1
  C  370  1  0.03940200  0.53446200  0.37014300  1
  C  371  1  0.98320000  0.54883600  0.36656000  1
  C  372  1  0.94412000  0.51903700  0.35271800  1
  C  377  1  0.55665400  0.54319500  0.35652500  1
  C  378  1  0.53985900  0.49911800  0.36664500  1
  C  379  1  0.48339800  0.48523900  0.36357800  1
  C  380  1  0.44420400  0.51533800  0.35007600  1
  C  385  1  0.95200400  0.53974100  0.64908500  1
  C  386  1  0.96894800  0.49532600  0.63964600  1
  C  387  1  0.02550700  0.48174700  0.64277900  1
  C  388  1  0.06462100  0.51249700  0.65569900  1
  C  393  1  0.25826100  0.29316500  0.27911800  1
  C  394  1  0.22095800  0.31047900  0.25731100  1
  C  395  1  0.21494100  0.28744400  0.22979500  1
  C  396  1  0.24657100  0.24715800  0.22338900  1
  C  401  1  0.25406000  0.29269700  0.72788300  1
  C  402  1  0.29085800  0.31053700  0.74975000  1
  C  403  1  0.29709300  0.28763700  0.77730800  1
  C  404  1  0.26616200  0.24697100  0.78369600  1
  C  409  1  0.75221000  0.74145700  0.72719900  1
  C  410  1  0.72761000  0.71981900  0.75221800  1
  C  411  1  0.72751000  0.74224200  0.78012700  1
  C  412  1  0.75272000  0.78624700  0.78367600  1
  C  417  1  0.75974600  0.74178700  0.27879000  1
  C  418  1  0.78332400  0.71990900  0.25358300  1
  C  419  1  0.78319000  0.74240400  0.22569900  1
  C  420  1  0.75872700  0.78672900  0.22234600  1
  C  849  1  0.30545300  0.53249000  0.16010700  1
  C  850  1  0.28988900  0.50307700  0.18352600  1
  C  851  1  0.23182000  0.50028900  0.18464600  1
  C  852  1  0.20939300  0.52735100  0.16165300  1
  C  853  1  0.15394100  0.51804800  0.15160400  1
  C  854  1  0.12145300  0.48209500  0.16481200  1
  C  855  1  0.14488500  0.45835200  0.18963900  1
  C  856  1  0.19979100  0.46675100  0.19943500  1
  C  857  1  0.32852300  0.47351400  0.19750900  1
  C  858  1  0.38331700  0.47119400  0.18624600  1
  C  859  1  0.39941800  0.49741800  0.16095700  1
  C  860  1  0.36100900  0.52977700  0.14866300  1
  C  861  1  0.25193900  0.56440000  0.11545200  1
  C  862  1  0.24715600  0.61160400  0.10947400  1
  C  863  1  0.24708500  0.63622700  0.13592900  1
  C  864  1  0.25134200  0.60584000  0.16004300  1
  C  865  1  0.24394800  0.68411800  0.13982600  1
  C  866  1  0.24409100  0.70212400  0.16885000  1
  C  867  1  0.24684200  0.67328600  0.19441300  1
  C  868  1  0.25174300  0.62474700  0.18948300  1
  C  869  1  0.25328100  0.53306400  0.09103100  1
  C  870  1  0.24859000  0.54966100  0.06117400  1
  C  871  1  0.24382800  0.59782500  0.05641200  1
  C  872  1  0.24305900  0.62887900  0.08029400  1
  C  885  1  0.25460900  0.55700500  0.14860300  1
  C  886  1  0.20703200  0.53223600  0.84635900  1
  C  887  1  0.22303500  0.50262900  0.82309500  1
  C  888  1  0.28110100  0.49942500  0.82262400  1
  C  889  1  0.30321000  0.52680000  0.84552300  1
  C  890  1  0.35869100  0.51783400  0.85566800  1
  C  891  1  0.39144200  0.48190300  0.84261700  1
  C  892  1  0.36834200  0.45791900  0.81779900  1
  C  893  1  0.31341400  0.46598300  0.80791800  1
  C  894  1  0.18470000  0.47268900  0.80920400  1
  C  895  1  0.12978600  0.47028700  0.82028300  1
  C  896  1  0.11332400  0.49658200  0.84546500  1
  C  897  1  0.15148800  0.52909400  0.85779500  1
  C  898  1  0.25971400  0.56381000  0.89141500  1
  C  899  1  0.26440600  0.61099100  0.89750600  1
  C  900  1  0.26525700  0.63570200  0.87108500  1
  C  901  1  0.26140600  0.60540500  0.84690400  1
  C  902  1  0.26852200  0.68360400  0.86727000  1
  C  903  1  0.26872000  0.70172800  0.83827300  1
  C  904  1  0.26612000  0.67300100  0.81265100  1
  C  905  1  0.26127200  0.62443300  0.81749800  1
  C  906  1  0.25774500  0.53235800  0.91576000  1
  C  907  1  0.26087400  0.54890800  0.94567500  1
  C  908  1  0.26572300  0.59702500  0.95058000  1
  C  909  1  0.26755700  0.62815400  0.92675100  1
  C  922  1  0.25776700  0.55653500  0.85824400  1
  C  923  1  0.80275700  0.40197000  0.84457600  1
  C  924  1  0.77936200  0.42942100  0.82208800  1
  C  925  1  0.72133500  0.42650700  0.82379900  1
  C  926  1  0.70680800  0.39708600  0.84744900  1
  C  927  1  0.65186800  0.39999000  0.85969600  1
  C  928  1  0.61307200  0.43267200  0.84809900  1
  C  929  1  0.62815400  0.45913400  0.82273600  1
  C  930  1  0.68233800  0.45670500  0.81071700  1
  C  931  1  0.81084600  0.46306500  0.80705300  1
  C  932  1  0.86636000  0.47101400  0.81603300  1
  C  933  1  0.89089000  0.44679500  0.84035700  1
  C  934  1  0.85882200  0.41082700  0.85382100  1
  C  935  1  0.76349200  0.36480400  0.89120300  1
  C  936  1  0.77267500  0.31793700  0.89682100  1
  C  937  1  0.77094100  0.29340300  0.87034800  1
  C  938  1  0.76124900  0.32356400  0.84656000  1
  C  939  1  0.77664900  0.24572000  0.86621300  1
  C  940  1  0.77103200  0.22750900  0.83740200  1
  C  941  1  0.75921400  0.25585800  0.81234300  1
  C  942  1  0.75608600  0.30449600  0.81728800  1
  C  943  1  0.76131800  0.39576400  0.91580400  1
  C  944  1  0.76955900  0.37924000  0.94547100  1
  C  945  1  0.77892200  0.33143300  0.94983600  1
  C  946  1  0.78048300  0.30070000  0.92579100  1
  C  959  1  0.75810800  0.37231800  0.85815400  1
  C  960  1  0.70986600  0.40323400  0.16183000  1
  C  961  1  0.73337000  0.43102200  0.18409500  1
  C  962  1  0.79133800  0.42783300  0.18248400  1
  C  963  1  0.80589100  0.39782000  0.15917200  1
  C  964  1  0.86109600  0.40001400  0.14721700  1
  C  965  1  0.90017600  0.43237900  0.15891400  1
  C  966  1  0.88511200  0.45912900  0.18415700  1
  C  967  1  0.83064600  0.45742500  0.19587900  1
  C  968  1  0.70193600  0.46465700  0.19915800  1
  C  969  1  0.64640000  0.47253800  0.19018300  1
  C  970  1  0.62173400  0.44804800  0.16600500  1
  C  971  1  0.65372400  0.41191600  0.15266800  1
  C  972  1  0.74934800  0.36619900  0.11526700  1
  C  973  1  0.73993400  0.31942500  0.10943000  1
  C  974  1  0.74099600  0.29467700  0.13583900  1
  C  975  1  0.75078600  0.32457700  0.15975900  1
  C  976  1  0.73482700  0.24700400  0.13981400  1
  C  977  1  0.74013800  0.22853500  0.16857800  1
  C  978  1  0.75220400  0.25659200  0.19374900  1
  C  979  1  0.75572200  0.30525300  0.18896800  1
  C  980  1  0.75214200  0.39740300  0.09081800  1
  C  981  1  0.74480500  0.38109700  0.06105500  1
  C  982  1  0.73514800  0.33340000  0.05641100  1
  C  983  1  0.73260200  0.30248400  0.08034200  1
  C  996  1  0.75443400  0.37339300  0.14834500  1
  C  997  1  0.80363600  0.03106950  0.65965000  1
  C  998  1  0.78745200  0.00096048  0.68258200  1
  C  999  1  0.72931500  0.99857300  0.68327700  1
  C  1000  1  0.70736200  0.02708850  0.66090100  1
  C  1001  1  0.65214400  0.01813850  0.65032200  1
  C  1002  1  0.61914600  0.98189800  0.66285700  1
  C  1003  1  0.64184800  0.95732300  0.68753400  1
  C  1004  1  0.69676000  0.96487200  0.69756800  1
  C  1005  1  0.82531800  0.96995500  0.69582100  1
  C  1006  1  0.88017800  0.96756200  0.68467800  1
  C  1007  1  0.89690200  0.99471600  0.65992200  1
  C  1008  1  0.85914400  0.02805650  0.64818200  1
  C  1009  1  0.75123900  0.06634850  0.61565900  1
  C  1010  1  0.74839000  0.11401000  0.61087000  1
  C  1011  1  0.74908600  0.13702900  0.63795000  1
  C  1012  1  0.75143800  0.10488100  0.66113500  1
  C  1013  1  0.74838000  0.18468800  0.64335600  1
  C  1014  1  0.75004300  0.20063000  0.67292900  1
  C  1015  1  0.75176500  0.16986200  0.69753700  1
  C  1016  1  0.75234600  0.12157700  0.69105700  1
  C  1017  1  0.75197900  0.03641450  0.59053300  1
  C  1018  1  0.74864800  0.05486350  0.56110900  1
  C  1019  1  0.74573300  0.10335200  0.55747300  1
  C  1020  1  0.74563400  0.13304100  0.58210500  1
  C  1033  1  0.75331300  0.05672650  0.64854200  1
  C  1034  1  0.70600800  0.03186150  0.34608700  1
  C  1035  1  0.72140600  0.00153849  0.32313400  1
  C  1036  1  0.77944200  0.99850100  0.32209800  1
  C  1037  1  0.80197500  0.02626850  0.34470900  1
  C  1038  1  0.85733000  0.01702250  0.35493400  1
  C  1039  1  0.88957800  0.98041000  0.34230100  1
  C  1040  1  0.86604200  0.95600100  0.31776700  1
  C  1041  1  0.81120800  0.96426900  0.30784900  1
  C  1042  1  0.68255800  0.97177000  0.30951300  1
  C  1043  1  0.62764800  0.97031700  0.32066800  1
  C  1044  1  0.61167800  0.99762600  0.34549300  1
  C  1045  1  0.65032800  0.03011250  0.35739600  1
  C  1046  1  0.75926600  0.06609050  0.39003600  1
  C  1047  1  0.76340600  0.11365900  0.39495900  1
  C  1048  1  0.76334400  0.13685300  0.36792700  1
  C  1049  1  0.75991400  0.10489800  0.34466600  1
  C  1050  1  0.76513300  0.18452300  0.36261800  1
  C  1051  1  0.76340800  0.20065400  0.33308300  1
  C  1052  1  0.76048400  0.17005900  0.30841500  1
  C  1053  1  0.75891400  0.12175900  0.31478700  1
  C  1054  1  0.75730000  0.03599450  0.41505900  1
  C  1055  1  0.75985400  0.05424350  0.44454300  1
  C  1056  1  0.76446200  0.10261100  0.44835100  1
  C  1057  1  0.76621800  0.13243500  0.42379700  1
  C  1070  1  0.75692600  0.05672950  0.35713700  1
  C  1071  1  0.30120200  0.90450500  0.34464200  1
  C  1072  1  0.27709600  0.93252700  0.32267800  1
  C  1073  1  0.21924600  0.92854600  0.32440300  1
  C  1074  1  0.20542200  0.89772700  0.34740500  1
  C  1075  1  0.15041400  0.89925700  0.35966100  1
  C  1076  1  0.11074300  0.93154200  0.34842800  1
  C  1077  1  0.12503400  0.95891100  0.32333100  1
  C  1078  1  0.17939400  0.95811200  0.31146300  1
  C  1079  1  0.30790600  0.96702800  0.30808800  1
  C  1080  1  0.36350200  0.97502800  0.31690700  1
  C  1081  1  0.38881400  0.95000100  0.34066800  1
  C  1082  1  0.35733300  0.91332100  0.35370800  1
  C  1083  1  0.26325400  0.86395700  0.39038400  1
  C  1084  1  0.27459100  0.81707000  0.39484200  1
  C  1085  1  0.27392600  0.79407500  0.36773300  1
  C  1086  1  0.26231500  0.82550300  0.34491900  1
  C  1087  1  0.28190500  0.74694700  0.36201500  1
  C  1088  1  0.27754600  0.73076000  0.33256400  1
  C  1089  1  0.26461500  0.76066400  0.30845000  1
  C  1090  1  0.25751700  0.80851500  0.31517800  1
  C  1091  1  0.25983900  0.89350500  0.41563100  1
  C  1092  1  0.26864800  0.87554200  0.44485300  1
  C  1093  1  0.28047600  0.82791400  0.44816800  1
  C  1094  1  0.28354700  0.79857300  0.42340200  1
  C  1107  1  0.25741500  0.87341100  0.35761900  1
  C  1108  1  0.20829400  0.90282800  0.66159500  1
  C  1109  1  0.23173300  0.93111200  0.68362100  1
  C  1110  1  0.28973800  0.92791300  0.68198400  1
  C  1111  1  0.30421500  0.89737600  0.65891100  1
  C  1112  1  0.35881700  0.90041400  0.64623700  1
  C  1113  1  0.39752600  0.93377100  0.65711700  1
  C  1114  1  0.38268900  0.96091500  0.68222100  1
  C  1115  1  0.32869200  0.95873500  0.69446300  1
  C  1116  1  0.20030200  0.96532000  0.69814000  1
  C  1117  1  0.14475000  0.97288900  0.68908900  1
  C  1118  1  0.12005400  0.94761500  0.66526500  1
  C  1119  1  0.15216100  0.91121400  0.65232800  1
  C  1120  1  0.24693500  0.86230400  0.61602000  1
  C  1121  1  0.23641100  0.81523700  0.61184800  1
  C  1122  1  0.23778800  0.79258000  0.63905100  1
  C  1123  1  0.24882400  0.82441500  0.66170900  1
  C  1124  1  0.23073100  0.74541300  0.64495700  1
  C  1125  1  0.23538300  0.72958700  0.67446500  1
  C  1126  1  0.24760600  0.75990100  0.69846800  1
  C  1127  1  0.25390100  0.80776400  0.69152800  1
  C  1128  1  0.24929600  0.89154200  0.59057900  1
  C  1129  1  0.23969900  0.87324500  0.56148600  1
  C  1130  1  0.22881500  0.82539000  0.55854300  1
  C  1131  1  0.22718300  0.79628300  0.58345200  1
  C  1144  1  0.25273600  0.87225300  0.64874100  1
  C  1145  1  0.25789200  0.52128700  0.97191100  1
  C  1146  1  0.30734700  0.51624500  0.98921900  1
  C  1147  1  0.30410600  0.51677500  0.02068800  1
  C  1148  1  0.25138800  0.52214900  0.03486200  1
  C  1153  1  0.75084600  0.40808600  0.03469200  1
  C  1154  1  0.70347600  0.41344800  0.01583800  1
  C  1155  1  0.71014400  0.41229800  0.98453100  1
  C  1156  1  0.76416200  0.40601600  0.97197500  1
  C  1161  1  0.75658400  0.02789750  0.47127500  1
  C  1162  1  0.80608900  0.02211250  0.48839800  1
  C  1163  1  0.80310600  0.02252850  0.51986700  1
  C  1164  1  0.75071800  0.02870750  0.53428800  1
  C  1169  1  0.24551700  0.89826100  0.53428500  1
  C  1170  1  0.29999000  0.90544200  0.52252800  1
  C  1171  1  0.30796700  0.90660900  0.49131000  1
  C  1172  1  0.26163000  0.90075100  0.47182400  1
  C  1177  1  0.95492000  0.43942800  0.14747300  1
  C  1178  1  0.97127000  0.48382500  0.13767700  1
  C  1179  1  0.02749400  0.49825600  0.14106000  1
  C  1180  1  0.06685000  0.46836000  0.15458700  1
  C  1185  1  0.55850200  0.44013400  0.85962900  1
  C  1186  1  0.54199000  0.48477600  0.86892700  1
  C  1187  1  0.48563400  0.49896000  0.86573800  1
  C  1188  1  0.44610800  0.46852000  0.85290500  1
  C  1193  1  0.05841000  0.48875200  0.85638300  1
  C  1194  1  0.04209200  0.44418400  0.86588000  1
  C  1195  1  0.98574200  0.42991600  0.86288100  1
  C  1196  1  0.94604400  0.46012800  0.84995000  1
  C  1201  1  0.45430400  0.48975100  0.14990900  1
  C  1202  1  0.47052600  0.44516200  0.14045300  1
  C  1203  1  0.52689500  0.43097700  0.14351200  1
  C  1204  1  0.56654600  0.46128000  0.15641200  1
  C  1209  1  0.45208400  0.94087500  0.64539900  1
  C  1210  1  0.46883500  0.98552500  0.63621200  1
  C  1211  1  0.52525400  0.99947200  0.63953600  1
  C  1212  1  0.56458400  0.96875300  0.65226100  1
  C  1217  1  0.05608100  0.93794800  0.36013600  1
  C  1218  1  0.03940200  0.98216000  0.37014300  1
  C  1219  1  0.98320000  0.99653400  0.36656000  1
  C  1220  1  0.94412000  0.96673500  0.35271800  1
  C  1225  1  0.55665400  0.99089300  0.35652500  1
  C  1226  1  0.53985900  0.94681600  0.36664500  1
  C  1227  1  0.48339800  0.93293700  0.36357800  1
  C  1228  1  0.44420400  0.96303600  0.35007600  1
  C  1233  1  0.95200400  0.98743900  0.64908500  1
  C  1234  1  0.96894800  0.94302400  0.63964600  1
  C  1235  1  0.02550700  0.92944500  0.64277900  1
  C  1236  1  0.06462100  0.96019500  0.65569900  1
  C  1241  1  0.25826100  0.74086300  0.27911800  1
  C  1242  1  0.22095800  0.75817700  0.25731100  1
  C  1243  1  0.21494100  0.73514200  0.22979500  1
  C  1244  1  0.24657100  0.69485600  0.22338900  1
  C  1249  1  0.25406000  0.74039500  0.72788300  1
  C  1250  1  0.29085800  0.75823500  0.74975000  1
  C  1251  1  0.29709300  0.73533500  0.77730800  1
  C  1252  1  0.26616200  0.69466900  0.78369600  1
  C  1257  1  0.75221000  0.18915500  0.72719900  1
  C  1258  1  0.72761000  0.16751700  0.75221800  1
  C  1259  1  0.72751000  0.18994000  0.78012700  1
  C  1260  1  0.75272000  0.23394500  0.78367600  1
  C  1265  1  0.75974600  0.18948500  0.27879000  1
  C  1266  1  0.78332400  0.16760700  0.25358300  1
  C  1267  1  0.78319000  0.19010200  0.22569900  1
  C  1268  1  0.75872700  0.23442700  0.22234600  1
  H  25  1  0.24148200  0.16338400  0.03522600  1
  H  26  1  0.23971500  0.21569000  0.07620000  1
  H  27  1  0.24182500  0.25825200  0.12196800  1
  H  28  1  0.24313400  0.28950400  0.17091500  1
  H  29  1  0.25439200  0.15521400  0.20734200  1
  H  30  1  0.25723800  0.05086200  0.09504100  1
  H  31  1  0.13919300  0.08759300  0.13331300  1
  H  32  1  0.12325200  0.98498000  0.20028200  1
  H  33  1  0.21709400  0.99813200  0.21532400  1
  H  34  1  0.37195700  0.10103200  0.13030800  1
  H  35  1  0.31640100  0.00335900  0.21385700  1
  H  36  1  0.41049500  0.00033600  0.19575700  1
  H  62  1  0.26773300  0.16243300  0.97181700  1
  H  63  1  0.27096200  0.21493800  0.93092600  1
  H  64  1  0.27029300  0.25767200  0.88517200  1
  H  65  1  0.26954400  0.28911600  0.83628000  1
  H  66  1  0.25870500  0.15496300  0.79960200  1
  H  67  1  0.25397000  0.05016700  0.91166300  1
  H  68  1  0.37331100  0.08763100  0.87389000  1
  H  69  1  0.39030000  0.98469800  0.80719000  1
  H  70  1  0.29649400  0.99751900  0.79182900  1
  H  71  1  0.14030500  0.10036000  0.87610400  1
  H  72  1  0.19722000  0.00222700  0.79312200  1
  H  73  1  0.10292900  0.99911400  0.81084200  1
  H  99  1  0.78327400  0.87031100  0.97088800  1
  H  100  1  0.78642600  0.81866400  0.92965300  1
  H  101  1  0.78439600  0.77646700  0.88377000  1
  H  102  1  0.77632400  0.74503500  0.83505600  1
  H  103  1  0.74821600  0.87837000  0.79972900  1
  H  104  1  0.75374600  0.98223900  0.91207400  1
  H  105  1  0.64171800  0.93315800  0.87809800  1
  H  106  1  0.60071200  0.03482400  0.81367800  1
  H  107  1  0.69382600  0.03156600  0.79429700  1
  H  108  1  0.87437700  0.94561400  0.87181100  1
  H  109  1  0.79297700  0.03632100  0.79136000  1
  H  110  1  0.88769000  0.04896500  0.80519500  1
  H  136  1  0.73099200  0.87261200  0.03525800  1
  H  137  1  0.72648500  0.82051300  0.07631800  1
  H  138  1  0.72702700  0.77793700  0.12216700  1
  H  139  1  0.73453200  0.74607800  0.17078800  1
  H  140  1  0.76383600  0.87895500  0.20658500  1
  H  141  1  0.75989200  0.98381000  0.09471500  1
  H  142  1  0.87133500  0.93286500  0.12896900  1
  H  143  1  0.91271300  0.03469900  0.19320700  1
  H  144  1  0.81917800  0.03268200  0.21206900  1
  H  145  1  0.63808200  0.94647500  0.13479400  1
  H  146  1  0.71991800  0.03818300  0.21466000  1
  H  147  1  0.62512600  0.05061100  0.20093000  1
  H  173  1  0.74430200  0.67012100  0.53659700  1
  H  174  1  0.74376100  0.72014300  0.57886900  1
  H  175  1  0.74677800  0.76009800  0.62616800  1
  H  176  1  0.74873100  0.78779700  0.67619900  1
  H  177  1  0.75471900  0.65052600  0.70808200  1
  H  178  1  0.75460800  0.55392000  0.59372000  1
  H  179  1  0.63778800  0.58838500  0.63222800  1
  H  180  1  0.61980900  0.48377600  0.69775300  1
  H  181  1  0.71358800  0.49571200  0.71329500  1
  H  182  1  0.87059000  0.60006000  0.63024900  1
  H  183  1  0.81269200  0.49929300  0.71175800  1
  H  184  1  0.90685000  0.49595000  0.69379300  1
  H  210  1  0.76610400  0.66915000  0.46928700  1
  H  211  1  0.76908600  0.71947100  0.42713800  1
  H  212  1  0.76743500  0.75980600  0.37985500  1
  H  213  1  0.76537800  0.78781400  0.32987700  1
  H  214  1  0.75566800  0.65084300  0.29772700  1
  H  215  1  0.75360200  0.55358900  0.41175800  1
  H  216  1  0.87204300  0.58703900  0.37303800  1
  H  217  1  0.88747200  0.48219100  0.30746700  1
  H  218  1  0.79382000  0.49532600  0.29216700  1
  H  219  1  0.63940800  0.60221200  0.37537600  1
  H  220  1  0.69453400  0.50097400  0.29351600  1
  H  221  1  0.60025100  0.49935500  0.31144300  1
  H  247  1  0.28575600  0.36598300  0.46893400  1
  H  248  1  0.29122000  0.31656500  0.42642600  1
  H  249  1  0.29007600  0.27661700  0.37894100  1
  H  250  1  0.28222800  0.24841700  0.32918100  1
  H  251  1  0.24921900  0.38371500  0.29841900  1
  H  252  1  0.25058900  0.47989100  0.41269400  1
  H  253  1  0.14069500  0.43158800  0.37775300  1
  H  254  1  0.09695300  0.53433100  0.31453900  1
  H  255  1  0.19026900  0.53368000  0.29534600  1
  H  256  1  0.37328900  0.44741600  0.37129800  1
  H  257  1  0.28951700  0.54074000  0.29283300  1
  H  258  1  0.38424700  0.55361000  0.30640000  1
  H  284  1  0.22348000  0.36299700  0.53792200  1
  H  285  1  0.22006200  0.31415200  0.58064200  1
  H  286  1  0.22293600  0.27480900  0.62813800  1
  H  287  1  0.23126300  0.24722800  0.67798800  1
  H  288  1  0.26170500  0.38322300  0.70820700  1
  H  289  1  0.25779400  0.47810000  0.59330200  1
  H  290  1  0.36883700  0.43295800  0.62809100  1
  H  291  1  0.41010500  0.53699000  0.69086500  1
  H  292  1  0.31725800  0.53421400  0.71052700  1
  H  293  1  0.13651800  0.44513200  0.63473200  1
  H  294  1  0.21822500  0.53926300  0.71341500  1
  H  295  1  0.12346100  0.55123300  0.69954500  1
  H  302  1  0.34050100  0.07277700  0.03271900  1
  H  303  1  0.34607500  0.07196600  0.97940900  1
  H  310  1  0.67503200  0.96124600  0.97143000  1
  H  311  1  0.66368400  0.96301200  0.02446200  1
  H  318  1  0.83971200  0.57756500  0.53182200  1
  H  319  1  0.84479400  0.57693100  0.47845100  1
  H  326  1  0.34813500  0.45719600  0.48309500  1
  H  327  1  0.33460200  0.45535400  0.53607900  1
  H  334  1  0.03758300  0.08407400  0.13653400  1
  H  335  1  0.94156600  0.05981100  0.13145600  1
  H  342  1  0.47550400  0.08490500  0.86983000  1
  H  343  1  0.57169700  0.06106400  0.87463200  1
  H  350  1  0.97566100  0.94867600  0.86733200  1
  H  351  1  0.07186000  0.97270300  0.87185100  1
  H  358  1  0.53702400  0.94973600  0.13910600  1
  H  359  1  0.44076600  0.97364300  0.13452600  1
  H  366  1  0.53556200  0.58543700  0.63564700  1
  H  367  1  0.43927200  0.56200600  0.63063300  1
  H  374  1  0.97299800  0.58229000  0.37119300  1
  H  375  1  0.06894300  0.55818000  0.37653300  1
  H  382  1  0.47292800  0.45195100  0.36851000  1
  H  383  1  0.56927400  0.47531400  0.37306000  1
  H  390  1  0.03614300  0.44830800  0.63839000  1
  H  391  1  0.93959400  0.47120200  0.63366800  1
  H  398  1  0.18706200  0.30040500  0.21455300  1
  H  399  1  0.19686500  0.33895200  0.26145700  1
  H  406  1  0.32467000  0.30094800  0.79257500  1
  H  407  1  0.31448100  0.33927500  0.74560600  1
  H  414  1  0.70865400  0.72606300  0.79778200  1
  H  415  1  0.70835400  0.68846700  0.75026800  1
  H  422  1  0.80141400  0.72604600  0.20792800  1
  H  423  1  0.80204800  0.68831500  0.25537300  1
  H  873  1  0.24148200  0.61108200  0.03522600  1
  H  874  1  0.23971500  0.66338800  0.07620000  1
  H  875  1  0.24182500  0.70595000  0.12196800  1
  H  876  1  0.24313400  0.73720200  0.17091500  1
  H  877  1  0.25439200  0.60291200  0.20734200  1
  H  878  1  0.25723800  0.49856000  0.09504100  1
  H  879  1  0.13919300  0.53529100  0.13331300  1
  H  880  1  0.12325200  0.43267800  0.20028200  1
  H  881  1  0.21709400  0.44583000  0.21532400  1
  H  882  1  0.37195700  0.54873000  0.13030800  1
  H  883  1  0.31640100  0.45105700  0.21385700  1
  H  884  1  0.41049500  0.44803400  0.19575700  1
  H  910  1  0.26773300  0.61013100  0.97181700  1
  H  911  1  0.27096200  0.66263600  0.93092600  1
  H  912  1  0.27029300  0.70537000  0.88517200  1
  H  913  1  0.26954400  0.73681400  0.83628000  1
  H  914  1  0.25870500  0.60266100  0.79960200  1
  H  915  1  0.25397000  0.49786500  0.91166300  1
  H  916  1  0.37331100  0.53532900  0.87389000  1
  H  917  1  0.39030000  0.43239600  0.80719000  1
  H  918  1  0.29649400  0.44521700  0.79182900  1
  H  919  1  0.14030500  0.54805800  0.87610400  1
  H  920  1  0.19722000  0.44992500  0.79312200  1
  H  921  1  0.10292900  0.44681200  0.81084200  1
  H  947  1  0.78327400  0.31800900  0.97088800  1
  H  948  1  0.78642600  0.26636200  0.92965300  1
  H  949  1  0.78439600  0.22416500  0.88377000  1
  H  950  1  0.77632400  0.19273300  0.83505600  1
  H  951  1  0.74821600  0.32606800  0.79972900  1
  H  952  1  0.75374600  0.42993700  0.91207400  1
  H  953  1  0.64171800  0.38085600  0.87809800  1
  H  954  1  0.60071200  0.48252200  0.81367800  1
  H  955  1  0.69382600  0.47926400  0.79429700  1
  H  956  1  0.87437700  0.39331200  0.87181100  1
  H  957  1  0.79297700  0.48401900  0.79136000  1
  H  958  1  0.88769000  0.49666300  0.80519500  1
  H  984  1  0.73099200  0.32031000  0.03525800  1
  H  985  1  0.72648500  0.26821100  0.07631800  1
  H  986  1  0.72702700  0.22563500  0.12216700  1
  H  987  1  0.73453200  0.19377600  0.17078800  1
  H  988  1  0.76383600  0.32665300  0.20658500  1
  H  989  1  0.75989200  0.43150800  0.09471500  1
  H  990  1  0.87133500  0.38056300  0.12896900  1
  H  991  1  0.91271300  0.48239700  0.19320700  1
  H  992  1  0.81917800  0.48038000  0.21206900  1
  H  993  1  0.63808200  0.39417300  0.13479400  1
  H  994  1  0.71991800  0.48588100  0.21466000  1
  H  995  1  0.62512600  0.49830900  0.20093000  1
  H  1021  1  0.74430200  0.11781900  0.53659700  1
  H  1022  1  0.74376100  0.16784100  0.57886900  1
  H  1023  1  0.74677800  0.20779600  0.62616800  1
  H  1024  1  0.74873100  0.23549500  0.67619900  1
  H  1025  1  0.75471900  0.09822450  0.70808200  1
  H  1026  1  0.75460800  0.00161849  0.59372000  1
  H  1027  1  0.63778800  0.03608350  0.63222800  1
  H  1028  1  0.61980900  0.93147400  0.69775300  1
  H  1029  1  0.71358800  0.94341000  0.71329500  1
  H  1030  1  0.87059000  0.04775850  0.63024900  1
  H  1031  1  0.81269200  0.94699100  0.71175800  1
  H  1032  1  0.90685000  0.94364800  0.69379300  1
  H  1058  1  0.76610400  0.11684800  0.46928700  1
  H  1059  1  0.76908600  0.16716900  0.42713800  1
  H  1060  1  0.76743500  0.20750400  0.37985500  1
  H  1061  1  0.76537800  0.23551200  0.32987700  1
  H  1062  1  0.75566800  0.09854150  0.29772700  1
  H  1063  1  0.75360200  0.00128749  0.41175800  1
  H  1064  1  0.87204300  0.03473750  0.37303800  1
  H  1065  1  0.88747200  0.92988900  0.30746700  1
  H  1066  1  0.79382000  0.94302400  0.29216700  1
  H  1067  1  0.63940800  0.04991050  0.37537600  1
  H  1068  1  0.69453400  0.94867200  0.29351600  1
  H  1069  1  0.60025100  0.94705300  0.31144300  1
  H  1095  1  0.28575600  0.81368100  0.46893400  1
  H  1096  1  0.29122000  0.76426300  0.42642600  1
  H  1097  1  0.29007600  0.72431500  0.37894100  1
  H  1098  1  0.28222800  0.69611500  0.32918100  1
  H  1099  1  0.24921900  0.83141300  0.29841900  1
  H  1100  1  0.25058900  0.92758900  0.41269400  1
  H  1101  1  0.14069500  0.87928600  0.37775300  1
  H  1102  1  0.09695300  0.98202900  0.31453900  1
  H  1103  1  0.19026900  0.98137800  0.29534600  1
  H  1104  1  0.37328900  0.89511400  0.37129800  1
  H  1105  1  0.28951700  0.98843800  0.29283300  1
  H  1106  1  0.38424700  0.00130849  0.30640000  1
  H  1132  1  0.22348000  0.81069500  0.53792200  1
  H  1133  1  0.22006200  0.76185000  0.58064200  1
  H  1134  1  0.22293600  0.72250700  0.62813800  1
  H  1135  1  0.23126300  0.69492600  0.67798800  1
  H  1136  1  0.26170500  0.83092100  0.70820700  1
  H  1137  1  0.25779400  0.92579800  0.59330200  1
  H  1138  1  0.36883700  0.88065600  0.62809100  1
  H  1139  1  0.41010500  0.98468800  0.69086500  1
  H  1140  1  0.31725800  0.98191200  0.71052700  1
  H  1141  1  0.13651800  0.89283000  0.63473200  1
  H  1142  1  0.21822500  0.98696100  0.71341500  1
  H  1143  1  0.12346100  0.99893100  0.69954500  1
  H  1150  1  0.34050100  0.52047500  0.03271900  1
  H  1151  1  0.34607500  0.51966400  0.97940900  1
  H  1158  1  0.67503200  0.40894400  0.97143000  1
  H  1159  1  0.66368400  0.41071000  0.02446200  1
  H  1166  1  0.83971200  0.02526350  0.53182200  1
  H  1167  1  0.84479400  0.02462950  0.47845100  1
  H  1174  1  0.34813500  0.90489400  0.48309500  1
  H  1175  1  0.33460200  0.90305200  0.53607900  1
  H  1182  1  0.03758300  0.53177200  0.13653400  1
  H  1183  1  0.94156600  0.50750900  0.13145600  1
  H  1190  1  0.47550400  0.53260300  0.86983000  1
  H  1191  1  0.57169700  0.50876200  0.87463200  1
  H  1198  1  0.97566100  0.39637400  0.86733200  1
  H  1199  1  0.07186000  0.42040100  0.87185100  1
  H  1206  1  0.53702400  0.39743400  0.13910600  1
  H  1207  1  0.44076600  0.42134100  0.13452600  1
  H  1214  1  0.53556200  0.03313550  0.63564700  1
  H  1215  1  0.43927200  0.00970449  0.63063300  1
  H  1222  1  0.97299800  0.02998850  0.37119300  1
  H  1223  1  0.06894300  0.00587849  0.37653300  1
  H  1230  1  0.47292800  0.89964900  0.36851000  1
  H  1231  1  0.56927400  0.92301200  0.37306000  1
  H  1238  1  0.03614300  0.89600600  0.63839000  1
  H  1239  1  0.93959400  0.91890000  0.63366800  1
  H  1246  1  0.18706200  0.74810300  0.21455300  1
  H  1247  1  0.19686500  0.78665000  0.26145700  1
  H  1254  1  0.32467000  0.74864600  0.79257500  1
  H  1255  1  0.31448100  0.78697300  0.74560600  1
  H  1262  1  0.70865400  0.17376100  0.79778200  1
  H  1263  1  0.70835400  0.13616500  0.75026800  1
  H  1270  1  0.80141400  0.17374400  0.20792800  1
  H  1271  1  0.80204800  0.13601300  0.25537300  1
  N  301  1  0.20576500  0.07760800  0.01654600  1
  N  304  1  0.20877800  0.07727100  0.98732700  1
  N  309  1  0.80756200  0.95517100  0.99180800  1
  N  312  1  0.80149000  0.95600700  0.02088000  1
  N  317  1  0.70513400  0.58530000  0.51603000  1
  N  320  1  0.70776800  0.58496900  0.48681400  1
  N  325  1  0.21052900  0.44742900  0.48501600  1
  N  328  1  0.20309800  0.44638900  0.51398800  1
  N  333  1  0.04746700  0.97791700  0.16200300  1
  N  336  1  0.99538200  0.96438300  0.15922100  1
  N  341  1  0.46549000  0.97789600  0.84597000  1
  N  344  1  0.51771500  0.96465800  0.84860600  1
  N  349  1  0.96538100  0.05522300  0.84263500  1
  N  352  1  0.01759500  0.06858200  0.84513000  1
  N  357  1  0.54713200  0.05637900  0.16368500  1
  N  360  1  0.49491500  0.06973000  0.16117600  1
  N  365  1  0.54493200  0.47809300  0.65892600  1
  N  368  1  0.49264800  0.46504100  0.65623000  1
  N  373  1  0.96377400  0.47639500  0.34524300  1
  N  376  1  0.01585400  0.46293700  0.34814200  1
  N  381  1  0.46422200  0.55770100  0.34221400  1
  N  384  1  0.51654100  0.57075600  0.34467100  1
  N  389  1  0.04453800  0.55512800  0.66286900  1
  N  392  1  0.99213000  0.56792200  0.66030900  1
  N  397  1  0.28102500  0.23227000  0.24565900  1
  N  400  1  0.28589200  0.25354900  0.27145900  1
  N  405  1  0.23210500  0.23165200  0.76138300  1
  N  408  1  0.22704500  0.25280400  0.73555500  1
  N  413  1  0.77484600  0.80511300  0.75846100  1
  N  416  1  0.77412000  0.78430200  0.73237900  1
  N  421  1  0.73758300  0.80579400  0.24773800  1
  N  424  1  0.73852600  0.78491500  0.27380000  1
  N  1149  1  0.20576500  0.52530600  0.01654600  1
  N  1152  1  0.20877800  0.52496900  0.98732700  1
  N  1157  1  0.80756200  0.40286900  0.99180800  1
  N  1160  1  0.80149000  0.40370500  0.02088000  1
  N  1165  1  0.70513400  0.03299850  0.51603000  1
  N  1168  1  0.70776800  0.03266750  0.48681400  1
  N  1173  1  0.21052900  0.89512700  0.48501600  1
  N  1176  1  0.20309800  0.89408700  0.51398800  1
  N  1181  1  0.04746700  0.42561500  0.16200300  1
  N  1184  1  0.99538200  0.41208100  0.15922100  1
  N  1189  1  0.46549000  0.42559400  0.84597000  1
  N  1192  1  0.51771500  0.41235600  0.84860600  1
  N  1197  1  0.96538100  0.50292100  0.84263500  1
  N  1200  1  0.01759500  0.51628000  0.84513000  1
  N  1205  1  0.54713200  0.50407700  0.16368500  1
  N  1208  1  0.49491500  0.51742800  0.16117600  1
  N  1213  1  0.54493200  0.92579100  0.65892600  1
  N  1216  1  0.49264800  0.91273900  0.65623000  1
  N  1221  1  0.96377400  0.92409300  0.34524300  1
  N  1224  1  0.01585400  0.91063500  0.34814200  1
  N  1229  1  0.46422200  0.00539949  0.34221400  1
  N  1232  1  0.51654100  0.01845450  0.34467100  1
  N  1237  1  0.04453800  0.00282649  0.66286900  1
  N  1240  1  0.99213000  0.01562050  0.66030900  1
  N  1245  1  0.28102500  0.67996800  0.24565900  1
  N  1248  1  0.28589200  0.70124700  0.27145900  1
  N  1253  1  0.23210500  0.67935000  0.76138300  1
  N  1256  1  0.22704500  0.70050200  0.73555500  1
  N  1261  1  0.77484600  0.25281100  0.75846100  1
  N  1264  1  0.77412000  0.23200000  0.73237900  1
  N  1269  1  0.73758300  0.25349200  0.24773800  1
  N  1272  1  0.73852600  0.23261300  0.27380000  1
