# generated using pymatgen
data_H44C49N4
_symmetry_space_group_name_H-M   'P 1'
_cell_length_a   41.40400000
_cell_length_b   41.40400000
_cell_length_c   48.00160000
_cell_angle_alpha   90.00000000
_cell_angle_beta   90.00000000
_cell_angle_gamma   90.00000000
_symmetry_Int_Tables_number   1
_chemical_formula_structural   H44C49N4
_chemical_formula_sum   'H1056 C1176 N96'
_cell_volume   82288.72123395
_cell_formula_units_Z   24
loop_
 _symmetry_equiv_pos_site_id
 _symmetry_equiv_pos_as_xyz
  1  'x, y, z'
loop_
 _atom_site_type_symbol
 _atom_site_label
 _atom_site_symmetry_multiplicity
 _atom_site_fract_x
 _atom_site_fract_y
 _atom_site_fract_z
 _atom_site_occupancy
  H  26  1  0.21506500  0.14803700  0.06734300  1
  H  27  1  0.18432000  0.11564700  0.09846800  1
  H  28  1  0.14948700  0.22470600  0.07838300  1
  H  29  1  0.11847300  0.19228100  0.10917700  1
  H  30  1  0.07598900  0.14364800  0.09843100  1
  H  31  1  0.04515000  0.11120500  0.06745800  1
  H  32  1  0.11068500  0.03448600  0.07849200  1
  H  33  1  0.14179300  0.06697400  0.10918700  1
  H  34  1  0.11668600  0.07508500  0.16068400  1
  H  35  1  0.14894100  0.04566300  0.19293700  1
  H  36  1  0.22396700  0.11326100  0.18310900  1
  H  37  1  0.19185700  0.14276200  0.15095100  1
  H  38  1  0.14357400  0.18402900  0.16078800  1
  H  39  1  0.06815300  0.11669700  0.15075700  1
  H  40  1  0.03601400  0.14631600  0.18283500  1
  H  45  1  0.11142700  0.21340900  0.19306800  1
  H  71  1  0.54474500  0.11157400  0.56710700  1
  H  72  1  0.57549300  0.14390700  0.59826800  1
  H  73  1  0.60966600  0.03448300  0.57884000  1
  H  74  1  0.64069700  0.06685300  0.60964300  1
  H  75  1  0.68314000  0.11555100  0.59823500  1
  H  76  1  0.71400600  0.14795000  0.56725000  1
  H  77  1  0.64918900  0.22512500  0.57904200  1
  H  78  1  0.61804000  0.19268500  0.60972800  1
  H  79  1  0.64300600  0.18389500  0.66121400  1
  H  80  1  0.61083500  0.21327400  0.69355500  1
  H  81  1  0.53526300  0.14645900  0.68289000  1
  H  82  1  0.56730300  0.11697800  0.65068500  1
  H  83  1  0.61567800  0.07567600  0.66123900  1
  H  84  1  0.69159600  0.14231100  0.65054600  1
  H  85  1  0.72370600  0.11259800  0.68256700  1
  H  90  1  0.64780500  0.04621000  0.69348600  1
  H  116  1  0.04458700  0.64811700  0.69046500  1
  H  117  1  0.07532900  0.61573300  0.65933700  1
  H  118  1  0.11015900  0.72479000  0.67942000  1
  H  119  1  0.14117000  0.69236800  0.64862900  1
  H  120  1  0.18362700  0.64380300  0.65936600  1
  H  121  1  0.21447100  0.61141500  0.69037100  1
  H  122  1  0.14902600  0.53462000  0.67932600  1
  H  123  1  0.11791000  0.56706200  0.64859800  1
  H  124  1  0.14295900  0.57520100  0.59708700  1
  H  125  1  0.11073100  0.54581200  0.56479400  1
  H  126  1  0.03569500  0.61339300  0.57464000  1
  H  127  1  0.06778000  0.64285400  0.60683900  1
  H  128  1  0.11601700  0.68412300  0.59700600  1
  H  129  1  0.19148000  0.61683900  0.60700100  1
  H  130  1  0.22360200  0.64650100  0.57494000  1
  H  135  1  0.14814200  0.71354500  0.56473800  1
  H  161  1  0.71592400  0.61068100  0.18961500  1
  H  162  1  0.68526000  0.64311700  0.15847000  1
  H  163  1  0.64853900  0.53522600  0.18063900  1
  H  164  1  0.61763200  0.56771100  0.14977800  1
  H  165  1  0.57507000  0.61602100  0.15856000  1
  H  166  1  0.54433900  0.64851500  0.18956900  1
  H  167  1  0.61165400  0.72403700  0.18054700  1
  H  168  1  0.64263900  0.69148900  0.14976400  1
  H  169  1  0.61717000  0.68511300  0.09821800  1
  H  170  1  0.64942300  0.71449200  0.06596800  1
  H  171  1  0.72315800  0.64511900  0.07368400  1
  H  172  1  0.69102300  0.61566100  0.10588600  1
  H  173  1  0.64285400  0.57413800  0.09811300  1
  H  174  1  0.56906400  0.64360500  0.10608600  1
  H  175  1  0.53676300  0.61420200  0.07394700  1
  H  180  1  0.61047000  0.54486300  0.06590200  1
  H  206  1  0.89755600  0.46384900  0.44267700  1
  H  207  1  0.86533500  0.43430600  0.41047800  1
  H  208  1  0.97315100  0.39704600  0.43210900  1
  H  209  1  0.94106700  0.36740900  0.40005000  1
  H  210  1  0.89294800  0.32620800  0.41088500  1
  H  211  1  0.86106700  0.29681500  0.44334800  1
  H  212  1  0.78482100  0.36278200  0.43227800  1
  H  213  1  0.81669700  0.39243800  0.40003900  1
  H  214  1  0.82507500  0.36556900  0.34776600  1
  H  215  1  0.79421100  0.39772300  0.31654000  1
  H  216  1  0.85895900  0.47501000  0.32803300  1
  H  217  1  0.89010100  0.44282000  0.35888600  1
  H  218  1  0.93263000  0.39416000  0.34755500  1
  H  219  1  0.86778600  0.31689200  0.35942800  1
  H  220  1  0.89904900  0.28435200  0.32890000  1
  H  225  1  0.96360800  0.36166300  0.31673600  1
  H  251  1  0.86208200  0.79528800  0.94258000  1
  H  252  1  0.89422300  0.82479300  0.91030000  1
  H  253  1  0.78659100  0.86227700  0.93231800  1
  H  254  1  0.81859800  0.89186900  0.90016900  1
  H  255  1  0.86662200  0.93310900  0.91070400  1
  H  256  1  0.89848100  0.96251200  0.94316900  1
  H  257  1  0.97463400  0.89638300  0.93233200  1
  H  258  1  0.94276900  0.86672100  0.90007900  1
  H  259  1  0.93451700  0.89366800  0.84778500  1
  H  260  1  0.96536900  0.86157000  0.81651300  1
  H  261  1  0.90053700  0.78431600  0.82780400  1
  H  262  1  0.86940700  0.81645100  0.85871800  1
  H  263  1  0.82676100  0.86503800  0.84767300  1
  H  264  1  0.89177400  0.94223100  0.85920100  1
  H  265  1  0.86046300  0.97473000  0.82867300  1
  H  270  1  0.79572800  0.89749400  0.81686100  1
  H  296  1  0.39775900  0.29520800  0.81579600  1
  H  297  1  0.36552100  0.32476100  0.84797700  1
  H  298  1  0.47279800  0.36283500  0.82540400  1
  H  299  1  0.44070900  0.39245000  0.85749300  1
  H  300  1  0.39282000  0.43375800  0.84768500  1
  H  301  1  0.36098200  0.46320000  0.81523400  1
  H  302  1  0.28523400  0.39644000  0.82526100  1
  H  303  1  0.31707800  0.36674500  0.85751400  1
  H  304  1  0.32466500  0.39369200  0.90986800  1
  H  305  1  0.29382700  0.36147700  0.94106700  1
  H  306  1  0.35939500  0.28472100  0.93043400  1
  H  307  1  0.39049200  0.31697000  0.89957700  1
  H  308  1  0.43311500  0.36536100  0.90997700  1
  H  309  1  0.36751100  0.44220900  0.89923300  1
  H  310  1  0.39874700  0.47462600  0.92990300  1
  H  315  1  0.46408400  0.39774000  0.94090100  1
  H  341  1  0.36208600  0.96396100  0.31520900  1
  H  342  1  0.39430000  0.93448800  0.34746200  1
  H  343  1  0.28665600  0.89693300  0.32558100  1
  H  344  1  0.31872800  0.86737600  0.35770300  1
  H  345  1  0.36675200  0.82615500  0.34719100  1
  H  346  1  0.39862600  0.79668200  0.31477900  1
  H  347  1  0.47477300  0.86283800  0.32553300  1
  H  348  1  0.44289700  0.89257100  0.35773000  1
  H  349  1  0.43469500  0.86575300  0.41003700  1
  H  350  1  0.46550900  0.89792400  0.44128600  1
  H  351  1  0.40058000  0.97508500  0.42993400  1
  H  352  1  0.36948900  0.94288300  0.39904300  1
  H  353  1  0.32690100  0.89428600  0.41016800  1
  H  354  1  0.39197700  0.81713400  0.39868700  1
  H  355  1  0.36070000  0.78464000  0.42924400  1
  H  360  1  0.29590200  0.86183300  0.44101100  1
  H  368  1  0.05352900  0.98768100  0.94577100  1
  H  369  1  0.01459700  0.99270900  0.93258200  1
  H  370  1  0.02536400  0.95685800  0.95061900  1
  H  372  1  0.08379200  0.03601400  0.00295300  1
  H  373  1  0.07177100  0.03498000  0.96801000  1
  H  374  1  0.08267600  0.99890400  0.98595600  1
  H  376  1  0.92247400  0.97964800  0.00388600  1
  H  377  1  0.92132500  0.01792800  0.01940200  1
  H  378  1  0.93514700  0.98364700  0.03823500  1
  H  380  1  0.99130100  0.05032200  0.06664700  1
  H  381  1  0.96683700  0.01618800  0.06721400  1
  H  382  1  0.95424400  0.05149500  0.04917100  1
  H  384  1  0.03353800  0.07749200  0.02756900  1
  H  386  1  0.94755600  0.99480100  0.95362300  1
  H  394  1  0.70598300  0.27163600  0.44584400  1
  H  395  1  0.74491900  0.26661000  0.43267100  1
  H  396  1  0.73414700  0.30245900  0.45070800  1
  H  398  1  0.67562600  0.22350200  0.50311300  1
  H  399  1  0.68761500  0.22444100  0.46815800  1
  H  400  1  0.67683800  0.26057600  0.48607000  1
  H  402  1  0.83702800  0.27958400  0.50398600  1
  H  403  1  0.83816600  0.24127900  0.51945800  1
  H  404  1  0.82436100  0.27553600  0.53833000  1
  H  406  1  0.76818000  0.20884000  0.56666900  1
  H  407  1  0.79266800  0.24295700  0.56728400  1
  H  408  1  0.80522500  0.20768100  0.54917800  1
  H  410  1  0.72571500  0.18184400  0.52753900  1
  H  412  1  0.81198500  0.26446500  0.45374200  1
  H  420  1  0.20602500  0.48797500  0.81210700  1
  H  421  1  0.24492100  0.49307600  0.82535400  1
  H  422  1  0.23424700  0.45719000  0.80732800  1
  H  424  1  0.17584000  0.53628900  0.75488600  1
  H  425  1  0.18781400  0.53527000  0.78983900  1
  H  426  1  0.17694800  0.49918400  0.77189200  1
  H  428  1  0.33720900  0.48004600  0.75420500  1
  H  429  1  0.33834000  0.51829800  0.73864100  1
  H  430  1  0.32460200  0.48396800  0.71983100  1
  H  432  1  0.26840700  0.55053700  0.69126500  1
  H  433  1  0.29291400  0.51643100  0.69076700  1
  H  434  1  0.30543400  0.55178000  0.70878500  1
  H  436  1  0.22610500  0.57774700  0.73026400  1
  H  438  1  0.31190700  0.49520100  0.80448000  1
  H  446  1  0.55369600  0.77141200  0.31219200  1
  H  447  1  0.51478200  0.76638100  0.32542500  1
  H  448  1  0.52552000  0.80222500  0.30736700  1
  H  450  1  0.58381100  0.72281500  0.25511900  1
  H  451  1  0.57177400  0.72399100  0.29004700  1
  H  452  1  0.58280900  0.75998300  0.27203500  1
  H  454  1  0.42254900  0.77943300  0.25421500  1
  H  455  1  0.42139700  0.74117500  0.23866500  1
  H  456  1  0.43518500  0.77548400  0.21985300  1
  H  458  1  0.49132500  0.70886200  0.19132900  1
  H  459  1  0.46686600  0.74299900  0.19082500  1
  H  460  1  0.45428000  0.70765900  0.20882400  1
  H  462  1  0.53338400  0.68157000  0.23020700  1
  H  464  1  0.44776400  0.76437100  0.30447100  1
  H  472  1  0.30331900  0.73774100  0.56214400  1
  H  473  1  0.26440500  0.74299400  0.57530400  1
  H  474  1  0.27497400  0.70708900  0.55726100  1
  H  476  1  0.33392200  0.78595800  0.50501700  1
  H  477  1  0.32186300  0.78497100  0.53995300  1
  H  478  1  0.33257200  0.74884600  0.52199600  1
  H  480  1  0.17227500  0.73055600  0.50392700  1
  H  481  1  0.17138700  0.76884700  0.48843000  1
  H  482  1  0.18501300  0.73449200  0.46959300  1
  H  484  1  0.24161000  0.80084800  0.44126500  1
  H  485  1  0.21692700  0.76687300  0.44066500  1
  H  486  1  0.20453900  0.80224900  0.45871200  1
  H  488  1  0.28386600  0.82781700  0.48053200  1
  H  490  1  0.19746200  0.74541600  0.55427200  1
  H  498  1  0.80974800  0.52905100  0.20107600  1
  H  499  1  0.77073300  0.53322700  0.18783600  1
  H  500  1  0.78705300  0.56276000  0.21063700  1
  H  502  1  0.83104800  0.46673300  0.25050000  1
  H  503  1  0.81997700  0.47676100  0.21655800  1
  H  504  1  0.83614200  0.50654300  0.23946300  1
  H  506  1  0.67714800  0.54191200  0.25668800  1
  H  507  1  0.67237500  0.50231400  0.26831200  1
  H  508  1  0.68806900  0.53258700  0.29080500  1
  H  510  1  0.73572900  0.45606700  0.31260200  1
  H  511  1  0.71500400  0.49234400  0.31656500  1
  H  512  1  0.69981000  0.46170500  0.29419000  1
  H  514  1  0.77943500  0.43242700  0.27817200  1
  H  516  1  0.72885500  0.57689600  0.22940100  1
  H  524  1  0.45611100  0.23791600  0.69498400  1
  H  525  1  0.49508300  0.24692600  0.68355900  1
  H  526  1  0.48575100  0.20816400  0.69716500  1
  H  528  1  0.42144800  0.27576600  0.75589000  1
  H  529  1  0.43488600  0.27957500  0.72167900  1
  H  530  1  0.42487700  0.24092500  0.73557400  1
  H  532  1  0.58749200  0.23343900  0.75360700  1
  H  533  1  0.58382600  0.26811200  0.77407900  1
  H  534  1  0.57444000  0.22940400  0.78788700  1
  H  536  1  0.51131300  0.28371000  0.82404800  1
  H  537  1  0.53861000  0.25195200  0.82059200  1
  H  538  1  0.54810000  0.29099900  0.80756300  1
  H  540  1  0.44811200  0.26338800  0.80501100  1
  H  542  1  0.56100400  0.24528300  0.70497900  1
  H  550  1  0.05231400  0.48866300  0.44395600  1
  H  551  1  0.01333300  0.49767000  0.43254800  1
  H  552  1  0.02267500  0.45891000  0.44615000  1
  H  554  1  0.08699400  0.52657000  0.50483400  1
  H  555  1  0.07353200  0.53035000  0.47062800  1
  H  556  1  0.08358600  0.49171600  0.48453000  1
  H  558  1  0.92094600  0.48425300  0.50261700  1
  H  559  1  0.92465800  0.51890900  0.52310400  1
  H  560  1  0.93400900  0.48018300  0.53689300  1
  H  562  1  0.99718900  0.53442900  0.57305600  1
  H  563  1  0.96987100  0.50269300  0.56959200  1
  H  564  1  0.96040500  0.54175200  0.55658200  1
  H  566  1  0.06037100  0.51403800  0.55397400  1
  H  568  1  0.94743100  0.49594300  0.45397900  1
  H  576  1  0.70737700  0.77071100  0.94425900  1
  H  577  1  0.74633200  0.76170000  0.93280100  1
  H  578  1  0.73702400  0.80045900  0.94642100  1
  H  580  1  0.67271800  0.73307000  0.00526600  1
  H  581  1  0.68606000  0.72917400  0.97103100  1
  H  582  1  0.67621300  0.76787100  0.98491200  1
  H  584  1  0.83882800  0.77510900  0.00277200  1
  H  585  1  0.83518800  0.74036600  0.02316000  1
  H  586  1  0.82583100  0.77902700  0.03707800  1
  H  588  1  0.76276000  0.72460000  0.07317700  1
  H  589  1  0.79004000  0.75639400  0.06979600  1
  H  590  1  0.79952000  0.71740900  0.05662800  1
  H  592  1  0.69975400  0.74540700  0.05446600  1
  H  594  1  0.81230400  0.76332100  0.95416300  1
  H  602  1  0.20733600  0.98846600  0.31371700  1
  H  603  1  0.24629300  0.99753200  0.32514800  1
  H  604  1  0.23701900  0.95875600  0.31154600  1
  H  606  1  0.17265400  0.02632000  0.25281900  1
  H  607  1  0.18608800  0.03012700  0.28703000  1
  H  608  1  0.17609500  0.99147500  0.27313100  1
  H  610  1  0.33874500  0.98417400  0.25512500  1
  H  611  1  0.33501900  0.01882200  0.23463000  1
  H  612  1  0.32570300  0.98008500  0.22084500  1
  H  614  1  0.26250100  0.03426600  0.18464200  1
  H  615  1  0.28984400  0.00255400  0.18812500  1
  H  616  1  0.29927100  0.04162700  0.20113000  1
  H  618  1  0.19932300  0.01388200  0.20370000  1
  H  620  1  0.31220200  0.99590900  0.30376700  1
  H  628  1  0.30975800  0.23034200  0.05689400  1
  H  629  1  0.27074200  0.22616700  0.07014100  1
  H  630  1  0.28705200  0.19664000  0.04732800  1
  H  632  1  0.33098500  0.29279100  0.00756600  1
  H  633  1  0.31990400  0.28268500  0.04148700  1
  H  634  1  0.33614200  0.25296800  0.01855800  1
  H  636  1  0.17713500  0.21752800  0.00131800  1
  H  637  1  0.17239300  0.25709900  0.98962800  1
  H  638  1  0.18807600  0.22677300  0.96718300  1
  H  640  1  0.23576600  0.30326600  0.94532100  1
  H  641  1  0.21503100  0.26699100  0.94139900  1
  H  642  1  0.19983600  0.29767200  0.96373100  1
  H  644  1  0.27934300  0.32699300  0.97974300  1
  H  646  1  0.22878200  0.18248200  0.02839800  1
  H  654  1  0.80299800  0.02148700  0.69570900  1
  H  655  1  0.76404300  0.01633200  0.68261300  1
  H  656  1  0.77474500  0.05221900  0.70062300  1
  H  658  1  0.83364000  0.97337500  0.75288400  1
  H  659  1  0.82154200  0.97430500  0.71795600  1
  H  660  1  0.83229500  0.01045700  0.73585500  1
  H  662  1  0.67206400  0.02896900  0.75409600  1
  H  663  1  0.67113100  0.99068000  0.76960200  1
  H  664  1  0.68484500  0.02501800  0.78841800  1
  H  666  1  0.74138100  0.95858900  0.81670300  1
  H  667  1  0.71675300  0.99260300  0.81732100  1
  H  668  1  0.70428300  0.95723900  0.79929700  1
  H  670  1  0.78356300  0.93155800  0.77741600  1
  H  672  1  0.69705600  0.01402900  0.70380200  1
  H  680  1  0.56060300  0.97981700  0.45199200  1
  H  681  1  0.52162400  0.97577800  0.43863600  1
  H  682  1  0.53773100  0.94621600  0.46152300  1
  H  684  1  0.58186000  0.04227700  0.50130500  1
  H  685  1  0.57086800  0.03216800  0.46736000  1
  H  686  1  0.58691500  0.00242600  0.49036300  1
  H  688  1  0.42774600  0.96752100  0.50723100  1
  H  689  1  0.42308300  0.00712600  0.51885600  1
  H  690  1  0.43859600  0.97679300  0.54138200  1
  H  692  1  0.48645100  0.05317100  0.56327300  1
  H  693  1  0.46558300  0.01697200  0.56718400  1
  H  694  1  0.45056300  0.04766800  0.54477600  1
  H  696  1  0.53016900  0.07675900  0.52877200  1
  H  698  1  0.47926800  0.93230700  0.48028000  1
  H  706  1  0.06054800  0.77959900  0.80594300  1
  H  707  1  0.02153900  0.78364200  0.81923600  1
  H  708  1  0.03772100  0.81322900  0.79641200  1
  H  710  1  0.08187200  0.71718000  0.75661700  1
  H  711  1  0.07079700  0.72725600  0.79054700  1
  H  712  1  0.08693600  0.75701200  0.76760600  1
  H  714  1  0.92784600  0.79209600  0.75046100  1
  H  715  1  0.92318200  0.75252000  0.73876100  1
  H  716  1  0.93878700  0.78288600  0.71631800  1
  H  718  1  0.98664200  0.70651700  0.69441100  1
  H  719  1  0.96581300  0.74273800  0.69051700  1
  H  720  1  0.95070400  0.71200400  0.71283700  1
  H  722  1  0.03016000  0.68278500  0.72898700  1
  H  724  1  0.97932200  0.82720600  0.77758900  1
  H  732  1  0.95625600  0.23751700  0.19574800  1
  H  733  1  0.99516800  0.24277900  0.18258900  1
  H  734  1  0.98460100  0.20685800  0.20060900  1
  H  736  1  0.92563600  0.28558400  0.25296100  1
  H  737  1  0.93767100  0.28468300  0.21801600  1
  H  738  1  0.92702200  0.24851000  0.23592600  1
  H  740  1  0.08729800  0.23025700  0.25395200  1
  H  741  1  0.08819700  0.26853700  0.26947900  1
  H  742  1  0.07456700  0.23416500  0.28829500  1
  H  744  1  0.01796900  0.30050700  0.31666100  1
  H  745  1  0.04265400  0.26653500  0.31724600  1
  H  746  1  0.05504100  0.30192300  0.29921700  1
  H  748  1  0.97567000  0.32751700  0.27733300  1
  H  750  1  0.06211000  0.24522000  0.20361500  1
  H  758  1  0.55718600  0.47888900  0.94949200  1
  H  759  1  0.51731500  0.47912600  0.93766500  1
  H  760  1  0.53272700  0.44551300  0.95636100  1
  H  762  1  0.58538300  0.53115900  0.00490100  1
  H  763  1  0.57249300  0.52672500  0.97062900  1
  H  764  1  0.58749000  0.49283000  0.98952000  1
  H  766  1  0.42540600  0.47116000  0.00646600  1
  H  767  1  0.42570600  0.50829700  0.02342300  1
  H  768  1  0.43751800  0.47264100  0.04134900  1
  H  770  1  0.49446500  0.53939500  0.07100700  1
  H  771  1  0.47042800  0.50472000  0.07175600  1
  H  772  1  0.45765900  0.53982300  0.05351100  1
  H  774  1  0.55921700  0.51408400  0.05667700  1
  H  776  1  0.47505100  0.43116900  0.98118700  1
  H  802  1  0.21506500  0.38956000  0.10900800  1
  H  803  1  0.18432000  0.35717000  0.14013300  1
  H  804  1  0.14948700  0.46622900  0.12004800  1
  H  805  1  0.11847300  0.43380400  0.15084200  1
  H  806  1  0.07598900  0.38517100  0.14009600  1
  H  807  1  0.04515000  0.35272800  0.10912300  1
  H  808  1  0.11068500  0.27600900  0.12015700  1
  H  809  1  0.14179300  0.30849700  0.15085200  1
  H  810  1  0.11668600  0.31660800  0.20234900  1
  H  811  1  0.14894100  0.28718600  0.23460200  1
  H  812  1  0.22396700  0.35478400  0.22477400  1
  H  813  1  0.19185700  0.38428500  0.19261600  1
  H  814  1  0.14357400  0.42555200  0.20245300  1
  H  815  1  0.06815300  0.35822000  0.19242200  1
  H  816  1  0.03601400  0.38783900  0.22450000  1
  H  821  1  0.11142700  0.45493200  0.23473300  1
  H  847  1  0.54474500  0.35309700  0.60877200  1
  H  848  1  0.57549300  0.38543000  0.63993300  1
  H  849  1  0.60966600  0.27600600  0.62050500  1
  H  850  1  0.64069700  0.30837600  0.65130800  1
  H  851  1  0.68314000  0.35707400  0.63990000  1
  H  852  1  0.71400600  0.38947300  0.60891500  1
  H  853  1  0.64918900  0.46664800  0.62070700  1
  H  854  1  0.61804000  0.43420800  0.65139300  1
  H  855  1  0.64300600  0.42541800  0.70287900  1
  H  856  1  0.61083500  0.45479700  0.73522000  1
  H  857  1  0.53526300  0.38798200  0.72455500  1
  H  858  1  0.56730300  0.35850100  0.69235000  1
  H  859  1  0.61567800  0.31719900  0.70290400  1
  H  860  1  0.69159600  0.38383400  0.69221100  1
  H  861  1  0.72370600  0.35412100  0.72423200  1
  H  866  1  0.64780500  0.28773300  0.73515100  1
  H  892  1  0.04458700  0.88964000  0.73213000  1
  H  893  1  0.07532900  0.85725600  0.70100200  1
  H  894  1  0.11015900  0.96631300  0.72108500  1
  H  895  1  0.14117000  0.93389100  0.69029400  1
  H  896  1  0.18362700  0.88532600  0.70103100  1
  H  897  1  0.21447100  0.85293800  0.73203600  1
  H  898  1  0.14902600  0.77614300  0.72099100  1
  H  899  1  0.11791000  0.80858500  0.69026300  1
  H  900  1  0.14295900  0.81672400  0.63875200  1
  H  901  1  0.11073100  0.78733500  0.60645900  1
  H  902  1  0.03569500  0.85491600  0.61630500  1
  H  903  1  0.06778000  0.88437700  0.64850400  1
  H  904  1  0.11601700  0.92564600  0.63867100  1
  H  905  1  0.19148000  0.85836200  0.64866600  1
  H  906  1  0.22360200  0.88802400  0.61660500  1
  H  911  1  0.14814200  0.95506800  0.60640300  1
  H  937  1  0.71592400  0.85220400  0.23128000  1
  H  938  1  0.68526000  0.88464000  0.20013500  1
  H  939  1  0.64853900  0.77674900  0.22230400  1
  H  940  1  0.61763200  0.80923400  0.19144300  1
  H  941  1  0.57507000  0.85754400  0.20022500  1
  H  942  1  0.54433900  0.89003800  0.23123400  1
  H  943  1  0.61165400  0.96556000  0.22221200  1
  H  944  1  0.64263900  0.93301200  0.19142900  1
  H  945  1  0.61717000  0.92663600  0.13988300  1
  H  946  1  0.64942300  0.95601500  0.10763300  1
  H  947  1  0.72315800  0.88664200  0.11534900  1
  H  948  1  0.69102300  0.85718400  0.14755100  1
  H  949  1  0.64285400  0.81566100  0.13977800  1
  H  950  1  0.56906400  0.88512800  0.14775100  1
  H  951  1  0.53676300  0.85572500  0.11561200  1
  H  956  1  0.61047000  0.78638600  0.10756700  1
  H  982  1  0.89755600  0.70537200  0.48434200  1
  H  983  1  0.86533500  0.67582900  0.45214300  1
  H  984  1  0.97315100  0.63856900  0.47377400  1
  H  985  1  0.94106700  0.60893200  0.44171500  1
  H  986  1  0.89294800  0.56773100  0.45255000  1
  H  987  1  0.86106700  0.53833800  0.48501300  1
  H  988  1  0.78482100  0.60430500  0.47394300  1
  H  989  1  0.81669700  0.63396100  0.44170400  1
  H  990  1  0.82507500  0.60709200  0.38943100  1
  H  991  1  0.79421100  0.63924600  0.35820500  1
  H  992  1  0.85895900  0.71653300  0.36969800  1
  H  993  1  0.89010100  0.68434300  0.40055100  1
  H  994  1  0.93263000  0.63568300  0.38922000  1
  H  995  1  0.86778600  0.55841500  0.40109300  1
  H  996  1  0.89904900  0.52587500  0.37056500  1
  H  1001  1  0.96360800  0.60318600  0.35840100  1
  H  1027  1  0.86208200  0.03681060  0.98424500  1
  H  1028  1  0.89422300  0.06631560  0.95196500  1
  H  1029  1  0.78659100  0.10380000  0.97398300  1
  H  1030  1  0.81859800  0.13339200  0.94183400  1
  H  1031  1  0.86662200  0.17463200  0.95236900  1
  H  1032  1  0.89848100  0.20403500  0.98483400  1
  H  1033  1  0.97463400  0.13790600  0.97399700  1
  H  1034  1  0.94276900  0.10824400  0.94174400  1
  H  1035  1  0.93451700  0.13519100  0.88945000  1
  H  1036  1  0.96536900  0.10309300  0.85817800  1
  H  1037  1  0.90053700  0.02583860  0.86946900  1
  H  1038  1  0.86940700  0.05797360  0.90038300  1
  H  1039  1  0.82676100  0.10656100  0.88933800  1
  H  1040  1  0.89177400  0.18375400  0.90086600  1
  H  1041  1  0.86046300  0.21625300  0.87033800  1
  H  1046  1  0.79572800  0.13901700  0.85852600  1
  H  1072  1  0.39775900  0.53673100  0.85746100  1
  H  1073  1  0.36552100  0.56628400  0.88964200  1
  H  1074  1  0.47279800  0.60435800  0.86706900  1
  H  1075  1  0.44070900  0.63397300  0.89915800  1
  H  1076  1  0.39282000  0.67528100  0.88935000  1
  H  1077  1  0.36098200  0.70472300  0.85689900  1
  H  1078  1  0.28523400  0.63796300  0.86692600  1
  H  1079  1  0.31707800  0.60826800  0.89917900  1
  H  1080  1  0.32466500  0.63521500  0.95153300  1
  H  1081  1  0.29382700  0.60300000  0.98273200  1
  H  1082  1  0.35939500  0.52624400  0.97209900  1
  H  1083  1  0.39049200  0.55849300  0.94124200  1
  H  1084  1  0.43311500  0.60688400  0.95164200  1
  H  1085  1  0.36751100  0.68373200  0.94089800  1
  H  1086  1  0.39874700  0.71614900  0.97156800  1
  H  1091  1  0.46408400  0.63926300  0.98256600  1
  H  1117  1  0.36208600  0.20548400  0.35687400  1
  H  1118  1  0.39430000  0.17601100  0.38912700  1
  H  1119  1  0.28665600  0.13845600  0.36724600  1
  H  1120  1  0.31872800  0.10889900  0.39936800  1
  H  1121  1  0.36675200  0.06767760  0.38885600  1
  H  1122  1  0.39862600  0.03820460  0.35644400  1
  H  1123  1  0.47477300  0.10436100  0.36719800  1
  H  1124  1  0.44289700  0.13409400  0.39939500  1
  H  1125  1  0.43469500  0.10727600  0.45170200  1
  H  1126  1  0.46550900  0.13944700  0.48295100  1
  H  1127  1  0.40058000  0.21660800  0.47159900  1
  H  1128  1  0.36948900  0.18440600  0.44070800  1
  H  1129  1  0.32690100  0.13580900  0.45183300  1
  H  1130  1  0.39197700  0.05865660  0.44035200  1
  H  1131  1  0.36070000  0.02616260  0.47090900  1
  H  1136  1  0.29590200  0.10335600  0.48267600  1
  H  1144  1  0.05352900  0.22920400  0.98743600  1
  H  1145  1  0.01459700  0.23423200  0.97424700  1
  H  1146  1  0.02536400  0.19838100  0.99228400  1
  H  1148  1  0.08379200  0.27753700  0.04461830  1
  H  1149  1  0.07177100  0.27650300  0.00967528  1
  H  1150  1  0.08267600  0.24042700  0.02762130  1
  H  1152  1  0.92247400  0.22117100  0.04555130  1
  H  1153  1  0.92132500  0.25945100  0.06106730  1
  H  1154  1  0.93514700  0.22517000  0.07990030  1
  H  1156  1  0.99130100  0.29184500  0.10831200  1
  H  1157  1  0.96683700  0.25771100  0.10887900  1
  H  1158  1  0.95424400  0.29301800  0.09083630  1
  H  1160  1  0.03353800  0.31901500  0.06923430  1
  H  1162  1  0.94755600  0.23632400  0.99528800  1
  H  1170  1  0.70598300  0.51315900  0.48750900  1
  H  1171  1  0.74491900  0.50813300  0.47433600  1
  H  1172  1  0.73414700  0.54398200  0.49237300  1
  H  1174  1  0.67562600  0.46502500  0.54477800  1
  H  1175  1  0.68761500  0.46596400  0.50982300  1
  H  1176  1  0.67683800  0.50209900  0.52773500  1
  H  1178  1  0.83702800  0.52110700  0.54565100  1
  H  1179  1  0.83816600  0.48280200  0.56112300  1
  H  1180  1  0.82436100  0.51705900  0.57999500  1
  H  1182  1  0.76818000  0.45036300  0.60833400  1
  H  1183  1  0.79266800  0.48448000  0.60894900  1
  H  1184  1  0.80522500  0.44920400  0.59084300  1
  H  1186  1  0.72571500  0.42336700  0.56920400  1
  H  1188  1  0.81198500  0.50598800  0.49540700  1
  H  1196  1  0.20602500  0.72949800  0.85377200  1
  H  1197  1  0.24492100  0.73459900  0.86701900  1
  H  1198  1  0.23424700  0.69871300  0.84899300  1
  H  1200  1  0.17584000  0.77781200  0.79655100  1
  H  1201  1  0.18781400  0.77679300  0.83150400  1
  H  1202  1  0.17694800  0.74070700  0.81355700  1
  H  1204  1  0.33720900  0.72156900  0.79587000  1
  H  1205  1  0.33834000  0.75982100  0.78030600  1
  H  1206  1  0.32460200  0.72549100  0.76149600  1
  H  1208  1  0.26840700  0.79206000  0.73293000  1
  H  1209  1  0.29291400  0.75795400  0.73243200  1
  H  1210  1  0.30543400  0.79330300  0.75045000  1
  H  1212  1  0.22610500  0.81927000  0.77192900  1
  H  1214  1  0.31190700  0.73672400  0.84614500  1
  H  1222  1  0.55369600  0.01293460  0.35385700  1
  H  1223  1  0.51478200  0.00790356  0.36709000  1
  H  1224  1  0.52552000  0.04374760  0.34903200  1
  H  1226  1  0.58381100  0.96433800  0.29678400  1
  H  1227  1  0.57177400  0.96551400  0.33171200  1
  H  1228  1  0.58280900  0.00150556  0.31370000  1
  H  1230  1  0.42254900  0.02095560  0.29588000  1
  H  1231  1  0.42139700  0.98269800  0.28033000  1
  H  1232  1  0.43518500  0.01700660  0.26151800  1
  H  1234  1  0.49132500  0.95038500  0.23299400  1
  H  1235  1  0.46686600  0.98452200  0.23249000  1
  H  1236  1  0.45428000  0.94918200  0.25048900  1
  H  1238  1  0.53338400  0.92309300  0.27187200  1
  H  1240  1  0.44776400  0.00589356  0.34613600  1
  H  1248  1  0.30331900  0.97926400  0.60380900  1
  H  1249  1  0.26440500  0.98451700  0.61696900  1
  H  1250  1  0.27497400  0.94861200  0.59892600  1
  H  1252  1  0.33392200  0.02748060  0.54668200  1
  H  1253  1  0.32186300  0.02649360  0.58161800  1
  H  1254  1  0.33257200  0.99036900  0.56366100  1
  H  1256  1  0.17227500  0.97207900  0.54559200  1
  H  1257  1  0.17138700  0.01036960  0.53009500  1
  H  1258  1  0.18501300  0.97601500  0.51125800  1
  H  1260  1  0.24161000  0.04237060  0.48293000  1
  H  1261  1  0.21692700  0.00839556  0.48233000  1
  H  1262  1  0.20453900  0.04377160  0.50037700  1
  H  1264  1  0.28386600  0.06933960  0.52219700  1
  H  1266  1  0.19746200  0.98693900  0.59593700  1
  H  1274  1  0.80974800  0.77057400  0.24274100  1
  H  1275  1  0.77073300  0.77475000  0.22950100  1
  H  1276  1  0.78705300  0.80428300  0.25230200  1
  H  1278  1  0.83104800  0.70825600  0.29216500  1
  H  1279  1  0.81997700  0.71828400  0.25822300  1
  H  1280  1  0.83614200  0.74806600  0.28112800  1
  H  1282  1  0.67714800  0.78343500  0.29835300  1
  H  1283  1  0.67237500  0.74383700  0.30997700  1
  H  1284  1  0.68806900  0.77411000  0.33247000  1
  H  1286  1  0.73572900  0.69759000  0.35426700  1
  H  1287  1  0.71500400  0.73386700  0.35823000  1
  H  1288  1  0.69981000  0.70322800  0.33585500  1
  H  1290  1  0.77943500  0.67395000  0.31983700  1
  H  1292  1  0.72885500  0.81841900  0.27106600  1
  H  1300  1  0.45611100  0.47943900  0.73664900  1
  H  1301  1  0.49508300  0.48844900  0.72522400  1
  H  1302  1  0.48575100  0.44968700  0.73883000  1
  H  1304  1  0.42144800  0.51728900  0.79755500  1
  H  1305  1  0.43488600  0.52109800  0.76334400  1
  H  1306  1  0.42487700  0.48244800  0.77723900  1
  H  1308  1  0.58749200  0.47496200  0.79527200  1
  H  1309  1  0.58382600  0.50963500  0.81574400  1
  H  1310  1  0.57444000  0.47092700  0.82955200  1
  H  1312  1  0.51131300  0.52523300  0.86571300  1
  H  1313  1  0.53861000  0.49347500  0.86225700  1
  H  1314  1  0.54810000  0.53252200  0.84922800  1
  H  1316  1  0.44811200  0.50491100  0.84667600  1
  H  1318  1  0.56100400  0.48680600  0.74664400  1
  H  1326  1  0.05231400  0.73018600  0.48562100  1
  H  1327  1  0.01333300  0.73919300  0.47421300  1
  H  1328  1  0.02267500  0.70043300  0.48781500  1
  H  1330  1  0.08699400  0.76809300  0.54649900  1
  H  1331  1  0.07353200  0.77187300  0.51229300  1
  H  1332  1  0.08358600  0.73323900  0.52619500  1
  H  1334  1  0.92094600  0.72577600  0.54428200  1
  H  1335  1  0.92465800  0.76043200  0.56476900  1
  H  1336  1  0.93400900  0.72170600  0.57855800  1
  H  1338  1  0.99718900  0.77595200  0.61472100  1
  H  1339  1  0.96987100  0.74421600  0.61125700  1
  H  1340  1  0.96040500  0.78327500  0.59824700  1
  H  1342  1  0.06037100  0.75556100  0.59563900  1
  H  1344  1  0.94743100  0.73746600  0.49564400  1
  H  1352  1  0.70737700  0.01223360  0.98592400  1
  H  1353  1  0.74633200  0.00322256  0.97446600  1
  H  1354  1  0.73702400  0.04198160  0.98808600  1
  H  1356  1  0.67271800  0.97459300  0.04693130  1
  H  1357  1  0.68606000  0.97069700  0.01269630  1
  H  1358  1  0.67621300  0.00939356  0.02657730  1
  H  1360  1  0.83882800  0.01663160  0.04443730  1
  H  1361  1  0.83518800  0.98188900  0.06482530  1
  H  1362  1  0.82583100  0.02054960  0.07874330  1
  H  1364  1  0.76276000  0.96612300  0.11484200  1
  H  1365  1  0.79004000  0.99791700  0.11146100  1
  H  1366  1  0.79952000  0.95893200  0.09829330  1
  H  1368  1  0.69975400  0.98693000  0.09613130  1
  H  1370  1  0.81230400  0.00484356  0.99582800  1
  H  1378  1  0.20733600  0.22998900  0.35538200  1
  H  1379  1  0.24629300  0.23905500  0.36681300  1
  H  1380  1  0.23701900  0.20027900  0.35321100  1
  H  1382  1  0.17265400  0.26784300  0.29448400  1
  H  1383  1  0.18608800  0.27165000  0.32869500  1
  H  1384  1  0.17609500  0.23299800  0.31479600  1
  H  1386  1  0.33874500  0.22569700  0.29679000  1
  H  1387  1  0.33501900  0.26034500  0.27629500  1
  H  1388  1  0.32570300  0.22160800  0.26251000  1
  H  1390  1  0.26250100  0.27578900  0.22630700  1
  H  1391  1  0.28984400  0.24407700  0.22979000  1
  H  1392  1  0.29927100  0.28315000  0.24279500  1
  H  1394  1  0.19932300  0.25540500  0.24536500  1
  H  1396  1  0.31220200  0.23743200  0.34543200  1
  H  1404  1  0.30975800  0.47186500  0.09855930  1
  H  1405  1  0.27074200  0.46769000  0.11180600  1
  H  1406  1  0.28705200  0.43816300  0.08899330  1
  H  1408  1  0.33098500  0.53431400  0.04923130  1
  H  1409  1  0.31990400  0.52420800  0.08315230  1
  H  1410  1  0.33614200  0.49449100  0.06022330  1
  H  1412  1  0.17713500  0.45905100  0.04298330  1
  H  1413  1  0.17239300  0.49862200  0.03129330  1
  H  1414  1  0.18807600  0.46829600  0.00884828  1
  H  1416  1  0.23576600  0.54478900  0.98698600  1
  H  1417  1  0.21503100  0.50851400  0.98306400  1
  H  1418  1  0.19983600  0.53919500  0.00539628  1
  H  1420  1  0.27934300  0.56851600  0.02140830  1
  H  1422  1  0.22878200  0.42400500  0.07006330  1
  H  1430  1  0.80299800  0.26301000  0.73737400  1
  H  1431  1  0.76404300  0.25785500  0.72427800  1
  H  1432  1  0.77474500  0.29374200  0.74228800  1
  H  1434  1  0.83364000  0.21489800  0.79454900  1
  H  1435  1  0.82154200  0.21582800  0.75962100  1
  H  1436  1  0.83229500  0.25198000  0.77752000  1
  H  1438  1  0.67206400  0.27049200  0.79576100  1
  H  1439  1  0.67113100  0.23220300  0.81126700  1
  H  1440  1  0.68484500  0.26654100  0.83008300  1
  H  1442  1  0.74138100  0.20011200  0.85836800  1
  H  1443  1  0.71675300  0.23412600  0.85898600  1
  H  1444  1  0.70428300  0.19876200  0.84096200  1
  H  1446  1  0.78356300  0.17308100  0.81908100  1
  H  1448  1  0.69705600  0.25555200  0.74546700  1
  H  1456  1  0.56060300  0.22134000  0.49365700  1
  H  1457  1  0.52162400  0.21730100  0.48030100  1
  H  1458  1  0.53773100  0.18773900  0.50318800  1
  H  1460  1  0.58186000  0.28380000  0.54297000  1
  H  1461  1  0.57086800  0.27369100  0.50902500  1
  H  1462  1  0.58691500  0.24394900  0.53202800  1
  H  1464  1  0.42774600  0.20904400  0.54889600  1
  H  1465  1  0.42308300  0.24864900  0.56052100  1
  H  1466  1  0.43859600  0.21831600  0.58304700  1
  H  1468  1  0.48645100  0.29469400  0.60493800  1
  H  1469  1  0.46558300  0.25849500  0.60884900  1
  H  1470  1  0.45056300  0.28919100  0.58644100  1
  H  1472  1  0.53016900  0.31828200  0.57043700  1
  H  1474  1  0.47926800  0.17383000  0.52194500  1
  H  1482  1  0.06054800  0.02112160  0.84760800  1
  H  1483  1  0.02153900  0.02516460  0.86090100  1
  H  1484  1  0.03772100  0.05475160  0.83807700  1
  H  1486  1  0.08187200  0.95870300  0.79828200  1
  H  1487  1  0.07079700  0.96877900  0.83221200  1
  H  1488  1  0.08693600  0.99853500  0.80927100  1
  H  1490  1  0.92784600  0.03361860  0.79212600  1
  H  1491  1  0.92318200  0.99404300  0.78042600  1
  H  1492  1  0.93878700  0.02440860  0.75798300  1
  H  1494  1  0.98664200  0.94804000  0.73607600  1
  H  1495  1  0.96581300  0.98426100  0.73218200  1
  H  1496  1  0.95070400  0.95352700  0.75450200  1
  H  1498  1  0.03016000  0.92430800  0.77065200  1
  H  1500  1  0.97932200  0.06872860  0.81925400  1
  H  1508  1  0.95625600  0.47904000  0.23741300  1
  H  1509  1  0.99516800  0.48430200  0.22425400  1
  H  1510  1  0.98460100  0.44838100  0.24227400  1
  H  1512  1  0.92563600  0.52710700  0.29462600  1
  H  1513  1  0.93767100  0.52620600  0.25968100  1
  H  1514  1  0.92702200  0.49003300  0.27759100  1
  H  1516  1  0.08729800  0.47178000  0.29561700  1
  H  1517  1  0.08819700  0.51006000  0.31114400  1
  H  1518  1  0.07456700  0.47568800  0.32996000  1
  H  1520  1  0.01796900  0.54203000  0.35832600  1
  H  1521  1  0.04265400  0.50805800  0.35891100  1
  H  1522  1  0.05504100  0.54344600  0.34088200  1
  H  1524  1  0.97567000  0.56904000  0.31899800  1
  H  1526  1  0.06211000  0.48674300  0.24528000  1
  H  1534  1  0.55718600  0.72041200  0.99115700  1
  H  1535  1  0.51731500  0.72064900  0.97933000  1
  H  1536  1  0.53272700  0.68703600  0.99802600  1
  H  1538  1  0.58538300  0.77268200  0.04656630  1
  H  1539  1  0.57249300  0.76824800  0.01229430  1
  H  1540  1  0.58749000  0.73435300  0.03118530  1
  H  1542  1  0.42540600  0.71268300  0.04813130  1
  H  1543  1  0.42570600  0.74982000  0.06508830  1
  H  1544  1  0.43751800  0.71416400  0.08301430  1
  H  1546  1  0.49446500  0.78091800  0.11267200  1
  H  1547  1  0.47042800  0.74624300  0.11342100  1
  H  1548  1  0.45765900  0.78134600  0.09517630  1
  H  1550  1  0.55921700  0.75560700  0.09834230  1
  H  1552  1  0.47505100  0.67269200  0.02285230  1
  H  1578  1  0.21506500  0.63108200  0.15067400  1
  H  1579  1  0.18432000  0.59869200  0.18179900  1
  H  1580  1  0.14948700  0.70775100  0.16171400  1
  H  1581  1  0.11847300  0.67532600  0.19250800  1
  H  1582  1  0.07598900  0.62669300  0.18176200  1
  H  1583  1  0.04515000  0.59425000  0.15078900  1
  H  1584  1  0.11068500  0.51753100  0.16182300  1
  H  1585  1  0.14179300  0.55001900  0.19251800  1
  H  1586  1  0.11668600  0.55813000  0.24401500  1
  H  1587  1  0.14894100  0.52870800  0.27626800  1
  H  1588  1  0.22396700  0.59630600  0.26644000  1
  H  1589  1  0.19185700  0.62580700  0.23428200  1
  H  1590  1  0.14357400  0.66707400  0.24411900  1
  H  1591  1  0.06815300  0.59974200  0.23408800  1
  H  1592  1  0.03601400  0.62936100  0.26616600  1
  H  1597  1  0.11142700  0.69645400  0.27639900  1
  H  1623  1  0.54474500  0.59461900  0.65043800  1
  H  1624  1  0.57549300  0.62695200  0.68159900  1
  H  1625  1  0.60966600  0.51752800  0.66217100  1
  H  1626  1  0.64069700  0.54989800  0.69297400  1
  H  1627  1  0.68314000  0.59859600  0.68156600  1
  H  1628  1  0.71400600  0.63099500  0.65058100  1
  H  1629  1  0.64918900  0.70817000  0.66237300  1
  H  1630  1  0.61804000  0.67573000  0.69305900  1
  H  1631  1  0.64300600  0.66694000  0.74454500  1
  H  1632  1  0.61083500  0.69631900  0.77688600  1
  H  1633  1  0.53526300  0.62950400  0.76622100  1
  H  1634  1  0.56730300  0.60002300  0.73401600  1
  H  1635  1  0.61567800  0.55872100  0.74457000  1
  H  1636  1  0.69159600  0.62535600  0.73387700  1
  H  1637  1  0.72370600  0.59564300  0.76589800  1
  H  1642  1  0.64780500  0.52925500  0.77681700  1
  H  1668  1  0.04458700  0.13116200  0.77379600  1
  H  1669  1  0.07532900  0.09877810  0.74266800  1
  H  1670  1  0.11015900  0.20783500  0.76275100  1
  H  1671  1  0.14117000  0.17541300  0.73196000  1
  H  1672  1  0.18362700  0.12684800  0.74269700  1
  H  1673  1  0.21447100  0.09446010  0.77370200  1
  H  1674  1  0.14902600  0.01766510  0.76265700  1
  H  1675  1  0.11791000  0.05010710  0.73192900  1
  H  1676  1  0.14295900  0.05824610  0.68041800  1
  H  1677  1  0.11073100  0.02885710  0.64812500  1
  H  1678  1  0.03569500  0.09643810  0.65797100  1
  H  1679  1  0.06778000  0.12589900  0.69017000  1
  H  1680  1  0.11601700  0.16716800  0.68033700  1
  H  1681  1  0.19148000  0.09988410  0.69033200  1
  H  1682  1  0.22360200  0.12954600  0.65827100  1
  H  1687  1  0.14814200  0.19659000  0.64806900  1
  H  1713  1  0.71592400  0.09372610  0.27294600  1
  H  1714  1  0.68526000  0.12616200  0.24180100  1
  H  1715  1  0.64853900  0.01827110  0.26397000  1
  H  1716  1  0.61763200  0.05075610  0.23310900  1
  H  1717  1  0.57507000  0.09906610  0.24189100  1
  H  1718  1  0.54433900  0.13156000  0.27290000  1
  H  1719  1  0.61165400  0.20708200  0.26387800  1
  H  1720  1  0.64263900  0.17453400  0.23309500  1
  H  1721  1  0.61717000  0.16815800  0.18154900  1
  H  1722  1  0.64942300  0.19753700  0.14929900  1
  H  1723  1  0.72315800  0.12816400  0.15701500  1
  H  1724  1  0.69102300  0.09870610  0.18921700  1
  H  1725  1  0.64285400  0.05718310  0.18144400  1
  H  1726  1  0.56906400  0.12665000  0.18941700  1
  H  1727  1  0.53676300  0.09724710  0.15727800  1
  H  1732  1  0.61047000  0.02790810  0.14923300  1
  H  1758  1  0.89755600  0.94689400  0.52600800  1
  H  1759  1  0.86533500  0.91735100  0.49380900  1
  H  1760  1  0.97315100  0.88009100  0.51544000  1
  H  1761  1  0.94106700  0.85045400  0.48338100  1
  H  1762  1  0.89294800  0.80925300  0.49421600  1
  H  1763  1  0.86106700  0.77986000  0.52667900  1
  H  1764  1  0.78482100  0.84582700  0.51560900  1
  H  1765  1  0.81669700  0.87548300  0.48337000  1
  H  1766  1  0.82507500  0.84861400  0.43109700  1
  H  1767  1  0.79421100  0.88076800  0.39987100  1
  H  1768  1  0.85895900  0.95805500  0.41136400  1
  H  1769  1  0.89010100  0.92586500  0.44221700  1
  H  1770  1  0.93263000  0.87720500  0.43088600  1
  H  1771  1  0.86778600  0.79993700  0.44275900  1
  H  1772  1  0.89904900  0.76739700  0.41223100  1
  H  1777  1  0.96360800  0.84470800  0.40006700  1
  H  1803  1  0.86208200  0.27833300  0.02591060  1
  H  1804  1  0.89422300  0.30783800  0.99363100  1
  H  1805  1  0.78659100  0.34532200  0.01564860  1
  H  1806  1  0.81859800  0.37491400  0.98350000  1
  H  1807  1  0.86662200  0.41615400  0.99403500  1
  H  1808  1  0.89848100  0.44555700  0.02649960  1
  H  1809  1  0.97463400  0.37942800  0.01566260  1
  H  1810  1  0.94276900  0.34976600  0.98341000  1
  H  1811  1  0.93451700  0.37671300  0.93111600  1
  H  1812  1  0.96536900  0.34461500  0.89984400  1
  H  1813  1  0.90053700  0.26736100  0.91113500  1
  H  1814  1  0.86940700  0.29949600  0.94204900  1
  H  1815  1  0.82676100  0.34808300  0.93100400  1
  H  1816  1  0.89177400  0.42527600  0.94253200  1
  H  1817  1  0.86046300  0.45777500  0.91200400  1
  H  1822  1  0.79572800  0.38053900  0.90019200  1
  H  1848  1  0.39775900  0.77825300  0.89912700  1
  H  1849  1  0.36552100  0.80780600  0.93130800  1
  H  1850  1  0.47279800  0.84588000  0.90873500  1
  H  1851  1  0.44070900  0.87549500  0.94082400  1
  H  1852  1  0.39282000  0.91680300  0.93101600  1
  H  1853  1  0.36098200  0.94624500  0.89856500  1
  H  1854  1  0.28523400  0.87948500  0.90859200  1
  H  1855  1  0.31707800  0.84979000  0.94084500  1
  H  1856  1  0.32466500  0.87673700  0.99319900  1
  H  1857  1  0.29382700  0.84452200  0.02439760  1
  H  1858  1  0.35939500  0.76776600  0.01376460  1
  H  1859  1  0.39049200  0.80001500  0.98290800  1
  H  1860  1  0.43311500  0.84840600  0.99330800  1
  H  1861  1  0.36751100  0.92525400  0.98256400  1
  H  1862  1  0.39874700  0.95767100  0.01323360  1
  H  1867  1  0.46408400  0.88078500  0.02423160  1
  H  1893  1  0.36208600  0.44700600  0.39854000  1
  H  1894  1  0.39430000  0.41753300  0.43079300  1
  H  1895  1  0.28665600  0.37997800  0.40891200  1
  H  1896  1  0.31872800  0.35042100  0.44103400  1
  H  1897  1  0.36675200  0.30920000  0.43052200  1
  H  1898  1  0.39862600  0.27972700  0.39811000  1
  H  1899  1  0.47477300  0.34588300  0.40886400  1
  H  1900  1  0.44289700  0.37561600  0.44106100  1
  H  1901  1  0.43469500  0.34879800  0.49336800  1
  H  1902  1  0.46550900  0.38096900  0.52461700  1
  H  1903  1  0.40058000  0.45813000  0.51326500  1
  H  1904  1  0.36948900  0.42592800  0.48237400  1
  H  1905  1  0.32690100  0.37733100  0.49349900  1
  H  1906  1  0.39197700  0.30017900  0.48201800  1
  H  1907  1  0.36070000  0.26768500  0.51257500  1
  H  1912  1  0.29590200  0.34487800  0.52434200  1
  H  1920  1  0.05352900  0.47072600  0.02910160  1
  H  1921  1  0.01459700  0.47575400  0.01591260  1
  H  1922  1  0.02536400  0.43990300  0.03394960  1
  H  1924  1  0.08379200  0.51905900  0.08628360  1
  H  1925  1  0.07177100  0.51802500  0.05134060  1
  H  1926  1  0.08267600  0.48194900  0.06928660  1
  H  1928  1  0.92247400  0.46269300  0.08721660  1
  H  1929  1  0.92132500  0.50097300  0.10273300  1
  H  1930  1  0.93514700  0.46669200  0.12156600  1
  H  1932  1  0.99130100  0.53336700  0.14997800  1
  H  1933  1  0.96683700  0.49923300  0.15054500  1
  H  1934  1  0.95424400  0.53454000  0.13250200  1
  H  1936  1  0.03353800  0.56053700  0.11090000  1
  H  1938  1  0.94755600  0.47784600  0.03695360  1
  H  1946  1  0.70598300  0.75468100  0.52917500  1
  H  1947  1  0.74491900  0.74965500  0.51600200  1
  H  1948  1  0.73414700  0.78550400  0.53403900  1
  H  1950  1  0.67562600  0.70654700  0.58644400  1
  H  1951  1  0.68761500  0.70748600  0.55148900  1
  H  1952  1  0.67683800  0.74362100  0.56940100  1
  H  1954  1  0.83702800  0.76262900  0.58731700  1
  H  1955  1  0.83816600  0.72432400  0.60278900  1
  H  1956  1  0.82436100  0.75858100  0.62166100  1
  H  1958  1  0.76818000  0.69188500  0.65000000  1
  H  1959  1  0.79266800  0.72600200  0.65061500  1
  H  1960  1  0.80522500  0.69072600  0.63250900  1
  H  1962  1  0.72571500  0.66488900  0.61087000  1
  H  1964  1  0.81198500  0.74751000  0.53707300  1
  H  1972  1  0.20602500  0.97102000  0.89543800  1
  H  1973  1  0.24492100  0.97612100  0.90868500  1
  H  1974  1  0.23424700  0.94023500  0.89065900  1
  H  1976  1  0.17584000  0.01933410  0.83821700  1
  H  1977  1  0.18781400  0.01831510  0.87317000  1
  H  1978  1  0.17694800  0.98222900  0.85522300  1
  H  1980  1  0.33720900  0.96309100  0.83753600  1
  H  1981  1  0.33834000  0.00134312  0.82197200  1
  H  1982  1  0.32460200  0.96701300  0.80316200  1
  H  1984  1  0.26840700  0.03358210  0.77459600  1
  H  1985  1  0.29291400  0.99947600  0.77409800  1
  H  1986  1  0.30543400  0.03482510  0.79211600  1
  H  1988  1  0.22610500  0.06079210  0.81359500  1
  H  1990  1  0.31190700  0.97824600  0.88781100  1
  H  1998  1  0.55369600  0.25445700  0.39552300  1
  H  1999  1  0.51478200  0.24942600  0.40875600  1
  H  2000  1  0.52552000  0.28527000  0.39069800  1
  H  2002  1  0.58381100  0.20586000  0.33845000  1
  H  2003  1  0.57177400  0.20703600  0.37337800  1
  H  2004  1  0.58280900  0.24302800  0.35536600  1
  H  2006  1  0.42254900  0.26247800  0.33754600  1
  H  2007  1  0.42139700  0.22422000  0.32199600  1
  H  2008  1  0.43518500  0.25852900  0.30318400  1
  H  2010  1  0.49132500  0.19190700  0.27466000  1
  H  2011  1  0.46686600  0.22604400  0.27415600  1
  H  2012  1  0.45428000  0.19070400  0.29215500  1
  H  2014  1  0.53338400  0.16461500  0.31353800  1
  H  2016  1  0.44776400  0.24741600  0.38780200  1
  H  2024  1  0.30331900  0.22078600  0.64547500  1
  H  2025  1  0.26440500  0.22603900  0.65863500  1
  H  2026  1  0.27497400  0.19013400  0.64059200  1
  H  2028  1  0.33392200  0.26900300  0.58834800  1
  H  2029  1  0.32186300  0.26801600  0.62328400  1
  H  2030  1  0.33257200  0.23189100  0.60532700  1
  H  2032  1  0.17227500  0.21360100  0.58725800  1
  H  2033  1  0.17138700  0.25189200  0.57176100  1
  H  2034  1  0.18501300  0.21753700  0.55292400  1
  H  2036  1  0.24161000  0.28389300  0.52459600  1
  H  2037  1  0.21692700  0.24991800  0.52399600  1
  H  2038  1  0.20453900  0.28529400  0.54204300  1
  H  2040  1  0.28386600  0.31086200  0.56386300  1
  H  2042  1  0.19746200  0.22846100  0.63760300  1
  H  2050  1  0.80974800  0.01209610  0.28440700  1
  H  2051  1  0.77073300  0.01627210  0.27116700  1
  H  2052  1  0.78705300  0.04580510  0.29396800  1
  H  2054  1  0.83104800  0.94977800  0.33383100  1
  H  2055  1  0.81997700  0.95980600  0.29988900  1
  H  2056  1  0.83614200  0.98958800  0.32279400  1
  H  2058  1  0.67714800  0.02495710  0.34001900  1
  H  2059  1  0.67237500  0.98535900  0.35164300  1
  H  2060  1  0.68806900  0.01563210  0.37413600  1
  H  2062  1  0.73572900  0.93911200  0.39593300  1
  H  2063  1  0.71500400  0.97538900  0.39989600  1
  H  2064  1  0.69981000  0.94475000  0.37752100  1
  H  2066  1  0.77943500  0.91547200  0.36150300  1
  H  2068  1  0.72885500  0.05994110  0.31273200  1
  H  2076  1  0.45611100  0.72096100  0.77831500  1
  H  2077  1  0.49508300  0.72997100  0.76689000  1
  H  2078  1  0.48575100  0.69120900  0.78049600  1
  H  2080  1  0.42144800  0.75881100  0.83922100  1
  H  2081  1  0.43488600  0.76262000  0.80501000  1
  H  2082  1  0.42487700  0.72397000  0.81890500  1
  H  2084  1  0.58749200  0.71648400  0.83693800  1
  H  2085  1  0.58382600  0.75115700  0.85741000  1
  H  2086  1  0.57444000  0.71244900  0.87121800  1
  H  2088  1  0.51131300  0.76675500  0.90737900  1
  H  2089  1  0.53861000  0.73499700  0.90392300  1
  H  2090  1  0.54810000  0.77404400  0.89089400  1
  H  2092  1  0.44811200  0.74643300  0.88834200  1
  H  2094  1  0.56100400  0.72832800  0.78831000  1
  H  2102  1  0.05231400  0.97170800  0.52728700  1
  H  2103  1  0.01333300  0.98071500  0.51587900  1
  H  2104  1  0.02267500  0.94195500  0.52948100  1
  H  2106  1  0.08699400  0.00961512  0.58816500  1
  H  2107  1  0.07353200  0.01339510  0.55395900  1
  H  2108  1  0.08358600  0.97476100  0.56786100  1
  H  2110  1  0.92094600  0.96729800  0.58594800  1
  H  2111  1  0.92465800  0.00195412  0.60643500  1
  H  2112  1  0.93400900  0.96322800  0.62022400  1
  H  2114  1  0.99718900  0.01747410  0.65638700  1
  H  2115  1  0.96987100  0.98573800  0.65292300  1
  H  2116  1  0.96040500  0.02479710  0.63991300  1
  H  2118  1  0.06037100  0.99708300  0.63730500  1
  H  2120  1  0.94743100  0.97898800  0.53731000  1
  H  2128  1  0.70737700  0.25375600  0.02758960  1
  H  2129  1  0.74633200  0.24474500  0.01613160  1
  H  2130  1  0.73702400  0.28350400  0.02975160  1
  H  2132  1  0.67271800  0.21611500  0.08859660  1
  H  2133  1  0.68606000  0.21221900  0.05436160  1
  H  2134  1  0.67621300  0.25091600  0.06824260  1
  H  2136  1  0.83882800  0.25815400  0.08610260  1
  H  2137  1  0.83518800  0.22341100  0.10649100  1
  H  2138  1  0.82583100  0.26207200  0.12040900  1
  H  2140  1  0.76276000  0.20764500  0.15650800  1
  H  2141  1  0.79004000  0.23943900  0.15312700  1
  H  2142  1  0.79952000  0.20045400  0.13995900  1
  H  2144  1  0.69975400  0.22845200  0.13779700  1
  H  2146  1  0.81230400  0.24636600  0.03749360  1
  H  2154  1  0.20733600  0.47151100  0.39704800  1
  H  2155  1  0.24629300  0.48057700  0.40847900  1
  H  2156  1  0.23701900  0.44180100  0.39487700  1
  H  2158  1  0.17265400  0.50936500  0.33615000  1
  H  2159  1  0.18608800  0.51317200  0.37036100  1
  H  2160  1  0.17609500  0.47452000  0.35646200  1
  H  2162  1  0.33874500  0.46721900  0.33845600  1
  H  2163  1  0.33501900  0.50186700  0.31796100  1
  H  2164  1  0.32570300  0.46313000  0.30417600  1
  H  2166  1  0.26250100  0.51731100  0.26797300  1
  H  2167  1  0.28984400  0.48559900  0.27145600  1
  H  2168  1  0.29927100  0.52467200  0.28446100  1
  H  2170  1  0.19932300  0.49692700  0.28703100  1
  H  2172  1  0.31220200  0.47895400  0.38709800  1
  H  2180  1  0.30975800  0.71338700  0.14022500  1
  H  2181  1  0.27074200  0.70921200  0.15347200  1
  H  2182  1  0.28705200  0.67968500  0.13065900  1
  H  2184  1  0.33098500  0.77583600  0.09089660  1
  H  2185  1  0.31990400  0.76573000  0.12481800  1
  H  2186  1  0.33614200  0.73601300  0.10188900  1
  H  2188  1  0.17713500  0.70057300  0.08464860  1
  H  2189  1  0.17239300  0.74014400  0.07295860  1
  H  2190  1  0.18807600  0.70981800  0.05051360  1
  H  2192  1  0.23576600  0.78631100  0.02865160  1
  H  2193  1  0.21503100  0.75003600  0.02472960  1
  H  2194  1  0.19983600  0.78071700  0.04706160  1
  H  2196  1  0.27934300  0.81003800  0.06307360  1
  H  2198  1  0.22878200  0.66552700  0.11172900  1
  H  2206  1  0.80299800  0.50453200  0.77904000  1
  H  2207  1  0.76404300  0.49937700  0.76594400  1
  H  2208  1  0.77474500  0.53526400  0.78395400  1
  H  2210  1  0.83364000  0.45642000  0.83621500  1
  H  2211  1  0.82154200  0.45735000  0.80128700  1
  H  2212  1  0.83229500  0.49350200  0.81918600  1
  H  2214  1  0.67206400  0.51201400  0.83742700  1
  H  2215  1  0.67113100  0.47372500  0.85293300  1
  H  2216  1  0.68484500  0.50806300  0.87174900  1
  H  2218  1  0.74138100  0.44163400  0.90003400  1
  H  2219  1  0.71675300  0.47564800  0.90065200  1
  H  2220  1  0.70428300  0.44028400  0.88262800  1
  H  2222  1  0.78356300  0.41460300  0.86074700  1
  H  2224  1  0.69705600  0.49707400  0.78713300  1
  H  2232  1  0.56060300  0.46286200  0.53532300  1
  H  2233  1  0.52162400  0.45882300  0.52196700  1
  H  2234  1  0.53773100  0.42926100  0.54485400  1
  H  2236  1  0.58186000  0.52532200  0.58463600  1
  H  2237  1  0.57086800  0.51521300  0.55069100  1
  H  2238  1  0.58691500  0.48547100  0.57369400  1
  H  2240  1  0.42774600  0.45056600  0.59056200  1
  H  2241  1  0.42308300  0.49017100  0.60218700  1
  H  2242  1  0.43859600  0.45983800  0.62471300  1
  H  2244  1  0.48645100  0.53621600  0.64660400  1
  H  2245  1  0.46558300  0.50001700  0.65051500  1
  H  2246  1  0.45056300  0.53071300  0.62810700  1
  H  2248  1  0.53016900  0.55980400  0.61210300  1
  H  2250  1  0.47926800  0.41535200  0.56361100  1
  H  2258  1  0.06054800  0.26264400  0.88927400  1
  H  2259  1  0.02153900  0.26668700  0.90256700  1
  H  2260  1  0.03772100  0.29627400  0.87974300  1
  H  2262  1  0.08187200  0.20022500  0.83994800  1
  H  2263  1  0.07079700  0.21030100  0.87387800  1
  H  2264  1  0.08693600  0.24005700  0.85093700  1
  H  2266  1  0.92784600  0.27514100  0.83379200  1
  H  2267  1  0.92318200  0.23556500  0.82209200  1
  H  2268  1  0.93878700  0.26593100  0.79964900  1
  H  2270  1  0.98664200  0.18956200  0.77774200  1
  H  2271  1  0.96581300  0.22578300  0.77384800  1
  H  2272  1  0.95070400  0.19504900  0.79616800  1
  H  2274  1  0.03016000  0.16583000  0.81231800  1
  H  2276  1  0.97932200  0.31025100  0.86092000  1
  H  2284  1  0.95625600  0.72056200  0.27907900  1
  H  2285  1  0.99516800  0.72582400  0.26592000  1
  H  2286  1  0.98460100  0.68990300  0.28394000  1
  H  2288  1  0.92563600  0.76862900  0.33629200  1
  H  2289  1  0.93767100  0.76772800  0.30134700  1
  H  2290  1  0.92702200  0.73155500  0.31925700  1
  H  2292  1  0.08729800  0.71330200  0.33728300  1
  H  2293  1  0.08819700  0.75158200  0.35281000  1
  H  2294  1  0.07456700  0.71721000  0.37162600  1
  H  2296  1  0.01796900  0.78355200  0.39999200  1
  H  2297  1  0.04265400  0.74958000  0.40057700  1
  H  2298  1  0.05504100  0.78496800  0.38254800  1
  H  2300  1  0.97567000  0.81056200  0.36066400  1
  H  2302  1  0.06211000  0.72826500  0.28694600  1
  H  2310  1  0.55718600  0.96193400  0.03282260  1
  H  2311  1  0.51731500  0.96217100  0.02099560  1
  H  2312  1  0.53272700  0.92855800  0.03969160  1
  H  2314  1  0.58538300  0.01420410  0.08823160  1
  H  2315  1  0.57249300  0.00977012  0.05395960  1
  H  2316  1  0.58749000  0.97587500  0.07285060  1
  H  2318  1  0.42540600  0.95420500  0.08979660  1
  H  2319  1  0.42570600  0.99134200  0.10675400  1
  H  2320  1  0.43751800  0.95568600  0.12468000  1
  H  2322  1  0.49446500  0.02244010  0.15433800  1
  H  2323  1  0.47042800  0.98776500  0.15508700  1
  H  2324  1  0.45765900  0.02286810  0.13684200  1
  H  2326  1  0.55921700  0.99712900  0.14000800  1
  H  2328  1  0.47505100  0.91421400  0.06451760  1
  C  1  1  0.06985400  0.18365500  0.19014500  1
  C  2  1  0.05846700  0.15491300  0.17784700  1
  C  3  1  0.07747800  0.13769100  0.15850500  1
  C  4  1  0.10861300  0.14849200  0.15006000  1
  C  5  1  0.12061300  0.17602400  0.16448400  1
  C  6  1  0.10163700  0.19355900  0.18361000  1
  C  7  1  0.13011000  0.12963800  0.12960700  1
  C  8  1  0.15155300  0.11077500  0.15008700  1
  C  9  1  0.18259600  0.12170800  0.15863700  1
  C  10  1  0.20158800  0.10454700  0.17801700  1
  C  11  1  0.19030200  0.07569600  0.19018800  1
  C  12  1  0.15862500  0.06560500  0.18353900  1
  C  13  1  0.13961000  0.08315800  0.16444100  1
  C  14  1  0.11111700  0.10829600  0.10915300  1
  C  15  1  0.14916500  0.15097500  0.10917100  1
  C  16  1  0.17661900  0.13872100  0.09479100  1
  C  17  1  0.19477000  0.15774600  0.07611000  1
  C  18  1  0.18557300  0.18985300  0.06997400  1
  C  19  1  0.15732000  0.20179400  0.08272900  1
  C  20  1  0.13923600  0.18258500  0.10131300  1
  C  21  1  0.08370400  0.12058000  0.09474700  1
  C  22  1  0.06551800  0.10152800  0.07613000  1
  C  23  1  0.07467800  0.06939500  0.07003300  1
  C  24  1  0.10291900  0.05743300  0.08278000  1
  C  25  1  0.12104300  0.07667600  0.10130900  1
  C  46  1  0.68961000  0.07558000  0.69020100  1
  C  47  1  0.70114800  0.10416100  0.67773000  1
  C  48  1  0.68215200  0.12143200  0.65841000  1
  C  49  1  0.65085500  0.11086300  0.65018700  1
  C  50  1  0.63872900  0.08351200  0.66479100  1
  C  51  1  0.65769300  0.06592000  0.68388800  1
  C  52  1  0.62935500  0.12973800  0.62974600  1
  C  53  1  0.60790500  0.14860400  0.65022100  1
  C  54  1  0.57669300  0.13789500  0.65852700  1
  C  55  1  0.55773900  0.15503600  0.67794700  1
  C  56  1  0.56921400  0.18365500  0.69039200  1
  C  57  1  0.60101700  0.19352600  0.68395900  1
  C  58  1  0.61998400  0.17599800  0.66480800  1
  C  59  1  0.64836100  0.15109800  0.60930900  1
  C  60  1  0.61031100  0.10838700  0.60931100  1
  C  61  1  0.58306700  0.12076600  0.59471000  1
  C  62  1  0.56491000  0.10176700  0.57601300  1
  C  63  1  0.57389400  0.06954700  0.57008600  1
  C  64  1  0.60197600  0.05748100  0.58303300  1
  C  65  1  0.62006100  0.07666000  0.60163900  1
  C  66  1  0.67557800  0.13870200  0.59470200  1
  C  67  1  0.69378100  0.15773300  0.57608100  1
  C  68  1  0.68483500  0.18997800  0.57019200  1
  C  69  1  0.65679700  0.20208400  0.58316700  1
  C  70  1  0.63865600  0.18286500  0.60170100  1
  C  91  1  0.18974000  0.68383100  0.56766100  1
  C  92  1  0.20114300  0.65508000  0.57993300  1
  C  93  1  0.18214300  0.63783500  0.59926800  1
  C  94  1  0.15100900  0.64861900  0.60773700  1
  C  95  1  0.13898500  0.67613800  0.59330800  1
  C  96  1  0.15794900  0.69370400  0.57419400  1
  C  97  1  0.12952800  0.62973900  0.62818200  1
  C  98  1  0.10808200  0.61086700  0.60771400  1
  C  99  1  0.07705000  0.62181000  0.59914100  1
  C  100  1  0.05807000  0.60467100  0.57973500  1
  C  101  1  0.06936900  0.57584300  0.56753800  1
  C  102  1  0.10103700  0.56574000  0.57420400  1
  C  103  1  0.12003600  0.58327500  0.59332900  1
  C  104  1  0.14855100  0.60840800  0.64862100  1
  C  105  1  0.11046900  0.65106800  0.64861600  1
  C  106  1  0.08303000  0.63880800  0.66301400  1
  C  107  1  0.06488900  0.65782300  0.68171100  1
  C  108  1  0.07407400  0.68993600  0.68783600  1
  C  109  1  0.10233200  0.70187500  0.67508600  1
  C  110  1  0.12041200  0.68266900  0.65649700  1
  C  111  1  0.17594700  0.62072100  0.66303500  1
  C  112  1  0.19413000  0.60170300  0.68168000  1
  C  113  1  0.18499200  0.56956900  0.68779200  1
  C  114  1  0.15677600  0.55757200  0.67503000  1
  C  115  1  0.13864800  0.57678500  0.65648100  1
  C  136  1  0.56970600  0.57580000  0.06776300  1
  C  137  1  0.55887600  0.60512100  0.07939900  1
  C  138  1  0.57797400  0.62223300  0.09874700  1
  C  139  1  0.60861600  0.61075300  0.10784700  1
  C  140  1  0.62016500  0.58262800  0.09401500  1
  C  141  1  0.60107300  0.56518000  0.07491100  1
  C  142  1  0.63010600  0.62959400  0.12830300  1
  C  143  1  0.65146700  0.64849100  0.10779700  1
  C  144  1  0.68207000  0.63704000  0.09860000  1
  C  145  1  0.70106800  0.65419600  0.07921700  1
  C  146  1  0.69017800  0.68352900  0.06764200  1
  C  147  1  0.65885500  0.69415100  0.07490700  1
  C  148  1  0.63984200  0.67663600  0.09403000  1
  C  149  1  0.61110100  0.65084800  0.14880300  1
  C  150  1  0.64921600  0.60830600  0.14872400  1
  C  151  1  0.67716500  0.62027600  0.16256100  1
  C  152  1  0.69525500  0.60124700  0.18128300  1
  C  153  1  0.68549700  0.56947200  0.18802900  1
  C  154  1  0.65676100  0.55788100  0.17585200  1
  C  155  1  0.63872900  0.57711100  0.15724300  1
  C  156  1  0.58318800  0.63885200  0.16266200  1
  C  157  1  0.56506200  0.65792000  0.18130700  1
  C  158  1  0.57479300  0.68971900  0.18801700  1
  C  159  1  0.60350700  0.70133600  0.17583100  1
  C  160  1  0.62157100  0.68207000  0.15727600  1
  C  181  1  0.93458900  0.31954700  0.31987700  1
  C  182  1  0.90658000  0.30744600  0.33290800  1
  C  183  1  0.88836200  0.32673400  0.35134100  1
  C  184  1  0.89795000  0.35858900  0.35878800  1
  C  185  1  0.92515000  0.37096000  0.34413900  1
  C  186  1  0.94342400  0.35186200  0.32562100  1
  C  187  1  0.87892500  0.38000700  0.37917700  1
  C  188  1  0.85979700  0.40122200  0.35870500  1
  C  189  1  0.86947000  0.43294200  0.35093900  1
  C  190  1  0.85131900  0.45201200  0.33230200  1
  C  191  1  0.82326200  0.43983000  0.31940000  1
  C  192  1  0.81434900  0.40761600  0.32542300  1
  C  193  1  0.83256000  0.38873100  0.34416800  1
  C  194  1  0.85758000  0.36116800  0.39975000  1
  C  195  1  0.90044000  0.39900300  0.39952700  1
  C  196  1  0.88837100  0.42644900  0.41405300  1
  C  197  1  0.90737000  0.44407300  0.43312100  1
  C  198  1  0.93919700  0.43425800  0.43953800  1
  C  199  1  0.95066200  0.40559400  0.42716500  1
  C  200  1  0.93167600  0.38835900  0.40782800  1
  C  201  1  0.86988300  0.33397800  0.41446400  1
  C  202  1  0.85106600  0.31642900  0.43369000  1
  C  203  1  0.81912900  0.32599300  0.44002700  1
  C  204  1  0.80740800  0.35442700  0.42743800  1
  C  205  1  0.82626600  0.37165800  0.40799100  1
  C  226  1  0.82482700  0.93956900  0.81983400  1
  C  227  1  0.85290900  0.95166000  0.83275400  1
  C  228  1  0.87115800  0.93239900  0.85118100  1
  C  229  1  0.86153100  0.90059200  0.85874300  1
  C  230  1  0.83428500  0.88820700  0.84416800  1
  C  231  1  0.81596800  0.90728300  0.82566100  1
  C  232  1  0.88061100  0.87920600  0.87911700  1
  C  233  1  0.89975200  0.85801400  0.85863900  1
  C  234  1  0.89005000  0.82633100  0.85079500  1
  C  235  1  0.90819100  0.80729500  0.83212300  1
  C  236  1  0.93627000  0.81948900  0.81926300  1
  C  237  1  0.94520400  0.85167900  0.82535400  1
  C  238  1  0.92699600  0.87053000  0.84412700  1
  C  239  1  0.90196200  0.89807800  0.89965600  1
  C  240  1  0.85915400  0.86018800  0.89949400  1
  C  241  1  0.87121800  0.83269800  0.91395600  1
  C  242  1  0.85227300  0.81510300  0.93308000  1
  C  243  1  0.82050300  0.82499600  0.93962600  1
  C  244  1  0.80904100  0.85368600  0.92729700  1
  C  245  1  0.82798100  0.87090000  0.90791600  1
  C  246  1  0.88967600  0.92531700  0.91431600  1
  C  247  1  0.90848100  0.94287300  0.93354700  1
  C  248  1  0.94038100  0.93325600  0.93996100  1
  C  249  1  0.95207500  0.90477300  0.92743400  1
  C  250  1  0.93322700  0.88753600  0.90798500  1
  C  271  1  0.43467600  0.43963200  0.93834200  1
  C  272  1  0.40645100  0.45166000  0.92561000  1
  C  273  1  0.38824100  0.43245100  0.90710800  1
  C  274  1  0.39803700  0.40078000  0.89929800  1
  C  275  1  0.42546200  0.38845100  0.91365800  1
  C  276  1  0.44373800  0.40747100  0.93223400  1
  C  277  1  0.37894900  0.37946800  0.87887400  1
  C  278  1  0.35979200  0.35826800  0.89933100  1
  C  279  1  0.36971100  0.32671300  0.90735600  1
  C  280  1  0.35158000  0.30761300  0.92598700  1
  C  281  1  0.32329000  0.31962400  0.93862800  1
  C  282  1  0.31413200  0.35171000  0.93236600  1
  C  283  1  0.33233800  0.37062900  0.91364300  1
  C  284  1  0.35764900  0.39839400  0.85833500  1
  C  285  1  0.40039600  0.36047800  0.85847200  1
  C  286  1  0.38844300  0.33281300  0.84419100  1
  C  287  1  0.40744900  0.31518700  0.82513200  1
  C  288  1  0.43912200  0.32525100  0.81843200  1
  C  289  1  0.45042100  0.35413800  0.83052900  1
  C  290  1  0.43143700  0.37137300  0.84986800  1
  C  291  1  0.36984100  0.42584800  0.84392100  1
  C  292  1  0.35105300  0.44341200  0.82468400  1
  C  293  1  0.31926200  0.43363500  0.81805500  1
  C  294  1  0.30769300  0.40495600  0.83033100  1
  C  295  1  0.32652400  0.38769200  0.84977700  1
  C  316  1  0.32504100  0.81978400  0.43806900  1
  C  317  1  0.35312800  0.80769800  0.42514900  1
  C  318  1  0.37135600  0.82695700  0.40670300  1
  C  319  1  0.36170200  0.85875100  0.39912700  1
  C  320  1  0.33443200  0.87112200  0.41368000  1
  C  321  1  0.31614600  0.85205400  0.43221300  1
  C  322  1  0.38074600  0.88011600  0.37871300  1
  C  323  1  0.39987700  0.90134800  0.39916600  1
  C  324  1  0.39014600  0.93303600  0.40697200  1
  C  325  1  0.40826300  0.95211400  0.42563000  1
  C  326  1  0.43634700  0.93995800  0.43850900  1
  C  327  1  0.44533700  0.90778300  0.43242600  1
  C  328  1  0.42715000  0.88888800  0.41367400  1
  C  329  1  0.40208200  0.86122700  0.35817200  1
  C  330  1  0.35926000  0.89909000  0.35833000  1
  C  331  1  0.37129300  0.92657100  0.34383700  1
  C  332  1  0.35230700  0.94414600  0.32472700  1
  C  333  1  0.32052200  0.93424600  0.31824000  1
  C  334  1  0.30910600  0.90554100  0.33057300  1
  C  335  1  0.32808200  0.88835200  0.34994500  1
  C  336  1  0.38980100  0.83394700  0.34356400  1
  C  337  1  0.40861300  0.81635400  0.32436400  1
  C  338  1  0.44052100  0.82595000  0.31795600  1
  C  339  1  0.45221000  0.85446400  0.33043300  1
  C  340  1  0.43335700  0.87174200  0.34985100  1
  C  361  1  0.02159800  0.03029500  0.01954900  1
  C  362  1  0.03536400  0.01629600  0.99506100  1
  C  363  1  0.01556700  0.99717700  0.97696200  1
  C  364  1  0.98244700  0.99166800  0.98388900  1
  C  365  1  0.96956200  0.00327600  0.00960600  1
  C  366  1  0.98914200  0.02292600  0.02742000  1
  C  367  1  0.02822100  0.98306000  0.95018800  1
  C  371  1  0.07018700  0.02202600  0.98776600  1
  C  375  1  0.93535200  0.99568000  0.01802700  1
  C  379  1  0.97484400  0.03603300  0.05396900  1
  C  383  1  0.03799500  0.05493400  0.03351600  1
  C  385  1  0.96140500  0.97910700  0.96380000  1
  C  387  1  0.73786600  0.22900900  0.51963300  1
  C  388  1  0.72410700  0.24305600  0.49516100  1
  C  389  1  0.74392900  0.26213400  0.47704900  1
  C  390  1  0.77705600  0.26760500  0.48397400  1
  C  391  1  0.78993400  0.25597100  0.50968300  1
  C  392  1  0.77033900  0.23632300  0.52748700  1
  C  393  1  0.73129000  0.27625600  0.45027300  1
  C  397  1  0.68926000  0.23742100  0.48789700  1
  C  401  1  0.82414600  0.26353500  0.51810800  1
  C  405  1  0.78464000  0.22314700  0.55400900  1
  C  409  1  0.72141400  0.20439700  0.53358300  1
  C  411  1  0.79810900  0.28015900  0.46389100  1
  C  413  1  0.23806300  0.53057200  0.73834700  1
  C  414  1  0.22426700  0.51658800  0.76283200  1
  C  415  1  0.24404400  0.49750300  0.78097300  1
  C  416  1  0.27717900  0.49200600  0.77408500  1
  C  417  1  0.29010300  0.50359700  0.74838200  1
  C  418  1  0.27053400  0.52320600  0.73052600  1
  C  419  1  0.23135000  0.48339100  0.80773400  1
  C  423  1  0.18943100  0.52231000  0.77008800  1
  C  427  1  0.32433800  0.49603500  0.74002400  1
  C  431  1  0.28486200  0.53628700  0.70397900  1
  C  435  1  0.22165600  0.55517600  0.72434500  1
  C  437  1  0.29817400  0.47947600  0.79422400  1
  C  439  1  0.52165000  0.72877100  0.23845500  1
  C  440  1  0.53544400  0.74272800  0.26295000  1
  C  441  1  0.51569000  0.76189100  0.28104700  1
  C  442  1  0.48257400  0.76743600  0.27412900  1
  C  443  1  0.46964100  0.75582800  0.24843400  1
  C  444  1  0.48919700  0.73618100  0.23059900  1
  C  445  1  0.52837900  0.77602200  0.30780300  1
  C  449  1  0.57024200  0.73689800  0.27026600  1
  C  453  1  0.43542000  0.76342700  0.24005100  1
  C  457  1  0.47487700  0.72312600  0.20403800  1
  C  461  1  0.53801800  0.70415500  0.22443200  1
  C  463  1  0.46157200  0.78004400  0.29422600  1
  C  465  1  0.27171800  0.78063800  0.48838200  1
  C  466  1  0.28537400  0.76652100  0.51286700  1
  C  467  1  0.26544800  0.74748900  0.53093100  1
  C  468  1  0.23230700  0.74216100  0.52397300  1
  C  469  1  0.21951900  0.75388400  0.49825900  1
  C  470  1  0.23923100  0.77344800  0.48047800  1
  C  471  1  0.27799000  0.73327500  0.55770500  1
  C  475  1  0.32022100  0.77204200  0.52018900  1
  C  479  1  0.18527300  0.74651100  0.48980700  1
  C  483  1  0.22504500  0.78665900  0.45392500  1
  C  487  1  0.28823600  0.80527100  0.47450100  1
  C  489  1  0.21117600  0.72966400  0.54402800  1
  C  491  1  0.77066800  0.48028500  0.26937500  1
  C  492  1  0.78646100  0.49535100  0.24628800  1
  C  493  1  0.77006400  0.52002500  0.23085100  1
  C  494  1  0.73787100  0.52905600  0.23833000  1
  C  495  1  0.72206100  0.51393100  0.26133300  1
  C  496  1  0.73854500  0.48945500  0.27693500  1
  C  497  1  0.78550000  0.53689800  0.20641500  1
  C  501  1  0.82011000  0.48568500  0.23795300  1
  C  505  1  0.68822100  0.52331700  0.26953900  1
  C  509  1  0.72161400  0.47396900  0.30131500  1
  C  513  1  0.78563000  0.45479700  0.28343000  1
  C  515  1  0.72289000  0.55448300  0.22408200  1
  C  517  1  0.48288400  0.26831000  0.77466000  1
  C  518  1  0.47104900  0.25889300  0.74787200  1
  C  519  1  0.49263600  0.24468700  0.72801200  1
  C  520  1  0.52588200  0.24017200  0.73505900  1
  C  521  1  0.53771900  0.24965200  0.76179400  1
  C  522  1  0.51608800  0.26361000  0.78174500  1
  C  523  1  0.48149700  0.23403100  0.69956900  1
  C  527  1  0.43625300  0.26412900  0.74006800  1
  C  531  1  0.57266200  0.24483600  0.76954000  1
  C  535  1  0.52894200  0.27312100  0.80994900  1
  C  539  1  0.46124300  0.27961300  0.79475500  1
  C  541  1  0.54750800  0.22900500  0.71480800  1
  C  543  1  0.02559100  0.51904200  0.52364600  1
  C  544  1  0.03740500  0.50964700  0.49684600  1
  C  545  1  0.01580900  0.49543300  0.47699900  1
  C  546  1  0.98256800  0.49090900  0.48406300  1
  C  547  1  0.97074300  0.50040900  0.51079600  1
  C  548  1  0.99238600  0.51435600  0.53074500  1
  C  549  1  0.02692900  0.48477700  0.44855200  1
  C  553  1  0.07219100  0.51491200  0.48902400  1
  C  557  1  0.93579700  0.49562200  0.51855000  1
  C  561  1  0.97954900  0.52386000  0.55895500  1
  C  565  1  0.04724600  0.53029200  0.54374900  1
  C  567  1  0.96093200  0.47969100  0.46383700  1
  C  569  1  0.73422700  0.74029900  0.02390400  1
  C  570  1  0.72235300  0.74976400  0.99714300  1
  C  571  1  0.74393300  0.76392900  0.97725400  1
  C  572  1  0.77719800  0.76840700  0.98426400  1
  C  573  1  0.78906400  0.75887700  0.01097500  1
  C  574  1  0.76746000  0.74490000  0.03093800  1
  C  575  1  0.73276800  0.77459500  0.94882300  1
  C  579  1  0.68752300  0.74463600  0.98940500  1
  C  583  1  0.82402200  0.76365900  0.01869200  1
  C  587  1  0.78036200  0.73527000  0.05909400  1
  C  591  1  0.71260800  0.72909900  0.04405400  1
  C  593  1  0.79880700  0.77958900  0.96400400  1
  C  595  1  0.23408700  0.01887700  0.23404200  1
  C  596  1  0.22226100  0.00946500  0.26083500  1
  C  597  1  0.24385800  0.99528100  0.28069700  1
  C  598  1  0.27711400  0.99079600  0.27365600  1
  C  599  1  0.28894100  0.00028800  0.24692100  1
  C  600  1  0.26729800  0.01421200  0.22696100  1
  C  601  1  0.23273000  0.98461600  0.30914000  1
  C  605  1  0.18746200  0.01468500  0.26863900  1
  C  609  1  0.32389400  0.99552800  0.23918400  1
  C  613  1  0.28014200  0.02371700  0.19875400  1
  C  617  1  0.21243800  0.03013200  0.21394100  1
  C  619  1  0.29874700  0.97962800  0.29390100  1
  C  621  1  0.27066700  0.27913500  0.98860800  1
  C  622  1  0.28644800  0.26408600  0.01171100  1
  C  623  1  0.27006300  0.23938800  0.02713200  1
  C  624  1  0.23787900  0.23034600  0.01964200  1
  C  625  1  0.22207100  0.24546700  0.99663600  1
  C  626  1  0.23855700  0.26993800  0.98103100  1
  C  627  1  0.28550400  0.22250100  0.05155900  1
  C  631  1  0.32007300  0.27379700  0.02008200  1
  C  635  1  0.18822600  0.23608400  0.98843700  1
  C  639  1  0.22164000  0.28538800  0.95662700  1
  C  643  1  0.28562000  0.30462500  0.97455000  1
  C  645  1  0.22291700  0.20487700  0.03385100  1
  C  647  1  0.77145700  0.97874400  0.76955600  1
  C  648  1  0.78509400  0.99282500  0.74504900  1
  C  649  1  0.76516800  0.01186400  0.72698900  1
  C  650  1  0.73204800  0.01724300  0.73398700  1
  C  651  1  0.71927600  0.00555900  0.75971900  1
  C  652  1  0.73898700  0.98597500  0.77748500  1
  C  653  1  0.77768900  0.02602500  0.70018600  1
  C  657  1  0.81993100  0.98727200  0.73770300  1
  C  661  1  0.68505500  0.01299300  0.76820600  1
  C  665  1  0.72481900  0.97279800  0.80405900  1
  C  669  1  0.78796800  0.95409900  0.78343300  1
  C  671  1  0.71089800  0.02975800  0.71394800  1
  C  673  1  0.52141400  0.02887600  0.52009400  1
  C  674  1  0.53723600  0.01372700  0.49706100  1
  C  675  1  0.52083200  0.98905200  0.48163200  1
  C  676  1  0.48859300  0.98012800  0.48904900  1
  C  677  1  0.47275200  0.99533000  0.51199600  1
  C  678  1  0.48925500  0.01978200  0.52760800  1
  C  679  1  0.53630100  0.97207600  0.45726200  1
  C  683  1  0.57092600  0.02330900  0.48877400  1
  C  687  1  0.43884700  0.98606500  0.52011900  1
  C  691  1  0.47230300  0.03532500  0.55195100  1
  C  695  1  0.53635700  0.05441000  0.53410100  1
  C  697  1  0.47357100  0.95473500  0.47479500  1
  C  699  1  0.02149200  0.73066900  0.73771600  1
  C  700  1  0.03726600  0.74577100  0.76079600  1
  C  701  1  0.02084200  0.77043600  0.77622300  1
  C  702  1  0.98862700  0.77939600  0.76875600  1
  C  703  1  0.97283900  0.76425500  0.74575100  1
  C  704  1  0.98936600  0.73981800  0.73013900  1
  C  705  1  0.03626200  0.78736200  0.80063900  1
  C  709  1  0.07092300  0.73614400  0.76914400  1
  C  713  1  0.93896800  0.77356800  0.73756800  1
  C  717  1  0.97247400  0.72434600  0.70573300  1
  C  721  1  0.03644000  0.70512800  0.72372000  1
  C  723  1  0.97358300  0.80477100  0.78301800  1
  C  725  1  0.98786400  0.28034000  0.26954500  1
  C  726  1  0.97420600  0.26623100  0.24505700  1
  C  727  1  0.99413200  0.24723000  0.22696600  1
  C  728  1  0.02727600  0.24190400  0.23392200  1
  C  729  1  0.04006200  0.25358900  0.25964600  1
  C  730  1  0.02035000  0.27313800  0.27743700  1
  C  731  1  0.98158700  0.23304400  0.20018200  1
  C  735  1  0.93934500  0.27171800  0.23775900  1
  C  739  1  0.07430700  0.24620300  0.26808700  1
  C  743  1  0.03453600  0.28633000  0.30399600  1
  C  747  1  0.97134200  0.30498300  0.28341200  1
  C  749  1  0.04840200  0.22944600  0.21383900  1
  C  751  1  0.52594500  0.51753200  0.02512800  1
  C  752  1  0.53899400  0.50616600  0.99936100  1
  C  753  1  0.51978800  0.48598000  0.98167900  1
  C  754  1  0.48740300  0.47822500  0.98952000  1
  C  755  1  0.47346400  0.49196000  0.01400900  1
  C  756  1  0.49294100  0.51144400  0.03207100  1
  C  757  1  0.53274100  0.47183400  0.95500900  1
  C  761  1  0.57287500  0.51471600  0.99086800  1
  C  765  1  0.43876700  0.48552300  0.02155600  1
  C  769  1  0.47835500  0.52457500  0.05847400  1
  C  773  1  0.54686800  0.52993500  0.04531400  1
  C  775  1  0.47107300  0.45378000  0.97512900  1
  C  777  1  0.06985400  0.42517800  0.23181000  1
  C  778  1  0.05846700  0.39643600  0.21951200  1
  C  779  1  0.07747800  0.37921400  0.20017000  1
  C  780  1  0.10861300  0.39001500  0.19172500  1
  C  781  1  0.12061300  0.41754700  0.20614900  1
  C  782  1  0.10163700  0.43508200  0.22527500  1
  C  783  1  0.13011000  0.37116100  0.17127200  1
  C  784  1  0.15155300  0.35229800  0.19175200  1
  C  785  1  0.18259600  0.36323100  0.20030200  1
  C  786  1  0.20158800  0.34607000  0.21968200  1
  C  787  1  0.19030200  0.31721900  0.23185300  1
  C  788  1  0.15862500  0.30712800  0.22520400  1
  C  789  1  0.13961000  0.32468100  0.20610600  1
  C  790  1  0.11111700  0.34981900  0.15081800  1
  C  791  1  0.14916500  0.39249800  0.15083600  1
  C  792  1  0.17661900  0.38024400  0.13645600  1
  C  793  1  0.19477000  0.39926900  0.11777500  1
  C  794  1  0.18557300  0.43137600  0.11163900  1
  C  795  1  0.15732000  0.44331700  0.12439400  1
  C  796  1  0.13923600  0.42410800  0.14297800  1
  C  797  1  0.08370400  0.36210300  0.13641200  1
  C  798  1  0.06551800  0.34305100  0.11779500  1
  C  799  1  0.07467800  0.31091800  0.11169800  1
  C  800  1  0.10291900  0.29895600  0.12444500  1
  C  801  1  0.12104300  0.31819900  0.14297400  1
  C  822  1  0.68961000  0.31710300  0.73186600  1
  C  823  1  0.70114800  0.34568400  0.71939500  1
  C  824  1  0.68215200  0.36295500  0.70007500  1
  C  825  1  0.65085500  0.35238600  0.69185200  1
  C  826  1  0.63872900  0.32503500  0.70645600  1
  C  827  1  0.65769300  0.30744300  0.72555300  1
  C  828  1  0.62935500  0.37126100  0.67141100  1
  C  829  1  0.60790500  0.39012700  0.69188600  1
  C  830  1  0.57669300  0.37941800  0.70019200  1
  C  831  1  0.55773900  0.39655900  0.71961200  1
  C  832  1  0.56921400  0.42517800  0.73205700  1
  C  833  1  0.60101700  0.43504900  0.72562400  1
  C  834  1  0.61998400  0.41752100  0.70647300  1
  C  835  1  0.64836100  0.39262100  0.65097400  1
  C  836  1  0.61031100  0.34991000  0.65097600  1
  C  837  1  0.58306700  0.36228900  0.63637500  1
  C  838  1  0.56491000  0.34329000  0.61767800  1
  C  839  1  0.57389400  0.31107000  0.61175100  1
  C  840  1  0.60197600  0.29900400  0.62469800  1
  C  841  1  0.62006100  0.31818300  0.64330400  1
  C  842  1  0.67557800  0.38022500  0.63636700  1
  C  843  1  0.69378100  0.39925600  0.61774600  1
  C  844  1  0.68483500  0.43150100  0.61185700  1
  C  845  1  0.65679700  0.44360700  0.62483200  1
  C  846  1  0.63865600  0.42438800  0.64336600  1
  C  867  1  0.18974000  0.92535400  0.60932600  1
  C  868  1  0.20114300  0.89660300  0.62159800  1
  C  869  1  0.18214300  0.87935800  0.64093300  1
  C  870  1  0.15100900  0.89014200  0.64940200  1
  C  871  1  0.13898500  0.91766100  0.63497300  1
  C  872  1  0.15794900  0.93522700  0.61585900  1
  C  873  1  0.12952800  0.87126200  0.66984700  1
  C  874  1  0.10808200  0.85239000  0.64937900  1
  C  875  1  0.07705000  0.86333300  0.64080600  1
  C  876  1  0.05807000  0.84619400  0.62140000  1
  C  877  1  0.06936900  0.81736600  0.60920300  1
  C  878  1  0.10103700  0.80726300  0.61586900  1
  C  879  1  0.12003600  0.82479800  0.63499400  1
  C  880  1  0.14855100  0.84993100  0.69028600  1
  C  881  1  0.11046900  0.89259100  0.69028100  1
  C  882  1  0.08303000  0.88033100  0.70467900  1
  C  883  1  0.06488900  0.89934600  0.72337600  1
  C  884  1  0.07407400  0.93145900  0.72950100  1
  C  885  1  0.10233200  0.94339800  0.71675100  1
  C  886  1  0.12041200  0.92419200  0.69816200  1
  C  887  1  0.17594700  0.86224400  0.70470000  1
  C  888  1  0.19413000  0.84322600  0.72334500  1
  C  889  1  0.18499200  0.81109200  0.72945700  1
  C  890  1  0.15677600  0.79909500  0.71669500  1
  C  891  1  0.13864800  0.81830800  0.69814600  1
  C  912  1  0.56970600  0.81732300  0.10942800  1
  C  913  1  0.55887600  0.84664400  0.12106400  1
  C  914  1  0.57797400  0.86375600  0.14041200  1
  C  915  1  0.60861600  0.85227600  0.14951200  1
  C  916  1  0.62016500  0.82415100  0.13568000  1
  C  917  1  0.60107300  0.80670300  0.11657600  1
  C  918  1  0.63010600  0.87111700  0.16996800  1
  C  919  1  0.65146700  0.89001400  0.14946200  1
  C  920  1  0.68207000  0.87856300  0.14026500  1
  C  921  1  0.70106800  0.89571900  0.12088200  1
  C  922  1  0.69017800  0.92505200  0.10930700  1
  C  923  1  0.65885500  0.93567400  0.11657200  1
  C  924  1  0.63984200  0.91815900  0.13569500  1
  C  925  1  0.61110100  0.89237100  0.19046800  1
  C  926  1  0.64921600  0.84982900  0.19038900  1
  C  927  1  0.67716500  0.86179900  0.20422600  1
  C  928  1  0.69525500  0.84277000  0.22294800  1
  C  929  1  0.68549700  0.81099500  0.22969400  1
  C  930  1  0.65676100  0.79940400  0.21751700  1
  C  931  1  0.63872900  0.81863400  0.19890800  1
  C  932  1  0.58318800  0.88037500  0.20432700  1
  C  933  1  0.56506200  0.89944300  0.22297200  1
  C  934  1  0.57479300  0.93124200  0.22968200  1
  C  935  1  0.60350700  0.94285900  0.21749600  1
  C  936  1  0.62157100  0.92359300  0.19894100  1
  C  957  1  0.93458900  0.56107000  0.36154200  1
  C  958  1  0.90658000  0.54896900  0.37457300  1
  C  959  1  0.88836200  0.56825700  0.39300600  1
  C  960  1  0.89795000  0.60011200  0.40045300  1
  C  961  1  0.92515000  0.61248300  0.38580400  1
  C  962  1  0.94342400  0.59338500  0.36728600  1
  C  963  1  0.87892500  0.62153000  0.42084200  1
  C  964  1  0.85979700  0.64274500  0.40037000  1
  C  965  1  0.86947000  0.67446500  0.39260400  1
  C  966  1  0.85131900  0.69353500  0.37396700  1
  C  967  1  0.82326200  0.68135300  0.36106500  1
  C  968  1  0.81434900  0.64913900  0.36708800  1
  C  969  1  0.83256000  0.63025400  0.38583300  1
  C  970  1  0.85758000  0.60269100  0.44141500  1
  C  971  1  0.90044000  0.64052600  0.44119200  1
  C  972  1  0.88837100  0.66797200  0.45571800  1
  C  973  1  0.90737000  0.68559600  0.47478600  1
  C  974  1  0.93919700  0.67578100  0.48120300  1
  C  975  1  0.95066200  0.64711700  0.46883000  1
  C  976  1  0.93167600  0.62988200  0.44949300  1
  C  977  1  0.86988300  0.57550100  0.45612900  1
  C  978  1  0.85106600  0.55795200  0.47535500  1
  C  979  1  0.81912900  0.56751600  0.48169200  1
  C  980  1  0.80740800  0.59595000  0.46910300  1
  C  981  1  0.82626600  0.61318100  0.44965600  1
  C  1002  1  0.82482700  0.18109200  0.86149900  1
  C  1003  1  0.85290900  0.19318300  0.87441900  1
  C  1004  1  0.87115800  0.17392200  0.89284600  1
  C  1005  1  0.86153100  0.14211500  0.90040800  1
  C  1006  1  0.83428500  0.12973000  0.88583300  1
  C  1007  1  0.81596800  0.14880600  0.86732600  1
  C  1008  1  0.88061100  0.12072900  0.92078200  1
  C  1009  1  0.89975200  0.09953660  0.90030400  1
  C  1010  1  0.89005000  0.06785360  0.89246000  1
  C  1011  1  0.90819100  0.04881760  0.87378800  1
  C  1012  1  0.93627000  0.06101160  0.86092800  1
  C  1013  1  0.94520400  0.09320160  0.86701900  1
  C  1014  1  0.92699600  0.11205300  0.88579200  1
  C  1015  1  0.90196200  0.13960100  0.94132100  1
  C  1016  1  0.85915400  0.10171100  0.94115900  1
  C  1017  1  0.87121800  0.07422060  0.95562100  1
  C  1018  1  0.85227300  0.05662560  0.97474500  1
  C  1019  1  0.82050300  0.06651860  0.98129100  1
  C  1020  1  0.80904100  0.09520860  0.96896200  1
  C  1021  1  0.82798100  0.11242300  0.94958100  1
  C  1022  1  0.88967600  0.16684000  0.95598100  1
  C  1023  1  0.90848100  0.18439600  0.97521200  1
  C  1024  1  0.94038100  0.17477900  0.98162600  1
  C  1025  1  0.95207500  0.14629600  0.96909900  1
  C  1026  1  0.93322700  0.12905900  0.94965000  1
  C  1047  1  0.43467600  0.68115500  0.98000700  1
  C  1048  1  0.40645100  0.69318300  0.96727500  1
  C  1049  1  0.38824100  0.67397400  0.94877300  1
  C  1050  1  0.39803700  0.64230300  0.94096300  1
  C  1051  1  0.42546200  0.62997400  0.95532300  1
  C  1052  1  0.44373800  0.64899400  0.97389900  1
  C  1053  1  0.37894900  0.62099100  0.92053900  1
  C  1054  1  0.35979200  0.59979100  0.94099600  1
  C  1055  1  0.36971100  0.56823600  0.94902100  1
  C  1056  1  0.35158000  0.54913600  0.96765200  1
  C  1057  1  0.32329000  0.56114700  0.98029300  1
  C  1058  1  0.31413200  0.59323300  0.97403100  1
  C  1059  1  0.33233800  0.61215200  0.95530800  1
  C  1060  1  0.35764900  0.63991700  0.90000000  1
  C  1061  1  0.40039600  0.60200100  0.90013700  1
  C  1062  1  0.38844300  0.57433600  0.88585600  1
  C  1063  1  0.40744900  0.55671000  0.86679700  1
  C  1064  1  0.43912200  0.56677400  0.86009700  1
  C  1065  1  0.45042100  0.59566100  0.87219400  1
  C  1066  1  0.43143700  0.61289600  0.89153300  1
  C  1067  1  0.36984100  0.66737100  0.88558600  1
  C  1068  1  0.35105300  0.68493500  0.86634900  1
  C  1069  1  0.31926200  0.67515800  0.85972000  1
  C  1070  1  0.30769300  0.64647900  0.87199600  1
  C  1071  1  0.32652400  0.62921500  0.89144200  1
  C  1092  1  0.32504100  0.06130660  0.47973400  1
  C  1093  1  0.35312800  0.04922060  0.46681400  1
  C  1094  1  0.37135600  0.06847960  0.44836800  1
  C  1095  1  0.36170200  0.10027400  0.44079200  1
  C  1096  1  0.33443200  0.11264500  0.45534500  1
  C  1097  1  0.31614600  0.09357660  0.47387800  1
  C  1098  1  0.38074600  0.12163900  0.42037800  1
  C  1099  1  0.39987700  0.14287100  0.44083100  1
  C  1100  1  0.39014600  0.17455900  0.44863700  1
  C  1101  1  0.40826300  0.19363700  0.46729500  1
  C  1102  1  0.43634700  0.18148100  0.48017400  1
  C  1103  1  0.44533700  0.14930600  0.47409100  1
  C  1104  1  0.42715000  0.13041100  0.45533900  1
  C  1105  1  0.40208200  0.10275000  0.39983700  1
  C  1106  1  0.35926000  0.14061300  0.39999500  1
  C  1107  1  0.37129300  0.16809400  0.38550200  1
  C  1108  1  0.35230700  0.18566900  0.36639200  1
  C  1109  1  0.32052200  0.17576900  0.35990500  1
  C  1110  1  0.30910600  0.14706400  0.37223800  1
  C  1111  1  0.32808200  0.12987500  0.39161000  1
  C  1112  1  0.38980100  0.07546960  0.38522900  1
  C  1113  1  0.40861300  0.05787660  0.36602900  1
  C  1114  1  0.44052100  0.06747260  0.35962100  1
  C  1115  1  0.45221000  0.09598660  0.37209800  1
  C  1116  1  0.43335700  0.11326500  0.39151600  1
  C  1137  1  0.02159800  0.27181800  0.06121430  1
  C  1138  1  0.03536400  0.25781900  0.03672630  1
  C  1139  1  0.01556700  0.23870000  0.01862730  1
  C  1140  1  0.98244700  0.23319100  0.02555430  1
  C  1141  1  0.96956200  0.24479900  0.05127130  1
  C  1142  1  0.98914200  0.26444900  0.06908530  1
  C  1143  1  0.02822100  0.22458300  0.99185300  1
  C  1147  1  0.07018700  0.26354900  0.02943130  1
  C  1151  1  0.93535200  0.23720300  0.05969230  1
  C  1155  1  0.97484400  0.27755600  0.09563430  1
  C  1159  1  0.03799500  0.29645700  0.07518130  1
  C  1161  1  0.96140500  0.22063000  0.00546528  1
  C  1163  1  0.73786600  0.47053200  0.56129800  1
  C  1164  1  0.72410700  0.48457900  0.53682600  1
  C  1165  1  0.74392900  0.50365700  0.51871400  1
  C  1166  1  0.77705600  0.50912800  0.52563900  1
  C  1167  1  0.78993400  0.49749400  0.55134800  1
  C  1168  1  0.77033900  0.47784600  0.56915200  1
  C  1169  1  0.73129000  0.51777900  0.49193800  1
  C  1173  1  0.68926000  0.47894400  0.52956200  1
  C  1177  1  0.82414600  0.50505800  0.55977300  1
  C  1181  1  0.78464000  0.46467000  0.59567400  1
  C  1185  1  0.72141400  0.44592000  0.57524800  1
  C  1187  1  0.79810900  0.52168200  0.50555600  1
  C  1189  1  0.23806300  0.77209500  0.78001200  1
  C  1190  1  0.22426700  0.75811100  0.80449700  1
  C  1191  1  0.24404400  0.73902600  0.82263800  1
  C  1192  1  0.27717900  0.73352900  0.81575000  1
  C  1193  1  0.29010300  0.74512000  0.79004700  1
  C  1194  1  0.27053400  0.76472900  0.77219100  1
  C  1195  1  0.23135000  0.72491400  0.84939900  1
  C  1199  1  0.18943100  0.76383300  0.81175300  1
  C  1203  1  0.32433800  0.73755800  0.78168900  1
  C  1207  1  0.28486200  0.77781000  0.74564400  1
  C  1211  1  0.22165600  0.79669900  0.76601000  1
  C  1213  1  0.29817400  0.72099900  0.83588900  1
  C  1215  1  0.52165000  0.97029400  0.28012000  1
  C  1216  1  0.53544400  0.98425100  0.30461500  1
  C  1217  1  0.51569000  0.00341356  0.32271200  1
  C  1218  1  0.48257400  0.00895856  0.31579400  1
  C  1219  1  0.46964100  0.99735100  0.29009900  1
  C  1220  1  0.48919700  0.97770400  0.27226400  1
  C  1221  1  0.52837900  0.01754460  0.34946800  1
  C  1225  1  0.57024200  0.97842100  0.31193100  1
  C  1229  1  0.43542000  0.00494956  0.28171600  1
  C  1233  1  0.47487700  0.96464900  0.24570300  1
  C  1237  1  0.53801800  0.94567800  0.26609700  1
  C  1239  1  0.46157200  0.02156660  0.33589100  1
  C  1241  1  0.27171800  0.02216060  0.53004700  1
  C  1242  1  0.28537400  0.00804356  0.55453200  1
  C  1243  1  0.26544800  0.98901200  0.57259600  1
  C  1244  1  0.23230700  0.98368400  0.56563800  1
  C  1245  1  0.21951900  0.99540700  0.53992400  1
  C  1246  1  0.23923100  0.01497060  0.52214300  1
  C  1247  1  0.27799000  0.97479800  0.59937000  1
  C  1251  1  0.32022100  0.01356460  0.56185400  1
  C  1255  1  0.18527300  0.98803400  0.53147200  1
  C  1259  1  0.22504500  0.02818160  0.49559000  1
  C  1263  1  0.28823600  0.04679360  0.51616600  1
  C  1265  1  0.21117600  0.97118700  0.58569300  1
  C  1267  1  0.77066800  0.72180800  0.31104000  1
  C  1268  1  0.78646100  0.73687400  0.28795300  1
  C  1269  1  0.77006400  0.76154800  0.27251600  1
  C  1270  1  0.73787100  0.77057900  0.27999500  1
  C  1271  1  0.72206100  0.75545400  0.30299800  1
  C  1272  1  0.73854500  0.73097800  0.31860000  1
  C  1273  1  0.78550000  0.77842100  0.24808000  1
  C  1277  1  0.82011000  0.72720800  0.27961800  1
  C  1281  1  0.68822100  0.76484000  0.31120400  1
  C  1285  1  0.72161400  0.71549200  0.34298000  1
  C  1289  1  0.78563000  0.69632000  0.32509500  1
  C  1291  1  0.72289000  0.79600600  0.26574700  1
  C  1293  1  0.48288400  0.50983300  0.81632500  1
  C  1294  1  0.47104900  0.50041600  0.78953700  1
  C  1295  1  0.49263600  0.48621000  0.76967700  1
  C  1296  1  0.52588200  0.48169500  0.77672400  1
  C  1297  1  0.53771900  0.49117500  0.80345900  1
  C  1298  1  0.51608800  0.50513300  0.82341000  1
  C  1299  1  0.48149700  0.47555400  0.74123400  1
  C  1303  1  0.43625300  0.50565200  0.78173300  1
  C  1307  1  0.57266200  0.48635900  0.81120500  1
  C  1311  1  0.52894200  0.51464400  0.85161400  1
  C  1315  1  0.46124300  0.52113600  0.83642000  1
  C  1317  1  0.54750800  0.47052800  0.75647300  1
  C  1319  1  0.02559100  0.76056500  0.56531100  1
  C  1320  1  0.03740500  0.75117000  0.53851100  1
  C  1321  1  0.01580900  0.73695600  0.51866400  1
  C  1322  1  0.98256800  0.73243200  0.52572800  1
  C  1323  1  0.97074300  0.74193200  0.55246100  1
  C  1324  1  0.99238600  0.75587900  0.57241000  1
  C  1325  1  0.02692900  0.72630000  0.49021700  1
  C  1329  1  0.07219100  0.75643500  0.53068900  1
  C  1333  1  0.93579700  0.73714500  0.56021500  1
  C  1337  1  0.97954900  0.76538300  0.60062000  1
  C  1341  1  0.04724600  0.77181500  0.58541400  1
  C  1343  1  0.96093200  0.72121400  0.50550200  1
  C  1345  1  0.73422700  0.98182200  0.06556930  1
  C  1346  1  0.72235300  0.99128700  0.03880830  1
  C  1347  1  0.74393300  0.00545156  0.01891930  1
  C  1348  1  0.77719800  0.00992956  0.02592930  1
  C  1349  1  0.78906400  0.00039956  0.05264030  1
  C  1350  1  0.76746000  0.98642300  0.07260330  1
  C  1351  1  0.73276800  0.01611760  0.99048800  1
  C  1355  1  0.68752300  0.98615900  0.03107030  1
  C  1359  1  0.82402200  0.00518156  0.06035730  1
  C  1363  1  0.78036200  0.97679300  0.10075900  1
  C  1367  1  0.71260800  0.97062200  0.08571930  1
  C  1369  1  0.79880700  0.02111160  0.00566928  1
  C  1371  1  0.23408700  0.26040000  0.27570700  1
  C  1372  1  0.22226100  0.25098800  0.30250000  1
  C  1373  1  0.24385800  0.23680400  0.32236200  1
  C  1374  1  0.27711400  0.23231900  0.31532100  1
  C  1375  1  0.28894100  0.24181100  0.28858600  1
  C  1376  1  0.26729800  0.25573500  0.26862600  1
  C  1377  1  0.23273000  0.22613900  0.35080500  1
  C  1381  1  0.18746200  0.25620800  0.31030400  1
  C  1385  1  0.32389400  0.23705100  0.28084900  1
  C  1389  1  0.28014200  0.26524000  0.24041900  1
  C  1393  1  0.21243800  0.27165500  0.25560600  1
  C  1395  1  0.29874700  0.22115100  0.33556600  1
  C  1397  1  0.27066700  0.52065800  0.03027330  1
  C  1398  1  0.28644800  0.50560900  0.05337630  1
  C  1399  1  0.27006300  0.48091100  0.06879730  1
  C  1400  1  0.23787900  0.47186900  0.06130730  1
  C  1401  1  0.22207100  0.48699000  0.03830130  1
  C  1402  1  0.23855700  0.51146100  0.02269630  1
  C  1403  1  0.28550400  0.46402400  0.09322430  1
  C  1407  1  0.32007300  0.51532000  0.06174730  1
  C  1411  1  0.18822600  0.47760700  0.03010230  1
  C  1415  1  0.22164000  0.52691100  0.99829200  1
  C  1419  1  0.28562000  0.54614800  0.01621530  1
  C  1421  1  0.22291700  0.44640000  0.07551630  1
  C  1423  1  0.77145700  0.22026700  0.81122100  1
  C  1424  1  0.78509400  0.23434800  0.78671400  1
  C  1425  1  0.76516800  0.25338700  0.76865400  1
  C  1426  1  0.73204800  0.25876600  0.77565200  1
  C  1427  1  0.71927600  0.24708200  0.80138400  1
  C  1428  1  0.73898700  0.22749800  0.81915000  1
  C  1429  1  0.77768900  0.26754800  0.74185100  1
  C  1433  1  0.81993100  0.22879500  0.77936800  1
  C  1437  1  0.68505500  0.25451600  0.80987100  1
  C  1441  1  0.72481900  0.21432100  0.84572400  1
  C  1445  1  0.78796800  0.19562200  0.82509800  1
  C  1447  1  0.71089800  0.27128100  0.75561300  1
  C  1449  1  0.52141400  0.27039900  0.56175900  1
  C  1450  1  0.53723600  0.25525000  0.53872600  1
  C  1451  1  0.52083200  0.23057500  0.52329700  1
  C  1452  1  0.48859300  0.22165100  0.53071400  1
  C  1453  1  0.47275200  0.23685300  0.55366100  1
  C  1454  1  0.48925500  0.26130500  0.56927300  1
  C  1455  1  0.53630100  0.21359900  0.49892700  1
  C  1459  1  0.57092600  0.26483200  0.53043900  1
  C  1463  1  0.43884700  0.22758800  0.56178400  1
  C  1467  1  0.47230300  0.27684800  0.59361600  1
  C  1471  1  0.53635700  0.29593300  0.57576600  1
  C  1473  1  0.47357100  0.19625800  0.51646000  1
  C  1475  1  0.02149200  0.97219200  0.77938100  1
  C  1476  1  0.03726600  0.98729400  0.80246100  1
  C  1477  1  0.02084200  0.01195860  0.81788800  1
  C  1478  1  0.98862700  0.02091860  0.81042100  1
  C  1479  1  0.97283900  0.00577756  0.78741600  1
  C  1480  1  0.98936600  0.98134100  0.77180400  1
  C  1481  1  0.03626200  0.02888460  0.84230400  1
  C  1485  1  0.07092300  0.97766700  0.81080900  1
  C  1489  1  0.93896800  0.01509060  0.77923300  1
  C  1493  1  0.97247400  0.96586900  0.74739800  1
  C  1497  1  0.03644000  0.94665100  0.76538500  1
  C  1499  1  0.97358300  0.04629360  0.82468300  1
  C  1501  1  0.98786400  0.52186300  0.31121000  1
  C  1502  1  0.97420600  0.50775400  0.28672200  1
  C  1503  1  0.99413200  0.48875300  0.26863100  1
  C  1504  1  0.02727600  0.48342700  0.27558700  1
  C  1505  1  0.04006200  0.49511200  0.30131100  1
  C  1506  1  0.02035000  0.51466100  0.31910200  1
  C  1507  1  0.98158700  0.47456700  0.24184700  1
  C  1511  1  0.93934500  0.51324100  0.27942400  1
  C  1515  1  0.07430700  0.48772600  0.30975200  1
  C  1519  1  0.03453600  0.52785300  0.34566100  1
  C  1523  1  0.97134200  0.54650600  0.32507700  1
  C  1525  1  0.04840200  0.47096900  0.25550400  1
  C  1527  1  0.52594500  0.75905500  0.06679330  1
  C  1528  1  0.53899400  0.74768900  0.04102630  1
  C  1529  1  0.51978800  0.72750300  0.02334430  1
  C  1530  1  0.48740300  0.71974800  0.03118530  1
  C  1531  1  0.47346400  0.73348300  0.05567430  1
  C  1532  1  0.49294100  0.75296700  0.07373630  1
  C  1533  1  0.53274100  0.71335700  0.99667400  1
  C  1537  1  0.57287500  0.75623900  0.03253330  1
  C  1541  1  0.43876700  0.72704600  0.06322130  1
  C  1545  1  0.47835500  0.76609800  0.10013900  1
  C  1549  1  0.54686800  0.77145800  0.08697930  1
  C  1551  1  0.47107300  0.69530300  0.01679430  1
  C  1553  1  0.06985400  0.66666667  0.27347600  1
  C  1554  1  0.05846700  0.63795800  0.26117800  1
  C  1555  1  0.07747800  0.62073600  0.24183600  1
  C  1556  1  0.10861300  0.63153700  0.23339100  1
  C  1557  1  0.12061300  0.65906900  0.24781500  1
  C  1558  1  0.10163700  0.67660400  0.26694100  1
  C  1559  1  0.13011000  0.61268300  0.21293800  1
  C  1560  1  0.15155300  0.59382000  0.23341800  1
  C  1561  1  0.18259600  0.60475300  0.24196800  1
  C  1562  1  0.20158800  0.58759200  0.26134800  1
  C  1563  1  0.19030200  0.55874100  0.27351900  1
  C  1564  1  0.15862500  0.54865000  0.26687000  1
  C  1565  1  0.13961000  0.56620300  0.24777200  1
  C  1566  1  0.11111700  0.59134100  0.19248400  1
  C  1567  1  0.14916500  0.63402000  0.19250200  1
  C  1568  1  0.17661900  0.62176600  0.17812200  1
  C  1569  1  0.19477000  0.64079100  0.15944100  1
  C  1570  1  0.18557300  0.67289800  0.15330500  1
  C  1571  1  0.15732000  0.68483900  0.16606000  1
  C  1572  1  0.13923600  0.66563000  0.18464400  1
  C  1573  1  0.08370400  0.60362500  0.17807800  1
  C  1574  1  0.06551800  0.58457300  0.15946100  1
  C  1575  1  0.07467800  0.55244000  0.15336400  1
  C  1576  1  0.10291900  0.54047800  0.16611100  1
  C  1577  1  0.12104300  0.55972100  0.18464000  1
  C  1598  1  0.68961000  0.55862500  0.77353200  1
  C  1599  1  0.70114800  0.58720600  0.76106100  1
  C  1600  1  0.68215200  0.60447700  0.74174100  1
  C  1601  1  0.65085500  0.59390800  0.73351800  1
  C  1602  1  0.63872900  0.56655700  0.74812200  1
  C  1603  1  0.65769300  0.54896500  0.76721900  1
  C  1604  1  0.62935500  0.61278300  0.71307700  1
  C  1605  1  0.60790500  0.63164900  0.73355200  1
  C  1606  1  0.57669300  0.62094000  0.74185800  1
  C  1607  1  0.55773900  0.63808100  0.76127800  1
  C  1608  1  0.56921400  0.66666667  0.77372300  1
  C  1609  1  0.60101700  0.67657100  0.76729000  1
  C  1610  1  0.61998400  0.65904300  0.74813900  1
  C  1611  1  0.64836100  0.63414300  0.69264000  1
  C  1612  1  0.61031100  0.59143200  0.69264200  1
  C  1613  1  0.58306700  0.60381100  0.67804100  1
  C  1614  1  0.56491000  0.58481200  0.65934400  1
  C  1615  1  0.57389400  0.55259200  0.65341700  1
  C  1616  1  0.60197600  0.54052600  0.66636400  1
  C  1617  1  0.62006100  0.55970500  0.68497000  1
  C  1618  1  0.67557800  0.62174700  0.67803300  1
  C  1619  1  0.69378100  0.64077800  0.65941200  1
  C  1620  1  0.68483500  0.67302300  0.65352300  1
  C  1621  1  0.65679700  0.68512900  0.66649800  1
  C  1622  1  0.63865600  0.66591000  0.68503200  1
  C  1643  1  0.18974000  0.16687600  0.65099200  1
  C  1644  1  0.20114300  0.13812500  0.66326400  1
  C  1645  1  0.18214300  0.12088000  0.68259900  1
  C  1646  1  0.15100900  0.13166400  0.69106800  1
  C  1647  1  0.13898500  0.15918300  0.67663900  1
  C  1648  1  0.15794900  0.17674900  0.65752500  1
  C  1649  1  0.12952800  0.11278400  0.71151300  1
  C  1650  1  0.10808200  0.09391210  0.69104500  1
  C  1651  1  0.07705000  0.10485500  0.68247200  1
  C  1652  1  0.05807000  0.08771610  0.66306600  1
  C  1653  1  0.06936900  0.05888810  0.65086900  1
  C  1654  1  0.10103700  0.04878510  0.65753500  1
  C  1655  1  0.12003600  0.06632010  0.67666000  1
  C  1656  1  0.14855100  0.09145310  0.73195200  1
  C  1657  1  0.11046900  0.13411300  0.73194700  1
  C  1658  1  0.08303000  0.12185300  0.74634500  1
  C  1659  1  0.06488900  0.14086800  0.76504200  1
  C  1660  1  0.07407400  0.17298100  0.77116700  1
  C  1661  1  0.10233200  0.18492000  0.75841700  1
  C  1662  1  0.12041200  0.16571400  0.73982800  1
  C  1663  1  0.17594700  0.10376600  0.74636600  1
  C  1664  1  0.19413000  0.08474810  0.76501100  1
  C  1665  1  0.18499200  0.05261410  0.77112300  1
  C  1666  1  0.15677600  0.04061710  0.75836100  1
  C  1667  1  0.13864800  0.05983010  0.73981200  1
  C  1688  1  0.56970600  0.05884510  0.15109400  1
  C  1689  1  0.55887600  0.08816610  0.16273000  1
  C  1690  1  0.57797400  0.10527800  0.18207800  1
  C  1691  1  0.60861600  0.09379810  0.19117800  1
  C  1692  1  0.62016500  0.06567310  0.17734600  1
  C  1693  1  0.60107300  0.04822510  0.15824200  1
  C  1694  1  0.63010600  0.11263900  0.21163400  1
  C  1695  1  0.65146700  0.13153600  0.19112800  1
  C  1696  1  0.68207000  0.12008500  0.18193100  1
  C  1697  1  0.70106800  0.13724100  0.16254800  1
  C  1698  1  0.69017800  0.16657400  0.15097300  1
  C  1699  1  0.65885500  0.17719600  0.15823800  1
  C  1700  1  0.63984200  0.15968100  0.17736100  1
  C  1701  1  0.61110100  0.13389300  0.23213400  1
  C  1702  1  0.64921600  0.09135110  0.23205500  1
  C  1703  1  0.67716500  0.10332100  0.24589200  1
  C  1704  1  0.69525500  0.08429210  0.26461400  1
  C  1705  1  0.68549700  0.05251710  0.27136000  1
  C  1706  1  0.65676100  0.04092610  0.25918300  1
  C  1707  1  0.63872900  0.06015610  0.24057400  1
  C  1708  1  0.58318800  0.12189700  0.24599300  1
  C  1709  1  0.56506200  0.14096500  0.26463800  1
  C  1710  1  0.57479300  0.17276400  0.27134800  1
  C  1711  1  0.60350700  0.18438100  0.25916200  1
  C  1712  1  0.62157100  0.16511500  0.24060700  1
  C  1733  1  0.93458900  0.80259200  0.40320800  1
  C  1734  1  0.90658000  0.79049100  0.41623900  1
  C  1735  1  0.88836200  0.80977900  0.43467200  1
  C  1736  1  0.89795000  0.84163400  0.44211900  1
  C  1737  1  0.92515000  0.85400500  0.42747000  1
  C  1738  1  0.94342400  0.83490700  0.40895200  1
  C  1739  1  0.87892500  0.86305200  0.46250800  1
  C  1740  1  0.85979700  0.88426700  0.44203600  1
  C  1741  1  0.86947000  0.91598700  0.43427000  1
  C  1742  1  0.85131900  0.93505700  0.41563300  1
  C  1743  1  0.82326200  0.92287500  0.40273100  1
  C  1744  1  0.81434900  0.89066100  0.40875400  1
  C  1745  1  0.83256000  0.87177600  0.42749900  1
  C  1746  1  0.85758000  0.84421300  0.48308100  1
  C  1747  1  0.90044000  0.88204800  0.48285800  1
  C  1748  1  0.88837100  0.90949400  0.49738400  1
  C  1749  1  0.90737000  0.92711800  0.51645200  1
  C  1750  1  0.93919700  0.91730300  0.52286900  1
  C  1751  1  0.95066200  0.88863900  0.51049600  1
  C  1752  1  0.93167600  0.87140400  0.49115900  1
  C  1753  1  0.86988300  0.81702300  0.49779500  1
  C  1754  1  0.85106600  0.79947400  0.51702100  1
  C  1755  1  0.81912900  0.80903800  0.52335800  1
  C  1756  1  0.80740800  0.83747200  0.51076900  1
  C  1757  1  0.82626600  0.85470300  0.49132200  1
  C  1778  1  0.82482700  0.42261400  0.90316500  1
  C  1779  1  0.85290900  0.43470500  0.91608500  1
  C  1780  1  0.87115800  0.41544400  0.93451200  1
  C  1781  1  0.86153100  0.38363700  0.94207400  1
  C  1782  1  0.83428500  0.37125200  0.92749900  1
  C  1783  1  0.81596800  0.39032800  0.90899200  1
  C  1784  1  0.88061100  0.36225100  0.96244800  1
  C  1785  1  0.89975200  0.34105900  0.94197000  1
  C  1786  1  0.89005000  0.30937600  0.93412600  1
  C  1787  1  0.90819100  0.29034000  0.91545400  1
  C  1788  1  0.93627000  0.30253400  0.90259400  1
  C  1789  1  0.94520400  0.33472400  0.90868500  1
  C  1790  1  0.92699600  0.35357500  0.92745800  1
  C  1791  1  0.90196200  0.38112300  0.98298700  1
  C  1792  1  0.85915400  0.34323300  0.98282500  1
  C  1793  1  0.87121800  0.31574300  0.99728700  1
  C  1794  1  0.85227300  0.29814800  0.01641060  1
  C  1795  1  0.82050300  0.30804100  0.02295660  1
  C  1796  1  0.80904100  0.33673100  0.01062760  1
  C  1797  1  0.82798100  0.35394500  0.99124700  1
  C  1798  1  0.88967600  0.40836200  0.99764700  1
  C  1799  1  0.90848100  0.42591800  0.01687760  1
  C  1800  1  0.94038100  0.41630100  0.02329160  1
  C  1801  1  0.95207500  0.38781800  0.01076460  1
  C  1802  1  0.93322700  0.37058100  0.99131600  1
  C  1823  1  0.43467600  0.92267700  0.02167260  1
  C  1824  1  0.40645100  0.93470500  0.00894056  1
  C  1825  1  0.38824100  0.91549600  0.99043900  1
  C  1826  1  0.39803700  0.88382500  0.98262900  1
  C  1827  1  0.42546200  0.87149600  0.99698900  1
  C  1828  1  0.44373800  0.89051600  0.01556460  1
  C  1829  1  0.37894900  0.86251300  0.96220500  1
  C  1830  1  0.35979200  0.84131300  0.98266200  1
  C  1831  1  0.36971100  0.80975800  0.99068700  1
  C  1832  1  0.35158000  0.79065800  0.00931756  1
  C  1833  1  0.32329000  0.80266900  0.02195860  1
  C  1834  1  0.31413200  0.83475500  0.01569660  1
  C  1835  1  0.33233800  0.85367400  0.99697400  1
  C  1836  1  0.35764900  0.88143900  0.94166600  1
  C  1837  1  0.40039600  0.84352300  0.94180300  1
  C  1838  1  0.38844300  0.81585800  0.92752200  1
  C  1839  1  0.40744900  0.79823200  0.90846300  1
  C  1840  1  0.43912200  0.80829600  0.90176300  1
  C  1841  1  0.45042100  0.83718300  0.91386000  1
  C  1842  1  0.43143700  0.85441800  0.93319900  1
  C  1843  1  0.36984100  0.90889300  0.92725200  1
  C  1844  1  0.35105300  0.92645700  0.90801500  1
  C  1845  1  0.31926200  0.91668000  0.90138600  1
  C  1846  1  0.30769300  0.88800100  0.91366200  1
  C  1847  1  0.32652400  0.87073700  0.93310800  1
  C  1868  1  0.32504100  0.30282900  0.52140000  1
  C  1869  1  0.35312800  0.29074300  0.50848000  1
  C  1870  1  0.37135600  0.31000200  0.49003400  1
  C  1871  1  0.36170200  0.34179600  0.48245800  1
  C  1872  1  0.33443200  0.35416700  0.49701100  1
  C  1873  1  0.31614600  0.33509900  0.51554400  1
  C  1874  1  0.38074600  0.36316100  0.46204400  1
  C  1875  1  0.39987700  0.38439300  0.48249700  1
  C  1876  1  0.39014600  0.41608100  0.49030300  1
  C  1877  1  0.40826300  0.43515900  0.50896100  1
  C  1878  1  0.43634700  0.42300300  0.52184000  1
  C  1879  1  0.44533700  0.39082800  0.51575700  1
  C  1880  1  0.42715000  0.37193300  0.49700500  1
  C  1881  1  0.40208200  0.34427200  0.44150300  1
  C  1882  1  0.35926000  0.38213500  0.44166100  1
  C  1883  1  0.37129300  0.40961600  0.42716800  1
  C  1884  1  0.35230700  0.42719100  0.40805800  1
  C  1885  1  0.32052200  0.41729100  0.40157100  1
  C  1886  1  0.30910600  0.38858600  0.41390400  1
  C  1887  1  0.32808200  0.37139700  0.43327600  1
  C  1888  1  0.38980100  0.31699200  0.42689500  1
  C  1889  1  0.40861300  0.29939900  0.40769500  1
  C  1890  1  0.44052100  0.30899500  0.40128700  1
  C  1891  1  0.45221000  0.33750900  0.41376400  1
  C  1892  1  0.43335700  0.35478700  0.43318200  1
  C  1913  1  0.02159800  0.51334000  0.10288000  1
  C  1914  1  0.03536400  0.49934100  0.07839160  1
  C  1915  1  0.01556700  0.48022200  0.06029260  1
  C  1916  1  0.98244700  0.47471300  0.06721960  1
  C  1917  1  0.96956200  0.48632100  0.09293660  1
  C  1918  1  0.98914200  0.50597100  0.11075100  1
  C  1919  1  0.02822100  0.46610500  0.03351860  1
  C  1923  1  0.07018700  0.50507100  0.07109660  1
  C  1927  1  0.93535200  0.47872500  0.10135800  1
  C  1931  1  0.97484400  0.51907800  0.13730000  1
  C  1935  1  0.03799500  0.53797900  0.11684700  1
  C  1937  1  0.96140500  0.46215200  0.04713060  1
  C  1939  1  0.73786600  0.71205400  0.60296400  1
  C  1940  1  0.72410700  0.72610100  0.57849200  1
  C  1941  1  0.74392900  0.74517900  0.56038000  1
  C  1942  1  0.77705600  0.75065000  0.56730500  1
  C  1943  1  0.78993400  0.73901600  0.59301400  1
  C  1944  1  0.77033900  0.71936800  0.61081800  1
  C  1945  1  0.73129000  0.75930100  0.53360400  1
  C  1949  1  0.68926000  0.72046600  0.57122800  1
  C  1953  1  0.82414600  0.74658000  0.60143900  1
  C  1957  1  0.78464000  0.70619200  0.63734000  1
  C  1961  1  0.72141400  0.68744200  0.61691400  1
  C  1963  1  0.79810900  0.76320400  0.54722200  1
  C  1965  1  0.23806300  0.01361710  0.82167800  1
  C  1966  1  0.22426700  0.99963300  0.84616300  1
  C  1967  1  0.24404400  0.98054800  0.86430400  1
  C  1968  1  0.27717900  0.97505100  0.85741600  1
  C  1969  1  0.29010300  0.98664200  0.83171300  1
  C  1970  1  0.27053400  0.00625112  0.81385700  1
  C  1971  1  0.23135000  0.96643600  0.89106500  1
  C  1975  1  0.18943100  0.00535512  0.85341900  1
  C  1979  1  0.32433800  0.97908000  0.82335500  1
  C  1983  1  0.28486200  0.01933210  0.78731000  1
  C  1987  1  0.22165600  0.03822110  0.80767600  1
  C  1989  1  0.29817400  0.96252100  0.87755500  1
  C  1991  1  0.52165000  0.21181600  0.32178600  1
  C  1992  1  0.53544400  0.22577300  0.34628100  1
  C  1993  1  0.51569000  0.24493600  0.36437800  1
  C  1994  1  0.48257400  0.25048100  0.35746000  1
  C  1995  1  0.46964100  0.23887300  0.33176500  1
  C  1996  1  0.48919700  0.21922600  0.31393000  1
  C  1997  1  0.52837900  0.25906700  0.39113400  1
  C  2001  1  0.57024200  0.21994300  0.35359700  1
  C  2005  1  0.43542000  0.24647200  0.32338200  1
  C  2009  1  0.47487700  0.20617100  0.28736900  1
  C  2013  1  0.53801800  0.18720000  0.30776300  1
  C  2015  1  0.46157200  0.26308900  0.37755700  1
  C  2017  1  0.27171800  0.26368300  0.57171300  1
  C  2018  1  0.28537400  0.24956600  0.59619800  1
  C  2019  1  0.26544800  0.23053400  0.61426200  1
  C  2020  1  0.23230700  0.22520600  0.60730400  1
  C  2021  1  0.21951900  0.23692900  0.58159000  1
  C  2022  1  0.23923100  0.25649300  0.56380900  1
  C  2023  1  0.27799000  0.21632000  0.64103600  1
  C  2027  1  0.32022100  0.25508700  0.60352000  1
  C  2031  1  0.18527300  0.22955600  0.57313800  1
  C  2035  1  0.22504500  0.26970400  0.53725600  1
  C  2039  1  0.28823600  0.28831600  0.55783200  1
  C  2041  1  0.21117600  0.21270900  0.62735900  1
  C  2043  1  0.77066800  0.96333000  0.35270600  1
  C  2044  1  0.78646100  0.97839600  0.32961900  1
  C  2045  1  0.77006400  0.00307012  0.31418200  1
  C  2046  1  0.73787100  0.01210110  0.32166100  1
  C  2047  1  0.72206100  0.99697600  0.34466400  1
  C  2048  1  0.73854500  0.97250000  0.36026600  1
  C  2049  1  0.78550000  0.01994310  0.28974600  1
  C  2053  1  0.82011000  0.96873000  0.32128400  1
  C  2057  1  0.68822100  0.00636212  0.35287000  1
  C  2061  1  0.72161400  0.95701400  0.38464600  1
  C  2065  1  0.78563000  0.93784200  0.36676100  1
  C  2067  1  0.72289000  0.03752810  0.30741300  1
  C  2069  1  0.48288400  0.75135500  0.85799100  1
  C  2070  1  0.47104900  0.74193800  0.83120300  1
  C  2071  1  0.49263600  0.72773200  0.81134300  1
  C  2072  1  0.52588200  0.72321700  0.81839000  1
  C  2073  1  0.53771900  0.73269700  0.84512500  1
  C  2074  1  0.51608800  0.74665500  0.86507600  1
  C  2075  1  0.48149700  0.71707600  0.78290000  1
  C  2079  1  0.43625300  0.74717400  0.82339900  1
  C  2083  1  0.57266200  0.72788100  0.85287100  1
  C  2087  1  0.52894200  0.75616600  0.89328000  1
  C  2091  1  0.46124300  0.76265800  0.87808600  1
  C  2093  1  0.54750800  0.71205000  0.79813900  1
  C  2095  1  0.02559100  0.00208712  0.60697700  1
  C  2096  1  0.03740500  0.99269200  0.58017700  1
  C  2097  1  0.01580900  0.97847800  0.56033000  1
  C  2098  1  0.98256800  0.97395400  0.56739400  1
  C  2099  1  0.97074300  0.98345400  0.59412700  1
  C  2100  1  0.99238600  0.99740100  0.61407600  1
  C  2101  1  0.02692900  0.96782200  0.53188300  1
  C  2105  1  0.07219100  0.99795700  0.57235500  1
  C  2109  1  0.93579700  0.97866700  0.60188100  1
  C  2113  1  0.97954900  0.00690512  0.64228600  1
  C  2117  1  0.04724600  0.01333710  0.62708000  1
  C  2119  1  0.96093200  0.96273600  0.54716800  1
  C  2121  1  0.73422700  0.22334400  0.10723500  1
  C  2122  1  0.72235300  0.23280900  0.08047360  1
  C  2123  1  0.74393300  0.24697400  0.06058460  1
  C  2124  1  0.77719800  0.25145200  0.06759460  1
  C  2125  1  0.78906400  0.24192200  0.09430560  1
  C  2126  1  0.76746000  0.22794500  0.11426900  1
  C  2127  1  0.73276800  0.25764000  0.03215360  1
  C  2131  1  0.68752300  0.22768100  0.07273560  1
  C  2135  1  0.82402200  0.24670400  0.10202300  1
  C  2139  1  0.78036200  0.21831500  0.14242500  1
  C  2143  1  0.71260800  0.21214400  0.12738500  1
  C  2145  1  0.79880700  0.26263400  0.04733460  1
  C  2147  1  0.23408700  0.50192200  0.31737300  1
  C  2148  1  0.22226100  0.49251000  0.34416600  1
  C  2149  1  0.24385800  0.47832600  0.36402800  1
  C  2150  1  0.27711400  0.47384100  0.35698700  1
  C  2151  1  0.28894100  0.48333300  0.33025200  1
  C  2152  1  0.26729800  0.49725700  0.31029200  1
  C  2153  1  0.23273000  0.46766100  0.39247100  1
  C  2157  1  0.18746200  0.49773000  0.35197000  1
  C  2161  1  0.32389400  0.47857300  0.32251500  1
  C  2165  1  0.28014200  0.50676200  0.28208500  1
  C  2169  1  0.21243800  0.51317700  0.29727200  1
  C  2171  1  0.29874700  0.46267300  0.37723200  1
  C  2173  1  0.27066700  0.76218000  0.07193860  1
  C  2174  1  0.28644800  0.74713100  0.09504160  1
  C  2175  1  0.27006300  0.72243300  0.11046300  1
  C  2176  1  0.23787900  0.71339100  0.10297300  1
  C  2177  1  0.22207100  0.72851200  0.07996660  1
  C  2178  1  0.23855700  0.75298300  0.06436160  1
  C  2179  1  0.28550400  0.70554600  0.13489000  1
  C  2183  1  0.32007300  0.75684200  0.10341300  1
  C  2187  1  0.18822600  0.71912900  0.07176760  1
  C  2191  1  0.22164000  0.76843300  0.03995760  1
  C  2195  1  0.28562000  0.78767000  0.05788060  1
  C  2197  1  0.22291700  0.68792200  0.11718200  1
  C  2199  1  0.77145700  0.46178900  0.85288700  1
  C  2200  1  0.78509400  0.47587000  0.82838000  1
  C  2201  1  0.76516800  0.49490900  0.81032000  1
  C  2202  1  0.73204800  0.50028800  0.81731800  1
  C  2203  1  0.71927600  0.48860400  0.84305000  1
  C  2204  1  0.73898700  0.46902000  0.86081600  1
  C  2205  1  0.77768900  0.50907000  0.78351700  1
  C  2209  1  0.81993100  0.47031700  0.82103400  1
  C  2213  1  0.68505500  0.49603800  0.85153700  1
  C  2217  1  0.72481900  0.45584300  0.88739000  1
  C  2221  1  0.78796800  0.43714400  0.86676400  1
  C  2223  1  0.71089800  0.51280300  0.79727900  1
  C  2225  1  0.52141400  0.51192100  0.60342500  1
  C  2226  1  0.53723600  0.49677200  0.58039200  1
  C  2227  1  0.52083200  0.47209700  0.56496300  1
  C  2228  1  0.48859300  0.46317300  0.57238000  1
  C  2229  1  0.47275200  0.47837500  0.59532700  1
  C  2230  1  0.48925500  0.50282700  0.61093900  1
  C  2231  1  0.53630100  0.45512100  0.54059300  1
  C  2235  1  0.57092600  0.50635400  0.57210500  1
  C  2239  1  0.43884700  0.46911000  0.60345000  1
  C  2243  1  0.47230300  0.51837000  0.63528200  1
  C  2247  1  0.53635700  0.53745500  0.61743200  1
  C  2249  1  0.47357100  0.43778000  0.55812600  1
  C  2251  1  0.02149200  0.21371400  0.82104700  1
  C  2252  1  0.03726600  0.22881600  0.84412700  1
  C  2253  1  0.02084200  0.25348100  0.85955400  1
  C  2254  1  0.98862700  0.26244100  0.85208700  1
  C  2255  1  0.97283900  0.24730000  0.82908200  1
  C  2256  1  0.98936600  0.22286300  0.81347000  1
  C  2257  1  0.03626200  0.27040700  0.88397000  1
  C  2261  1  0.07092300  0.21918900  0.85247500  1
  C  2265  1  0.93896800  0.25661300  0.82089900  1
  C  2269  1  0.97247400  0.20739100  0.78906400  1
  C  2273  1  0.03644000  0.18817300  0.80705100  1
  C  2275  1  0.97358300  0.28781600  0.86634900  1
  C  2277  1  0.98786400  0.76338500  0.35287600  1
  C  2278  1  0.97420600  0.74927600  0.32838800  1
  C  2279  1  0.99413200  0.73027500  0.31029700  1
  C  2280  1  0.02727600  0.72494900  0.31725300  1
  C  2281  1  0.04006200  0.73663400  0.34297700  1
  C  2282  1  0.02035000  0.75618300  0.36076800  1
  C  2283  1  0.98158700  0.71608900  0.28351300  1
  C  2287  1  0.93934500  0.75476300  0.32109000  1
  C  2291  1  0.07430700  0.72924800  0.35141800  1
  C  2295  1  0.03453600  0.76937500  0.38732700  1
  C  2299  1  0.97134200  0.78802800  0.36674300  1
  C  2301  1  0.04840200  0.71249100  0.29717000  1
  C  2303  1  0.52594500  0.00057712  0.10845900  1
  C  2304  1  0.53899400  0.98921100  0.08269160  1
  C  2305  1  0.51978800  0.96902500  0.06500960  1
  C  2306  1  0.48740300  0.96127000  0.07285060  1
  C  2307  1  0.47346400  0.97500500  0.09733960  1
  C  2308  1  0.49294100  0.99448900  0.11540200  1
  C  2309  1  0.53274100  0.95487900  0.03833960  1
  C  2313  1  0.57287500  0.99776100  0.07419860  1
  C  2317  1  0.43876700  0.96856800  0.10488700  1
  C  2321  1  0.47835500  0.00762012  0.14180500  1
  C  2325  1  0.54686800  0.01298010  0.12864500  1
  C  2327  1  0.47107300  0.93682500  0.05845960  1
  N  41  1  0.20226900  0.20989600  0.05345900  1
  N  42  1  0.05769400  0.04935800  0.05372700  1
  N  43  1  0.05073800  0.19907600  0.20832100  1
  N  44  1  0.20944900  0.06043500  0.20839100  1
  N  86  1  0.55718300  0.04950100  0.55359000  1
  N  87  1  0.70184800  0.20999000  0.55388600  1
  N  88  1  0.70871200  0.06012200  0.70836000  1
  N  89  1  0.55013600  0.19881500  0.70871000  1
  N  131  1  0.05736400  0.71001600  0.70430400  1
  N  132  1  0.20197600  0.54956300  0.70412700  1
  N  133  1  0.20885300  0.69928300  0.54950300  1
  N  134  1  0.05022500  0.56058900  0.54932600  1
  N  176  1  0.70214800  0.54941300  0.20455800  1
  N  177  1  0.55786700  0.70978000  0.20434100  1
  N  178  1  0.55055600  0.56044600  0.04958100  1
  N  179  1  0.70933800  0.69878300  0.04943900  1
  N  221  1  0.95829000  0.44948300  0.45780600  1
  N  222  1  0.80014100  0.31051900  0.45825600  1
  N  223  1  0.95167900  0.29947600  0.30366900  1
  N  224  1  0.80649800  0.45978900  0.30286900  1
  N  266  1  0.80144000  0.80978500  0.95792700  1
  N  267  1  0.95936000  0.94874000  0.95819200  1
  N  268  1  0.80771500  0.95962300  0.80362400  1
  N  269  1  0.95302900  0.79959700  0.80266800  1
  N  311  1  0.45826300  0.30992700  0.80026200  1
  N  312  1  0.30031400  0.44910400  0.79978400  1
  N  313  1  0.45167400  0.45956700  0.95474600  1
  N  314  1  0.30655500  0.29964300  0.95516100  1
  N  356  1  0.30143200  0.94942800  0.29994400  1
  N  357  1  0.45949200  0.81043000  0.29974200  1
  N  358  1  0.30794400  0.79973500  0.45428500  1
  N  359  1  0.45307500  0.95988400  0.45509600  1
  N  817  1  0.20226900  0.45141900  0.09512430  1
  N  818  1  0.05769400  0.29088100  0.09539230  1
  N  819  1  0.05073800  0.44059900  0.24998600  1
  N  820  1  0.20944900  0.30195800  0.25005600  1
  N  862  1  0.55718300  0.29102400  0.59525500  1
  N  863  1  0.70184800  0.45151300  0.59555100  1
  N  864  1  0.70871200  0.30164500  0.75002500  1
  N  865  1  0.55013600  0.44033800  0.75037500  1
  N  907  1  0.05736400  0.95153900  0.74596900  1
  N  908  1  0.20197600  0.79108600  0.74579200  1
  N  909  1  0.20885300  0.94080600  0.59116800  1
  N  910  1  0.05022500  0.80211200  0.59099100  1
  N  952  1  0.70214800  0.79093600  0.24622300  1
  N  953  1  0.55786700  0.95130300  0.24600600  1
  N  954  1  0.55055600  0.80196900  0.09124630  1
  N  955  1  0.70933800  0.94030600  0.09110430  1
  N  997  1  0.95829000  0.69100600  0.49947100  1
  N  998  1  0.80014100  0.55204200  0.49992100  1
  N  999  1  0.95167900  0.54099900  0.34533400  1
  N  1000  1  0.80649800  0.70131200  0.34453400  1
  N  1042  1  0.80144000  0.05130760  0.99959200  1
  N  1043  1  0.95936000  0.19026300  0.99985700  1
  N  1044  1  0.80771500  0.20114600  0.84528900  1
  N  1045  1  0.95302900  0.04111960  0.84433300  1
  N  1087  1  0.45826300  0.55145000  0.84192700  1
  N  1088  1  0.30031400  0.69062700  0.84144900  1
  N  1089  1  0.45167400  0.70109000  0.99641100  1
  N  1090  1  0.30655500  0.54116600  0.99682600  1
  N  1132  1  0.30143200  0.19095100  0.34160900  1
  N  1133  1  0.45949200  0.05195260  0.34140700  1
  N  1134  1  0.30794400  0.04125760  0.49595000  1
  N  1135  1  0.45307500  0.20140700  0.49676100  1
  N  1593  1  0.20226900  0.69294100  0.13679000  1
  N  1594  1  0.05769400  0.53240300  0.13705800  1
  N  1595  1  0.05073800  0.68212100  0.29165200  1
  N  1596  1  0.20944900  0.54348000  0.29172200  1
  N  1638  1  0.55718300  0.53254600  0.63692100  1
  N  1639  1  0.70184800  0.69303500  0.63721700  1
  N  1640  1  0.70871200  0.54316700  0.79169100  1
  N  1641  1  0.55013600  0.68186000  0.79204100  1
  N  1683  1  0.05736400  0.19306100  0.78763500  1
  N  1684  1  0.20197600  0.03260810  0.78745800  1
  N  1685  1  0.20885300  0.18232800  0.63283400  1
  N  1686  1  0.05022500  0.04363410  0.63265700  1
  N  1728  1  0.70214800  0.03245810  0.28788900  1
  N  1729  1  0.55786700  0.19282500  0.28767200  1
  N  1730  1  0.55055600  0.04349110  0.13291200  1
  N  1731  1  0.70933800  0.18182800  0.13277000  1
  N  1773  1  0.95829000  0.93252800  0.54113700  1
  N  1774  1  0.80014100  0.79356400  0.54158700  1
  N  1775  1  0.95167900  0.78252100  0.38700000  1
  N  1776  1  0.80649800  0.94283400  0.38620000  1
  N  1818  1  0.80144000  0.29283000  0.04125760  1
  N  1819  1  0.95936000  0.43178500  0.04152260  1
  N  1820  1  0.80771500  0.44266800  0.88695500  1
  N  1821  1  0.95302900  0.28264200  0.88599900  1
  N  1863  1  0.45826300  0.79297200  0.88359300  1
  N  1864  1  0.30031400  0.93214900  0.88311500  1
  N  1865  1  0.45167400  0.94261200  0.03807660  1
  N  1866  1  0.30655500  0.78268800  0.03849160  1
  N  1908  1  0.30143200  0.43247300  0.38327500  1
  N  1909  1  0.45949200  0.29347500  0.38307300  1
  N  1910  1  0.30794400  0.28278000  0.53761600  1
  N  1911  1  0.45307500  0.44292900  0.53842700  1
