data_image0
_chemical_formula_structural       Mn5CN8C2N8CN16Cl2C4Mn5CN8C2N8CN16Cl2C4Mn5CN8C2N8CN16Cl2C4Mn5CN8C2N8CN16Cl2C13F2CF2CFCFH10C9F2CF2CFCFH10C9F2CF2CFCFH10C9F2CF2CFCFH10C9F2CF2CFCFH10C9F2CF2CFCFH10C9F2CF2CFCFH10C9F2CF2CFCFH10C9F2CF2CFCFH10C9F2CF2CFCFH10C9F2CF2CFCFH10C9F2CF2CFCFH10C9F2CF2CFCFH10C9F2CF2CFCFH10C9F2CF2CFCFH10C9F2CF2CFCFH10
_chemical_formula_sum              "Mn20 C224 N128 Cl8 F96 H160"
_cell_length_a       14.8357
_cell_length_b       30.1658
_cell_length_c       36.6601
_cell_angle_alpha    111.90570000000001
_cell_angle_beta     89.4632
_cell_angle_gamma    92.8014

_symmetry_space_group_name_H-M    'P 1'
_symmetry_Int_Tables_number       1

loop_
  _symmetry_equiv_pos_as_xyz
  'x,y,z'

loop_
  _atom_site_type_symbol
  _atom_site_label
  _atom_site_symmetry_multiplicity
  _atom_site_fract_x
  _atom_site_fract_y
  _atom_site_fract_z
  _atom_site_occupancy
  Mn  Mn1       1.0  0.57971  0.09882999999999995  0.3796  1.0000
  Mn  Mn2       1.0  0.7803900000000003  0.16039  0.41788  1.0000
  Mn  Mn3       1.0  0.9198400000000001  0.40822  0.65183  1.0000
  Mn  Mn4       1.0  0.7236  0.34324  0.612  1.0000
  Mn  Mn5       1.0  0.7535  0.25532  0.51353  1.0000
  C   C1        1.0  0.64237  0.13835  0.3166700000000001  1.0000
  N   N1        1.0  0.6523200000000001  0.13513000000000006  0.3519600000000001  1.0000
  N   N2        1.0  0.72885  0.15883  0.36646  1.0000
  N   N3        1.0  0.76649  0.17570000000000005  0.3411300000000001  1.0000
  N   N4        1.0  0.71347  0.16368999999999995  0.3096  1.0000
  N   N5        1.0  0.85124  0.247  0.40604  1.0000
  N   N6        1.0  0.8253400000000002  0.22927999999999996  0.43246  1.0000
  N   N7        1.0  0.81301  0.26449  0.46654  1.0000
  N   N8        1.0  0.8317  0.3061599999999999  0.46316  1.0000
  C   C2        1.0  0.8569900000000003  0.2946599999999999  0.42534  1.0000
  C   C3        1.0  0.8996600000000002  0.1447  0.51194  1.0000
  N   N9        1.0  0.82913  0.16024999999999995  0.46882  1.0000
  N   N10       1.0  0.88047  0.1277  0.47295  1.0000
  N   N11       1.0  0.64824  0.21712999999999996  0.47752  1.0000
  N   N12       1.0  0.6618  0.1819  0.44366  1.0000
  N   N13       1.0  0.58472  0.15957  0.42829  1.0000
  N   N14       1.0  0.51691  0.18000999999999995  0.4509  1.0000
  N   N15       1.0  0.81841  0.1950300000000001  0.5030700000000002  1.0000
  N   N16       1.0  0.8621500000000002  0.18676999999999994  0.53082  1.0000
  C   C4        1.0  0.5565400000000003  0.21629  0.4816  1.0000
  N   N17       1.0  0.85621  0.3647199999999999  0.6753  1.0000
  N   N18       1.0  0.78136  0.3392800000000001  0.66054  1.0000
  N   N19       1.0  0.76764  0.3059899999999999  0.67571  1.0000
  N   N20       1.0  0.83419  0.3096199999999999  0.7009  1.0000
  N   N21       1.0  0.6319000000000001  0.25437999999999994  0.6148200000000001  1.0000
  N   N22       1.0  0.6787600000000003  0.2745599999999999  0.59369  1.0000
  N   N23       1.0  0.6933600000000002  0.24283  0.55844  1.0000
  N   N24       1.0  0.6584  0.20046000000000005  0.5553300000000002  1.0000
  N   N25       1.0  0.6696000000000002  0.3367499999999999  0.50084  1.0000
  N   N26       1.0  0.68843  0.3172600000000001  0.5265900000000002  1.0000
  N   N27       1.0  0.6741199999999999  0.34798  0.56265  1.0000
  N   N28       1.0  0.64769  0.3884899999999999  0.56143  1.0000
  N   N29       1.0  0.8589800000000002  0.2939700000000001  0.5496600000000003  1.0000
  N   N30       1.0  0.84304  0.32658  0.58474  1.0000
  N   N31       1.0  0.91801  0.3511400000000001  0.6005900000000002  1.0000
  N   N32       1.0  0.98702  0.33466000000000007  0.5774600000000002  1.0000
  Cl  Cl1       1.0  0.71708  0.08514000000000005  0.4009300000000001  1.0000
  Cl  Cl2       1.0  0.77958  0.42023  0.6338  1.0000
  C   C5        1.0  0.88871  0.34655999999999987  0.70034  1.0000
  C   C6        1.0  0.62086  0.20798  0.5906  1.0000
  C   C7        1.0  0.6429600000000002  0.38085  0.52285  1.0000
  C   C8        1.0  0.9508  0.2989099999999999  0.54556  1.0000
  Mn  Mn6       1.0  0.05516999999999994  0.60737  0.37053000000000014  1.0000
  Mn  Mn7       1.0  0.25495  0.67026  0.40850000000000003  1.0000
  Mn  Mn8       1.0  0.3894500000000001  0.9042799999999998  0.65269  1.0000
  Mn  Mn9       1.0  0.19421999999999998  0.8432799999999998  0.60696  1.0000
  Mn  Mn10      1.0  0.22994  0.7563099999999999  0.5084900000000002  1.0000
  C   C9        1.0  0.08078  0.67403  0.3256900000000001  1.0000
  N   N33       1.0  0.11622999999999999  0.65228  0.3477200000000001  1.0000
  N   N34       1.0  0.19489000000000004  0.67488  0.36052000000000006  1.0000
  N   N35       1.0  0.20967999999999998  0.7085799999999998  0.34595  1.0000
  N   N36       1.0  0.13929  0.70895  0.32396  1.0000
  N   N37       1.0  0.3340100000000001  0.7622499999999999  0.40566  1.0000
  N   N38       1.0  0.29888  0.7400200000000001  0.42792000000000013  1.0000
  N   N39       1.0  0.28966  0.7708499999999999  0.46423  1.0000
  N   N40       1.0  0.31775  0.8142199999999999  0.4669500000000001  1.0000
  C   C10       1.0  0.34516999999999987  0.80842  0.4304100000000001  1.0000
  C   C11       1.0  0.37370999999999993  0.64002  0.49629  1.0000
  N   N41       1.0  0.30723  0.66432  0.45723  1.0000
  N   N42       1.0  0.3566600000000001  0.62922  0.4576500000000001  1.0000
  N   N43       1.0  0.12505  0.7196199999999998  0.4719900000000001  1.0000
  N   N44       1.0  0.13768  0.68729  0.43666  1.0000
  N   N45       1.0  0.06133  0.66331  0.42217  1.0000
  N   N46       1.0  0.99488  0.67961  0.44693  1.0000
  N   N47       1.0  0.29462  0.6946899999999998  0.49356000000000005  1.0000
  N   N48       1.0  0.33572000000000013  0.6807599999999998  0.51891  1.0000
  C   C12       1.0  0.0347  0.7150399999999999  0.47806000000000004  1.0000
  N   N49       1.0  0.31515  0.86237  0.67475  1.0000
  N   N50       1.0  0.24149  0.8381199999999998  0.65692  1.0000
  N   N51       1.0  0.20545999999999998  0.8136799999999997  0.67724  1.0000
  N   N52       1.0  0.25598000000000004  0.8218199999999999  0.7090300000000002  1.0000
  N   N53       1.0  0.10386999999999996  0.7534799999999998  0.60766  1.0000
  N   N54       1.0  0.14947000000000005  0.77416  0.58676  1.0000
  N   N55       1.0  0.16951  0.74198  0.55228  1.0000
  N   N56       1.0  0.13815  0.699  0.5493000000000002  1.0000
  N   N57       1.0  0.13172999999999999  0.8311099999999999  0.49465000000000003  1.0000
  N   N58       1.0  0.16428999999999994  0.8170799999999996  0.5217  1.0000
  N   N59       1.0  0.15156999999999998  0.84935  0.55709  1.0000
  N   N60       1.0  0.11092  0.88614  0.55442  1.0000
  N   N61       1.0  0.33343  0.7939400000000001  0.54694  1.0000
  N   N62       1.0  0.31547  0.8254600000000001  0.5823500000000001  1.0000
  N   N63       1.0  0.39008  0.84778  0.60068  1.0000
  N   N64       1.0  0.46069999999999994  0.83093  0.57877  1.0000
  Cl  Cl3       1.0  0.19708  0.59362  0.3863600000000001  1.0000
  Cl  Cl4       1.0  0.25469  0.9195299999999997  0.63073  1.0000
  C   C13       1.0  0.32418  0.8524399999999999  0.70735  1.0000
  C   C14       1.0  0.09759  0.70675  0.58397  1.0000
  C   C15       1.0  0.09928999999999998  0.8740399999999996  0.51523  1.0000
  C   C16       1.0  0.4258099999999999  0.7973000000000002  0.5452400000000002  1.0000
  Mn  Mn11      1.0  0.09925000000000006  0.4064900000000001  0.15595000000000006  1.0000
  Mn  Mn12      1.0  0.29304  0.34627  0.1228  1.0000
  Mn  Mn13      1.0  0.4574800000000001  0.11524  0.89141  1.0000
  Mn  Mn14      1.0  0.25824  0.17224999999999993  0.92116  1.0000
  Mn  Mn15      1.0  0.27181  0.2609  0.02148  1.0000
  C   C17       1.0  0.13374  0.3628199999999999  0.21706000000000006  1.0000
  N   N65       1.0  0.15329  0.36661  0.18265  1.0000
  N   N66       1.0  0.22562000000000001  0.34203  0.1697  1.0000
  N   N67       1.0  0.25145  0.32359  0.19523000000000004  1.0000
  N   N68       1.0  0.19444000000000006  0.3356599999999999  0.22519000000000003  1.0000
  N   N69       1.0  0.3519400000000001  0.25585  0.12785  1.0000
  N   N70       1.0  0.3265800000000001  0.27783  0.10469000000000003  1.0000
  N   N71       1.0  0.31925  0.24735999999999994  0.06798  1.0000
  N   N72       1.0  0.34020000000000006  0.20440999999999998  0.06585  1.0000
  C   C18       1.0  0.36087  0.21014999999999995  0.10308  1.0000
  C   C19       1.0  0.41388  0.38901  0.04215  1.0000
  N   N73       1.0  0.35621  0.3531899999999999  0.07672  1.0000
  N   N74       1.0  0.3997  0.3933599999999999  0.07949000000000003  1.0000
  N   N75       1.0  0.16434  0.2950699999999999  0.055000000000000014  1.0000
  N   N76       1.0  0.1779  0.3271399999999999  0.09113  1.0000
  N   N77       1.0  0.10307  0.34847  0.10539  1.0000
  N   N78       1.0  0.03639999999999999  0.32997  0.08019  1.0000
  N   N79       1.0  0.34288000000000013  0.32531  0.03946000000000001  1.0000
  N   N80       1.0  0.3776000000000001  0.34692  0.0165  1.0000
  C   C20       1.0  0.07364  0.29668  0.04864  1.0000
  N   N81       1.0  0.4054300000000001  0.15573000000000006  0.8643700000000001  1.0000
  N   N82       1.0  0.32951000000000014  0.17771000000000006  0.87543  1.0000
  N   N83       1.0  0.3116  0.20177  0.85291  1.0000
  N   N84       1.0  0.37681  0.19579999999999995  0.82663  1.0000
  N   N85       1.0  0.19781  0.26012  0.91301  1.0000
  N   N86       1.0  0.22059999999999996  0.24029999999999996  0.93794  1.0000
  N   N87       1.0  0.22664  0.2729  0.97397  1.0000
  N   N88       1.0  0.20829000000000003  0.31518999999999997  0.9735600000000001  1.0000
  N   N89       1.0  0.17059  0.17647  0.02853  1.0000
  N   N90       1.0  0.20021  0.19676  0.00399  1.0000
  N   N91       1.0  0.19357  0.16536999999999996  0.96744  1.0000
  N   N92       1.0  0.16088  0.12377999999999993  0.9671600000000001  1.0000
  N   N93       1.0  0.37970999999999994  0.22701999999999992  0.98916  1.0000
  N   N94       1.0  0.37057  0.1932  0.9539  1.0000
  N   N95       1.0  0.44694  0.17180999999999996  0.94257  1.0000
  N   N96       1.0  0.51027  0.19149999999999995  0.96956  1.0000
  Cl  Cl5       1.0  0.24539999999999998  0.4222499999999999  0.14281  1.0000
  Cl  Cl6       1.0  0.3105200000000001  0.09726999999999995  0.90208  1.0000
  C   C21       1.0  0.43484  0.1668300000000001  0.8339900000000002  1.0000
  C   C22       1.0  0.18862  0.30653  0.9355  1.0000
  C   C23       1.0  0.14537  0.13118  0.00522  1.0000
  C   C24       1.0  0.4680800000000001  0.22625000000000006  0.9985300000000001  1.0000
  Mn  Mn16      1.0  0.4845200000000001  0.82707  0.12975000000000006  1.0000
  Mn  Mn17      1.0  0.7070800000000003  0.80748  0.10343  1.0000
  Mn  Mn18      1.0  0.97308  0.62805  0.8722100000000002  1.0000
  Mn  Mn19      1.0  0.7507600000000001  0.64732  0.8987  1.0000
  Mn  Mn20      1.0  0.72889  0.72632  0.00129  1.0000
  C   C25       1.0  0.54255  0.7644999999999997  0.17399  1.0000
  N   N97       1.0  0.56383  0.7928599999999999  0.15403  1.0000
  N   N98       1.0  0.65028  0.7874499999999998  0.14582  1.0000
  N   N99       1.0  0.6828  0.7582199999999999  0.16121  1.0000
  N   N100      1.0  0.61684  0.74327  0.17919000000000004  1.0000
  N   N101      1.0  0.83002  0.7345  0.10828000000000003  1.0000
  N   N102      1.0  0.7835  0.74951  0.08489000000000002  1.0000
  N   N103      1.0  0.78851  0.71914  0.04815  1.0000
  N   N104      1.0  0.83769  0.68301  0.046410000000000014  1.0000
  C   C26       1.0  0.86297  0.6929499999999997  0.08398000000000003  1.0000
  C   C27       1.0  0.81616  0.86589  0.028050000000000005  1.0000
  N   N105      1.0  0.75771  0.82701  0.06034  1.0000
  N   N106      1.0  0.7910900000000002  0.8701999999999998  0.06474  1.0000
  N   N107      1.0  0.60956  0.73809  0.03159  1.0000
  N   N108      1.0  0.6048  0.7716099999999998  0.06708  1.0000
  N   N109      1.0  0.52011  0.7782999999999999  0.07781  1.0000
  N   N110      1.0  0.46601  0.7477299999999998  0.050960000000000005  1.0000
  N   N111      1.0  0.76167  0.79785  0.02317  1.0000
  N   N112      1.0  0.79793  0.8210399999999998  0.001970000000000001  1.0000
  C   C28       1.0  0.52177  0.72215  0.02209  1.0000
  N   N113      1.0  0.89302  0.6612699999999998  0.8479  1.0000
  N   N114      1.0  0.80752  0.66873  0.85714  1.0000
  N   N115      1.0  0.7789000000000003  0.7011  0.84423  1.0000
  N   N116      1.0  0.84645  0.71556  0.8266200000000001  1.0000
  N   N117      1.0  0.6154900000000001  0.7153  0.89567  1.0000
  N   N118      1.0  0.67262  0.70412  0.91793  1.0000
  N   N119      1.0  0.66841  0.73438  0.95468  1.0000
  N   N120      1.0  0.61022  0.7673699999999998  0.9573  1.0000
  N   N121      1.0  0.6940600000000002  0.62754  0.00040000000000000013  1.0000
  N   N122      1.0  0.6989400000000002  0.65412  0.9787100000000001  1.0000
  N   N123      1.0  0.7025200000000003  0.62601  0.94112  1.0000
  N   N124      1.0  0.6998600000000003  0.58065  0.9373  1.0000
  N   N125      1.0  0.8480200000000002  0.7147499999999998  0.97138  1.0000
  N   N126      1.0  0.8523700000000001  0.68383  0.9347900000000002  1.0000
  N   N127      1.0  0.93681  0.6781999999999998  0.92347  1.0000
  N   N128      1.0  0.9911  0.7067900000000001  0.9512700000000001  1.0000
  Cl  Cl7       1.0  0.61328  0.8691499999999999  0.12402000000000002  1.0000
  Cl  Cl8       1.0  0.8453000000000003  0.5859199999999999  0.87737  1.0000
  C   C29       1.0  0.91764  0.69096  0.82986  1.0000
  C   C30       1.0  0.5793100000000001  0.7558400000000001  0.9200800000000001  1.0000
  C   C31       1.0  0.6936400000000001  0.5819700000000001  0.9743400000000001  1.0000
  C   C32       1.0  0.93589  0.7295700000000002  0.9814700000000001  1.0000
  C   C33       1.0  0.5034  0.24978  0.51521  1.0000
  C   C34       1.0  0.40548999999999996  0.2522900000000001  0.5036800000000002  1.0000
  C   C35       1.0  0.33948  0.21427  0.49786  1.0000
  C   C36       1.0  0.35916000000000003  0.17277999999999996  0.50994  1.0000
  C   C37       1.0  0.25364  0.21576000000000004  0.48107000000000005  1.0000
  C   C38       1.0  0.19155999999999998  0.17112000000000002  0.4649500000000001  1.0000
  C   C39       1.0  0.22848999999999997  0.25891  0.47749  1.0000
  C   C40       1.0  0.13545  0.26522  0.46302  1.0000
  C   C41       1.0  0.07369  0.29712000000000005  0.49604000000000004  1.0000
  F   F1        1.0  0.12568  0.33095999999999987  0.52555  1.0000
  F   F2        1.0  0.019900000000000032  0.32147  0.47995  1.0000
  C   C42       1.0  0.011910000000000087  0.26760000000000006  0.5138800000000001  1.0000
  F   F3        1.0  0.06556000000000006  0.24483  0.53143  1.0000
  F   F4        1.0  0.96338  0.23326999999999998  0.48407  1.0000
  C   C43       1.0  0.2934600000000002  0.29687  0.48539000000000004  1.0000
  F   F5        1.0  0.27312999999999993  0.3375999999999999  0.48023000000000005  1.0000
  C   C44       1.0  0.38080000000000014  0.29308  0.49701  1.0000
  F   F6        1.0  0.4419  0.32979  0.50146  1.0000
  H   H1        1.0  0.50732  0.2402400000000001  0.5414300000000002  1.0000
  H   H2        1.0  0.53617  0.28572  0.52473  1.0000
  H   H3        1.0  0.2978300000000001  0.16118  0.52234  1.0000
  H   H4        1.0  0.4100900000000001  0.18255  0.53381  1.0000
  H   H5        1.0  0.3829400000000001  0.14234  0.48429  1.0000
  H   H6        1.0  0.17503  0.16363000000000003  0.43368  1.0000
  H   H7        1.0  0.22251  0.13842  0.46482  1.0000
  H   H8        1.0  0.1284  0.17549  0.48196  1.0000
  H   H9        1.0  0.1459  0.28189  0.44076  1.0000
  H   H10       1.0  0.09956000000000002  0.23059999999999997  0.44625  1.0000
  C   C45       1.0  0.98318  0.74317  0.51433  1.0000
  C   C46       1.0  0.88546  0.7470399999999998  0.50441  1.0000
  C   C47       1.0  0.81963  0.70843  0.49611  1.0000
  C   C48       1.0  0.84174  0.66193  0.50044  1.0000
  C   C49       1.0  0.7305  0.7137199999999998  0.4843700000000001  1.0000
  C   C50       1.0  0.66204  0.6717999999999997  0.47507000000000005  1.0000
  C   C51       1.0  0.70837  0.7577799999999999  0.48148  1.0000
  C   C52       1.0  0.6178700000000003  0.7666399999999998  0.46689  1.0000
  C   C53       1.0  0.55592  0.79749  0.50021  1.0000
  F   F7        1.0  0.6074500000000003  0.82716  0.53214  1.0000
  F   F8        1.0  0.50872  0.82633  0.48612  1.0000
  C   C54       1.0  0.48738  0.76675  0.5137  1.0000
  F   F9        1.0  0.43959999999999994  0.7367  0.48135  1.0000
  F   F10       1.0  0.53353  0.73954  0.5297300000000003  1.0000
  C   C55       1.0  0.77444  0.79533  0.49082000000000003  1.0000
  F   F11       1.0  0.75579  0.8375699999999999  0.48793  1.0000
  C   C56       1.0  0.86045  0.7902599999999997  0.50253  1.0000
  F   F12       1.0  0.92039  0.82815  0.51162  1.0000
  H   H11       1.0  0.98527  0.72704  0.53672  1.0000
  H   H12       1.0  0.016620000000000086  0.77894  0.52851  1.0000
  H   H13       1.0  0.8007900000000002  0.65748  0.52445  1.0000
  H   H14       1.0  0.91305  0.65958  0.50756  1.0000
  H   H15       1.0  0.82652  0.6312199999999998  0.47257  1.0000
  H   H16       1.0  0.5925900000000002  0.6794799999999998  0.46968  1.0000
  H   H17       1.0  0.68343  0.6416699999999997  0.44857  1.0000
  H   H18       1.0  0.65765  0.6598799999999999  0.5002600000000001  1.0000
  H   H19       1.0  0.63245  0.7860899999999997  0.44696  1.0000
  H   H20       1.0  0.58243  0.73349  0.4469500000000001  1.0000
  C   C57       1.0  0.51713  0.26231999999999994  0.033479999999999954  1.0000
  C   C58       1.0  0.61811  0.26672999999999997  0.027190000000000047  1.0000
  C   C59       1.0  0.68209  0.26695  0.05572  1.0000
  C   C60       1.0  0.65612  0.24500999999999992  0.08565  1.0000
  C   C61       1.0  0.77016  0.2883  0.055980000000000016  1.0000
  C   C62       1.0  0.82985  0.30218  0.09232000000000003  1.0000
  C   C63       1.0  0.79839  0.2999999999999999  0.02314  1.0000
  C   C64       1.0  0.88717  0.32719  0.02218  1.0000
  C   C65       1.0  0.96198  0.29706  0.9958000000000001  1.0000
  F   F13       1.0  0.92376  0.2668400000000001  0.9603700000000001  1.0000
  F   F14       1.0  0.022320000000000007  0.32849  0.98761  1.0000
  C   C66       1.0  0.015839999999999993  0.26654  0.013220000000000003  1.0000
  F   F15       1.0  0.9567199999999999  0.23675999999999994  0.023900000000000008  1.0000
  F   F16       1.0  0.06816  0.23751999999999998  0.9837400000000001  1.0000
  C   C67       1.0  0.73671  0.29267  0.9923600000000001  1.0000
  F   F17       1.0  0.7604600000000002  0.3046699999999999  0.96121  1.0000
  C   C68       1.0  0.64744  0.27837000000000006  0.99516  1.0000
  F   F18       1.0  0.58798  0.2783999999999998  0.9672  1.0000
  H   H21       1.0  0.49931  0.25516  0.06014999999999993  1.0000
  H   H22       1.0  0.49336000000000024  0.29799  0.03841000000000006  1.0000
  H   H23       1.0  0.71458  0.22864999999999994  0.09352  1.0000
  H   H24       1.0  0.60528  0.21489  0.07335000000000003  1.0000
  H   H25       1.0  0.62906  0.27248  0.11249  1.0000
  H   H26       1.0  0.85064  0.34072  0.10292  1.0000
  H   H27       1.0  0.7953100000000002  0.29798  0.11779999999999999  1.0000
  H   H28       1.0  0.8897700000000001  0.28028  0.08614  1.0000
  H   H29       1.0  0.87198  0.35509  0.01038  1.0000
  H   H30       1.0  0.91184  0.34954  0.05172  1.0000
  C   C69       1.0  0.97352  0.76235  0.02121  1.0000
  C   C70       1.0  0.07446999999999998  0.7550099999999998  0.02281  1.0000
  C   C71       1.0  0.14142  0.79029  0.02311  1.0000
  C   C72       1.0  0.12058000000000003  0.84269  0.04008  1.0000
  C   C73       1.0  0.22831000000000004  0.7758100000000001  0.007360000000000255  1.0000
  C   C74       1.0  0.29496  0.81123  0.9999600000000001  1.0000
  C   C75       1.0  0.25001  0.72682  0.9954800000000001  1.0000
  C   C76       1.0  0.33863  0.7087499999999999  0.9746500000000001  1.0000
  C   C77       1.0  0.38412999999999997  0.67081  0.9866900000000001  1.0000
  F   F19       1.0  0.35366  0.67168  0.02285  1.0000
  F   F20       1.0  0.36156  0.6258299999999998  0.9588800000000001  1.0000
  C   C78       1.0  0.48813999999999996  0.6773599999999999  0.9884400000000001  1.0000
  F   F21       1.0  0.51883  0.6775699999999999  0.9529200000000001  1.0000
  F   F22       1.0  0.51994  0.63814  0.99403  1.0000
  C   C79       1.0  0.18448  0.6938099999999998  0.99977  1.0000
  F   F23       1.0  0.19832000000000005  0.64625  0.9859600000000001  1.0000
  C   C80       1.0  0.10011000000000002  0.70813  0.01489  1.0000
  F   F24       1.0  0.03737  0.67381  0.014740000000000001  1.0000
  H   H31       1.0  0.9585500000000001  0.79932  0.025050000000000003  1.0000
  H   H32       1.0  0.9409  0.7545699999999999  0.045390000000000014  1.0000
  H   H33       1.0  0.17776000000000006  0.8640999999999998  0.05880000000000001  1.0000
  H   H34       1.0  0.061940000000000016  0.84929  0.06003000000000001  1.0000
  H   H35       1.0  0.10807  0.85597  0.016170000000000007  1.0000
  H   H36       1.0  0.3559300000000001  0.81669  0.018769999999999953  1.0000
  H   H37       1.0  0.31422  0.7973200000000001  0.9684800000000001  1.0000
  H   H38       1.0  0.26760999999999996  0.8465999999999998  0.0055400000000000015  1.0000
  H   H39       1.0  0.3246999999999999  0.69319  0.94247  1.0000
  H   H40       1.0  0.3884800000000001  0.7387800000000001  0.9789500000000001  1.0000
  C   C81       1.0  0.056809999999999986  0.90362  0.49581000000000003  1.0000
  C   C82       1.0  0.045769999999999984  0.9545499999999998  0.52371  1.0000
  C   C83       1.0  0.11453  0.99092  0.52925  1.0000
  C   C84       1.0  0.20522  0.97713  0.50972  1.0000
  C   C85       1.0  0.09674000000000002  0.03948  0.55228  1.0000
  C   C86       1.0  0.16867  0.07830999999999999  0.55506  1.0000
  C   C87       1.0  0.010799999999999923  0.050180000000000016  0.57066  1.0000
  C   C88       1.0  0.9812100000000001  0.10064999999999993  0.59315  1.0000
  C   C89       1.0  0.9174600000000002  0.11864999999999999  0.56905  1.0000
  F   F25       1.0  0.8405400000000001  0.08863000000000007  0.5580000000000003  1.0000
  F   F26       1.0  0.89131  0.16331000000000012  0.5938900000000003  1.0000
  C   C90       1.0  0.9616300000000002  0.12268  0.53183  1.0000
  F   F27       1.0  0.03970000000000007  0.15168999999999988  0.54228  1.0000
  F   F28       1.0  0.9827900000000003  0.07795  0.50537  1.0000
  C   C91       1.0  0.94773  0.012489999999999887  0.56736  1.0000
  F   F29       1.0  0.86775  0.02116000000000007  0.5865200000000002  1.0000
  C   C92       1.0  0.96439  0.9656899999999998  0.54387  1.0000
  F   F30       1.0  0.8996600000000002  0.93089  0.54044  1.0000
  H   H41       1.0  0.09785  0.9028  0.47016000000000013  1.0000
  H   H42       1.0  0.9907  0.88627  0.48300000000000004  1.0000
  H   H43       1.0  0.25912  0.0056700000000000075  0.52027  1.0000
  H   H44       1.0  0.19825999999999996  0.9671399999999998  0.47749  1.0000
  H   H45       1.0  0.22996000000000005  0.94636  0.51572  1.0000
  H   H46       1.0  0.14972  0.1153300000000001  0.5707900000000002  1.0000
  H   H47       1.0  0.22906  0.07362000000000002  0.57066  1.0000
  H   H48       1.0  0.18731  0.07600999999999998  0.52499  1.0000
  H   H49       1.0  0.9446500000000002  0.10098000000000001  0.61986  1.0000
  H   H50       1.0  0.0376  0.12714  0.60568  1.0000
  C   C93       1.0  0.14174000000000006  0.09058  0.01945  1.0000
  C   C94       1.0  0.05251  0.08118999999999997  0.03653  1.0000
  C   C95       1.0  0.97397  0.06308  0.0127  1.0000
  C   C96       1.0  0.9699900000000001  0.06674000000000006  0.9725700000000002  1.0000
  C   C97       1.0  0.9017500000000003  0.04054  0.02645  1.0000
  C   C98       1.0  0.8138100000000003  0.026040000000000063  0.003550000000000001  1.0000
  C   C99       1.0  0.91343  0.03242999999999996  0.061880000000000004  1.0000
  C   C100      1.0  0.8649700000000002  0.99081  0.06947  1.0000
  C   C101      1.0  0.9178  0.94398  0.05186  1.0000
  F   F31       1.0  0.0011900000000000337  0.95395  0.03831000000000001  1.0000
  F   F32       1.0  0.9365800000000001  0.9280299999999998  0.08174  1.0000
  C   C102      1.0  0.8678200000000003  0.9033299999999997  0.01702  1.0000
  F   F33       1.0  0.80916  0.92181  0.99787  1.0000
  F   F34       1.0  0.93165  0.87963  0.98976  1.0000
  C   C103      1.0  0.98565  0.05662999999999996  0.08711  1.0000
  F   F35       1.0  0.99608  0.05186000000000002  0.12222  1.0000
  C   C104      1.0  0.05307  0.08161999999999997  0.07497  1.0000
  F   F36       1.0  0.12446000000000003  0.10170999999999998  0.09952000000000003  1.0000
  H   H51       1.0  0.15835000000000002  0.057189999999999984  0.99471  1.0000
  H   H52       1.0  0.19823  0.09720000000000001  0.04080000000000002  1.0000
  H   H53       1.0  0.9092000000000002  0.04906000000000002  0.95498  1.0000
  H   H54       1.0  0.02833  0.049490000000000006  0.95464  1.0000
  H   H55       1.0  0.97115  0.10499000000000001  0.97624  1.0000
  H   H56       1.0  0.75798  0.016610000000000017  0.01989000000000001  1.0000
  H   H57       1.0  0.79031  0.05686000000000002  0.99723  1.0000
  H   H58       1.0  0.82346  0.9954199999999997  0.97553  1.0000
  H   H59       1.0  0.85894  0.0005100000000000178  0.10175000000000002  1.0000
  H   H60       1.0  0.79367  0.9848499999999998  0.05977  1.0000
  C   C105      1.0  0.64989  0.42138999999999993  0.5087100000000001  1.0000
  C   C106      1.0  0.56236  0.43263  0.4937500000000001  1.0000
  C   C107      1.0  0.49002  0.4529600000000001  0.5193600000000003  1.0000
  C   C108      1.0  0.4892100000000001  0.45314  0.5608  1.0000
  C   C109      1.0  0.4211  0.47473  0.50613  1.0000
  C   C110      1.0  0.33703  0.4906699999999999  0.53017  1.0000
  C   C111      1.0  0.43235  0.48157  0.47011  1.0000
  C   C112      1.0  0.40059  0.52634  0.46544  1.0000
  C   C113      1.0  0.4727500000000001  0.56863  0.48207  1.0000
  F   F37       1.0  0.54353  0.5559199999999997  0.50013  1.0000
  F   F38       1.0  0.50968  0.57955  0.45138  1.0000
  C   C114      1.0  0.4341800000000001  0.61377  0.51298  1.0000
  F   F39       1.0  0.38707  0.60167  0.54095  1.0000
  F   F40       1.0  0.50522  0.64512  0.53196  1.0000
  C   C115      1.0  0.4965100000000001  0.45556999999999986  0.44337  1.0000
  F   F41       1.0  0.50482  0.45909000000000005  0.40760000000000013  1.0000
  C   C116      1.0  0.5597000000000001  0.43058999999999986  0.45480000000000004  1.0000
  F   F42       1.0  0.62529  0.40930000000000005  0.4289900000000001  1.0000
  H   H61       1.0  0.6767600000000003  0.45413999999999993  0.53289  1.0000
  H   H62       1.0  0.7029600000000003  0.41316  0.48587  1.0000
  H   H63       1.0  0.4355399999999999  0.47418  0.5796000000000002  1.0000
  H   H64       1.0  0.55361  0.46942  0.57619  1.0000
  H   H65       1.0  0.47887  0.41596  0.55958  1.0000
  H   H66       1.0  0.28061  0.49524  0.51251  1.0000
  H   H67       1.0  0.31182  0.46256  0.54101  1.0000
  H   H68       1.0  0.35189000000000004  0.5245800000000002  0.5555000000000002  1.0000
  H   H69       1.0  0.38816  0.51898  0.43382  1.0000
  H   H70       1.0  0.3341  0.53639  0.47916  1.0000
  C   C117      1.0  0.44552000000000014  0.43158  0.033120000000000004  1.0000
  C   C118      1.0  0.48339000000000004  0.42191000000000006  0.9926100000000001  1.0000
  C   C119      1.0  0.44998  0.44510999999999995  0.9686100000000001  1.0000
  C   C120      1.0  0.35172999999999993  0.45725  0.97096  1.0000
  C   C121      1.0  0.51092  0.4581799999999999  0.9436200000000001  1.0000
  C   C122      1.0  0.48361000000000004  0.49072  0.92296  1.0000
  C   C123      1.0  0.60068  0.4425399999999999  0.93987  1.0000
  C   C124      1.0  0.67587  0.4641299999999999  0.9221  1.0000
  C   C125      1.0  0.74656  0.49587  0.9529900000000001  1.0000
  F   F43       1.0  0.78721  0.46822999999999987  0.97034  1.0000
  F   F44       1.0  0.8140900000000002  0.51106  0.9333200000000003  1.0000
  C   C126      1.0  0.70891  0.54024  0.98629  1.0000
  F   F45       1.0  0.6298100000000002  0.52852  0.0015000000000000568  1.0000
  F   F46       1.0  0.77204  0.55584  0.016560000000000002  1.0000
  C   C127      1.0  0.62274  0.40886  0.95605  1.0000
  F   F47       1.0  0.70278  0.3873999999999999  0.94792  1.0000
  C   C128      1.0  0.56687  0.4007800000000001  0.9838300000000001  1.0000
  F   F48       1.0  0.59896  0.37713999999999986  0.00561  1.0000
  H   H71       1.0  0.39037  0.4569199999999999  0.04049  1.0000
  H   H72       1.0  0.50015  0.45076  0.054560000000000004  1.0000
  H   H73       1.0  0.3221600000000001  0.44605  0.94099  1.0000
  H   H74       1.0  0.3452  0.49626999999999993  0.98667  1.0000
  H   H75       1.0  0.3104700000000001  0.4377300000000001  0.9860900000000001  1.0000
  H   H76       1.0  0.4952900000000001  0.47318  0.8908  1.0000
  H   H77       1.0  0.41196999999999995  0.5000199999999998  0.92707  1.0000
  H   H78       1.0  0.52461  0.52502  0.9346200000000002  1.0000
  H   H79       1.0  0.71086  0.43449  0.8996300000000003  1.0000
  H   H80       1.0  0.6501500000000002  0.4854  0.90589  1.0000
  C   C129      1.0  0.8547100000000002  0.3288199999999999  0.40434  1.0000
  C   C130      1.0  0.94365  0.3391600000000001  0.38718000000000014  1.0000
  C   C131      1.0  0.9871900000000002  0.30415  0.35512  1.0000
  C   C132      1.0  0.9542100000000002  0.25216  0.3397400000000001  1.0000
  C   C133      1.0  0.05896999999999996  0.31887  0.33561  1.0000
  C   C134      1.0  0.12028  0.28248999999999996  0.30815  1.0000
  C   C135      1.0  0.07197999999999992  0.36797999999999986  0.342  1.0000
  C   C136      1.0  0.10739999999999995  0.38385  0.30955000000000005  1.0000
  C   C137      1.0  0.03462000000000009  0.3722199999999999  0.27677  1.0000
  F   F49       1.0  0.014729999999999912  0.32341  0.26004000000000005  1.0000
  F   F50       1.0  0.9563000000000001  0.39397  0.29377  1.0000
  C   C138      1.0  0.06127000000000001  0.39024  0.24382  1.0000
  F   F51       1.0  0.08947999999999999  0.4380799999999998  0.25983  1.0000
  F   F52       1.0  0.9851300000000002  0.38625  0.22098000000000007  1.0000
  C   C139      1.0  0.03428000000000009  0.40184  0.37544  1.0000
  F   F53       1.0  0.048680000000000063  0.44940999999999987  0.3836100000000001  1.0000
  C   C140      1.0  0.9746400000000001  0.38737000000000005  0.3988700000000001  1.0000
  F   F54       1.0  0.9384400000000003  0.42169  0.4303800000000001  1.0000
  H   H81       1.0  0.80398  0.31474999999999986  0.38015  1.0000
  H   H82       1.0  0.8265400000000002  0.36225  0.42505  1.0000
  H   H83       1.0  0.9788300000000001  0.23164  0.3098700000000001  1.0000
  H   H84       1.0  0.87969  0.24899  0.33676  1.0000
  H   H85       1.0  0.9780000000000001  0.2347  0.3594  1.0000
  H   H86       1.0  0.18526000000000004  0.29897000000000007  0.30320000000000014  1.0000
  H   H87       1.0  0.13839000000000007  0.2566499999999999  0.32162  1.0000
  H   H88       1.0  0.08667000000000002  0.26264999999999994  0.27936000000000005  1.0000
  H   H89       1.0  0.12363999999999999  0.42303  0.32141  1.0000
  H   H90       1.0  0.17169  0.3674  0.2979  1.0000
  C   C141      1.0  0.9816900000000001  0.67076  0.31666  1.0000
  C   C142      1.0  0.96123  0.6780299999999999  0.27888  1.0000
  C   C143      1.0  0.95056  0.7241  0.27753  1.0000
  C   C144      1.0  0.9710199999999999  0.7691999999999997  0.31337  1.0000
  C   C145      1.0  0.91896  0.72783  0.24210000000000004  1.0000
  C   C146      1.0  0.90051  0.77609  0.24019  1.0000
  C   C147      1.0  0.90243  0.6855199999999998  0.20821  1.0000
  C   C148      1.0  0.87044  0.68623  0.16913  1.0000
  C   C149      1.0  0.94898  0.68093  0.13985  1.0000
  F   F55       1.0  0.9930900000000003  0.72515  0.1479  1.0000
  F   F56       1.0  0.011339999999999904  0.65062  0.14448  1.0000
  C   C150      1.0  0.9175000000000001  0.6600499999999998  0.0964  1.0000
  F   F57       1.0  0.86718  0.61767  0.08899000000000001  1.0000
  F   F58       1.0  0.99336  0.64938  0.07316  1.0000
  C   C151      1.0  0.91581  0.6407699999999997  0.21026  1.0000
  F   F59       1.0  0.89967  0.59992  0.17831  1.0000
  C   C152      1.0  0.94456  0.6371  0.24490000000000003  1.0000
  F   F60       1.0  0.95514  0.59282  0.24534  1.0000
  H   H91       1.0  0.94608  0.69661  0.3418000000000001  1.0000
  H   H92       1.0  0.95373  0.63528  0.31523  1.0000
  H   H93       1.0  0.9076800000000003  0.78801  0.32379  1.0000
  H   H94       1.0  0.021019999999999973  0.7927999999999997  0.30562  1.0000
  H   H95       1.0  0.001319999999999997  0.76335  0.3385200000000001  1.0000
  H   H96       1.0  0.9385900000000001  0.7812999999999999  0.21579  1.0000
  H   H97       1.0  0.82726  0.7778599999999998  0.23538  1.0000
  H   H98       1.0  0.9190800000000002  0.80722  0.26714  1.0000
  H   H99       1.0  0.8176100000000002  0.65712  0.15668000000000007  1.0000
  H   H100      1.0  0.8356799999999999  0.7192999999999998  0.17332  1.0000
  C   C153      1.0  0.98115  0.3600599999999999  0.71788  1.0000
  C   C154      1.0  0.99766  0.35252000000000006  0.7559300000000002  1.0000
  C   C155      1.0  0.96018  0.38232  0.79209  1.0000
  C   C156      1.0  0.87503  0.4075800000000001  0.7909000000000003  1.0000
  C   C157      1.0  0.0052599999999999964  0.38865  0.8281500000000002  1.0000
  C   C158      1.0  0.9795600000000001  0.42689  0.86698  1.0000
  C   C159      1.0  0.08074000000000002  0.36077  0.82734  1.0000
  C   C160      1.0  0.14031  0.36984  0.86328  1.0000
  C   C161      1.0  0.12471000000000002  0.33254000000000006  0.8825500000000001  1.0000
  F   F61       1.0  0.035559999999999994  0.3320399999999999  0.894  1.0000
  F   F62       1.0  0.14287  0.28771  0.85547  1.0000
  C   C162      1.0  0.18686999999999998  0.34523999999999994  0.91905  1.0000
  F   F63       1.0  0.27466  0.35323999999999994  0.9090200000000003  1.0000
  F   F64       1.0  0.15883000000000008  0.38668  0.94809  1.0000
  C   C163      1.0  0.10749  0.3265900000000001  0.7913500000000002  1.0000
  F   F65       1.0  0.18029  0.3002600000000001  0.7896200000000002  1.0000
  C   C164      1.0  0.06646  0.32245999999999997  0.75627  1.0000
  F   F66       1.0  0.09907  0.2912100000000001  0.7220400000000001  1.0000
  H   H101      1.0  0.99621  0.3984300000000001  0.7233800000000002  1.0000
  H   H102      1.0  0.029210000000000003  0.3405700000000001  0.6948000000000002  1.0000
  H   H103      1.0  0.8365999999999999  0.4190399999999999  0.8184800000000002  1.0000
  H   H104      1.0  0.82592  0.38241000000000014  0.7698600000000002  1.0000
  H   H105      1.0  0.8909200000000003  0.43843  0.782  1.0000
  H   H106      1.0  0.03649  0.45379  0.8781  1.0000
  H   H107      1.0  0.92227  0.4482100000000001  0.8658500000000002  1.0000
  H   H108      1.0  0.9633100000000001  0.41016  0.88872  1.0000
  H   H109      1.0  0.21179  0.36995  0.85394  1.0000
  H   H110      1.0  0.13317  0.40593  0.88594  1.0000
  C   C165      1.0  0.37378  0.16857  0.11518  1.0000
  C   C166      1.0  0.4216  0.18169  0.1545  1.0000
  C   C167      1.0  0.374  0.19445999999999997  0.19056000000000006  1.0000
  C   C168      1.0  0.27588  0.20695999999999995  0.19256  1.0000
  C   C169      1.0  0.4191800000000001  0.19491  0.22495  1.0000
  C   C170      1.0  0.3696000000000001  0.20501999999999995  0.26338  1.0000
  C   C171      1.0  0.51196  0.18446  0.22305000000000005  1.0000
  C   C172      1.0  0.561  0.17795000000000005  0.25690000000000013  1.0000
  C   C173      1.0  0.56698  0.12428  0.25025  1.0000
  F   F67       1.0  0.49452  0.09802000000000001  0.22731000000000007  1.0000
  F   F68       1.0  0.6453300000000001  0.10742000000000002  0.23002000000000003  1.0000
  C   C174      1.0  0.5653400000000001  0.11456000000000005  0.2888000000000001  1.0000
  F   F69       1.0  0.48516  0.12937  0.30814  1.0000
  F   F70       1.0  0.56815  0.06569999999999997  0.27917  1.0000
  C   C175      1.0  0.5588800000000003  0.17624000000000004  0.18794000000000005  1.0000
  F   F71       1.0  0.64805  0.16740999999999998  0.18580000000000005  1.0000
  C   C176      1.0  0.51443  0.17468999999999998  0.15424000000000004  1.0000
  F   F72       1.0  0.5619500000000001  0.16415  0.12047000000000001  1.0000
  H   H111      1.0  0.30742  0.14984  0.11515000000000003  1.0000
  H   H112      1.0  0.41212  0.14183  0.09165  1.0000
  H   H113      1.0  0.23294  0.17926999999999998  0.19849000000000006  1.0000
  H   H114      1.0  0.25033  0.21031  0.16553  1.0000
  H   H115      1.0  0.26741  0.24239  0.21625  1.0000
  H   H116      1.0  0.4003800000000001  0.23773999999999995  0.28628  1.0000
  H   H117      1.0  0.29710000000000003  0.21084000000000006  0.2618200000000001  1.0000
  H   H118      1.0  0.37414  0.17434  0.27295  1.0000
  H   H119      1.0  0.63009  0.19502000000000003  0.2598600000000001  1.0000
  H   H120      1.0  0.52887  0.19731  0.28541  1.0000
  C   C177      1.0  0.49579  0.77605  0.91026  1.0000
  C   C178      1.0  0.49796  0.8053899999999998  0.8836100000000002  1.0000
  C   C179      1.0  0.56933  0.80964  0.85847  1.0000
  C   C180      1.0  0.6470499999999999  0.7772099999999997  0.85013  1.0000
  C   C181      1.0  0.56147  0.8405999999999998  0.83723  1.0000
  C   C182      1.0  0.64365  0.85552  0.81879  1.0000
  C   C183      1.0  0.47634  0.8589  0.8345  1.0000
  C   C184      1.0  0.45832000000000006  0.88461  0.80648  1.0000
  C   C185      1.0  0.3921899999999999  0.8558499999999998  0.77238  1.0000
  F   F73       1.0  0.41365999999999997  0.80823  0.7573500000000002  1.0000
  F   F74       1.0  0.30535999999999996  0.8588299999999998  0.7869000000000003  1.0000
  C   C186      1.0  0.39593  0.8752000000000001  0.73862  1.0000
  F   F75       1.0  0.47945000000000015  0.8670400000000001  0.7209000000000001  1.0000
  F   F76       1.0  0.3851400000000001  0.92401  0.75399  1.0000
  C   C187      1.0  0.40647  0.8536  0.8587900000000003  1.0000
  F   F77       1.0  0.32684  0.87435  0.85991  1.0000
  C   C188      1.0  0.4176499999999999  0.82827  0.8832000000000002  1.0000
  F   F78       1.0  0.34697000000000006  0.8245800000000001  0.9059300000000001  1.0000
  H   H121      1.0  0.44524  0.7457700000000002  0.8977100000000002  1.0000
  H   H122      1.0  0.46855  0.7992199999999998  0.93908  1.0000
  H   H123      1.0  0.6892600000000001  0.77722  0.82511  1.0000
  H   H124      1.0  0.6191  0.73988  0.84018  1.0000
  H   H125      1.0  0.6912100000000002  0.7869  0.87648  1.0000
  H   H126      1.0  0.64567  0.89463  0.82555  1.0000
  H   H127      1.0  0.70802  0.85017  0.83133  1.0000
  H   H128      1.0  0.64224  0.8357499999999998  0.7864500000000001  1.0000
  H   H129      1.0  0.43082000000000004  0.9199299999999998  0.82366  1.0000
  H   H130      1.0  0.52117  0.8926099999999998  0.7932900000000002  1.0000
  C   C189      1.0  0.37747  0.84954  0.41923  1.0000
  C   C190      1.0  0.39795  0.83473  0.37576  1.0000
  C   C191      1.0  0.4866900000000001  0.8258  0.3608400000000001  1.0000
  C   C192      1.0  0.56219  0.82705  0.3888900000000001  1.0000
  C   C193      1.0  0.50277  0.81543  0.32004  1.0000
  C   C194      1.0  0.5977500000000002  0.8054699999999999  0.3042700000000001  1.0000
  C   C195      1.0  0.42909  0.8144699999999999  0.29495  1.0000
  C   C196      1.0  0.44079  0.8085999999999998  0.25220000000000004  1.0000
  C   C197      1.0  0.4320400000000001  0.75569  0.22424000000000005  1.0000
  F   F79       1.0  0.4926600000000001  0.72905  0.23492000000000005  1.0000
  F   F80       1.0  0.34574  0.7376199999999998  0.22719  1.0000
  C   C198      1.0  0.44775  0.74972  0.1811  1.0000
  F   F81       1.0  0.38696000000000014  0.7759699999999999  0.17006  1.0000
  F   F82       1.0  0.43222  0.70198  0.15749  1.0000
  C   C199      1.0  0.34144000000000013  0.82091  0.31034  1.0000
  F   F83       1.0  0.2694  0.81765  0.28668  1.0000
  C   C200      1.0  0.32634  0.83118  0.35005  1.0000
  F   F84       1.0  0.24075  0.83849  0.3637600000000001  1.0000
  H   H131      1.0  0.3246000000000001  0.8763499999999997  0.42732000000000003  1.0000
  H   H132      1.0  0.43636  0.86828  0.43791  1.0000
  H   H133      1.0  0.6268000000000001  0.8145199999999998  0.3745  1.0000
  H   H134      1.0  0.54217  0.8032699999999998  0.40476  1.0000
  H   H135      1.0  0.57546  0.86411  0.4104  1.0000
  H   H136      1.0  0.60489  0.79789  0.27258  1.0000
  H   H137      1.0  0.6439400000000002  0.83685  0.31976  1.0000
  H   H138      1.0  0.62118  0.77353  0.3089000000000001  1.0000
  H   H139      1.0  0.38835  0.82848  0.24404  1.0000
  H   H140      1.0  0.5049600000000002  0.82634  0.24791000000000002  1.0000
  C   C201      1.0  0.5197200000000002  0.14878000000000005  0.81174  1.0000
  C   C202      1.0  0.53507  0.16407000000000008  0.7768100000000002  1.0000
  C   C203      1.0  0.6149200000000001  0.18983  0.77252  1.0000
  C   C204      1.0  0.6956  0.19471  0.79906  1.0000
  C   C205      1.0  0.62043  0.20729999999999998  0.74126  1.0000
  C   C206      1.0  0.69516  0.24293  0.74012  1.0000
  C   C207      1.0  0.5530099999999998  0.1920899999999999  0.71121  1.0000
  C   C208      1.0  0.55732  0.20567000000000013  0.6750900000000002  1.0000
  C   C209      1.0  0.59362  0.16528999999999996  0.63854  1.0000
  F   F85       1.0  0.68688  0.16588  0.64124  1.0000
  F   F86       1.0  0.55952  0.12117  0.63749  1.0000
  C   C210      1.0  0.56663  0.16979000000000008  0.5994500000000003  1.0000
  F   F87       1.0  0.4760300000000001  0.17882  0.59955  1.0000
  F   F88       1.0  0.5794100000000002  0.12633  0.56916  1.0000
  C   C211      1.0  0.47857  0.16321  0.71449  1.0000
  F   F89       1.0  0.41306  0.14831  0.68625  1.0000
  C   C212      1.0  0.4693000000000001  0.14993000000000006  0.7468400000000002  1.0000
  F   F90       1.0  0.39581000000000005  0.1221100000000001  0.7485900000000002  1.0000
  H   H141      1.0  0.57534  0.16122  0.83364  1.0000
  H   H142      1.0  0.51581  0.10907999999999998  0.80072  1.0000
  H   H143      1.0  0.7604300000000003  0.20083999999999988  0.78605  1.0000
  H   H144      1.0  0.70435  0.16052  0.80317  1.0000
  H   H145      1.0  0.68638  0.22389000000000006  0.8280100000000001  1.0000
  H   H146      1.0  0.66554  0.2747499999999999  0.73763  1.0000
  H   H147      1.0  0.7366700000000003  0.25786000000000003  0.76726  1.0000
  H   H148      1.0  0.7397400000000002  0.22606  0.71471  1.0000
  H   H149      1.0  0.4883200000000001  0.21444999999999995  0.6693600000000001  1.0000
  H   H150      1.0  0.59897  0.2389099999999999  0.68028  1.0000
  C   C213      1.0  0.049469999999999986  0.6683999999999998  0.59424  1.0000
  C   C214      1.0  0.04787  0.68305  0.63835  1.0000
  C   C215      1.0  0.97532  0.7076799999999998  0.66142  1.0000
  C   C216      1.0  0.89442  0.71761  0.64102  1.0000
  C   C217      1.0  0.98008  0.7226599999999999  0.7031100000000002  1.0000
  C   C218      1.0  0.8993299999999999  0.7454100000000001  0.7276300000000002  1.0000
  C   C219      1.0  0.059799999999999985  0.71485  0.72089  1.0000
  C   C220      1.0  0.06808  0.72718  0.76464  1.0000
  C   C221      1.0  0.02765999999999999  0.68564  0.7754700000000001  1.0000
  F   F91       1.0  0.9468799999999999  0.6681099999999998  0.75516  1.0000
  F   F92       1.0  0.08642  0.64861  0.76256  1.0000
  C   C222      1.0  0.013620000000000009  0.70051  0.8205  1.0000
  F   F93       1.0  0.03593999999999998  0.7485699999999997  0.84104  1.0000
  F   F94       1.0  0.06935999999999998  0.6747799999999998  0.83461  1.0000
  C   C223      1.0  0.13147  0.69191  0.6972500000000003  1.0000
  F   F95       1.0  0.20767  0.68373  0.7135600000000001  1.0000
  C   C224      1.0  0.12534  0.67605  0.6566900000000002  1.0000
  F   F96       1.0  0.19660999999999998  0.65421  0.63499  1.0000
  H   H151      1.0  0.98102  0.6610799999999998  0.58084  1.0000
  H   H152      1.0  0.08490000000000003  0.63452  0.58075  1.0000
  H   H153      1.0  0.8448  0.7405599999999998  0.6611  1.0000
  H   H154      1.0  0.85823  0.6833399999999997  0.62325  1.0000
  H   H155      1.0  0.9171700000000002  0.73652  0.6215200000000002  1.0000
  H   H156      1.0  0.90329  0.75043  0.75898  1.0000
  H   H157      1.0  0.8903800000000002  0.7811  0.72631  1.0000
  H   H158      1.0  0.8376600000000002  0.7220299999999997  0.71631  1.0000
  H   H159      1.0  0.14007  0.73396  0.7742  1.0000
  H   H160      1.0  0.03726  0.76171  0.7808900000000001  1.0000
