data_image0
_chemical_formula_structural       OEuO2COEuC3O2CO4CO3EuO2COEuC3O2CO4CO3EuO2COEuC3O2CO4CO3EuO2COEuC3O2CO4CO3EuO2COEuC3O2CO4CO3EuO2COEuC3O2CO4CO3EuO2COEuC3O2CO4CO3EuO2COEuC3O2CO4CO3EuO2COEuC3O2CO4CO3EuO2COEuC3O2CO4CO3EuO2COEuC3O2CO4CO3EuO2COEuC3O2CO4CO3EuO2COEuC3O2CO4CO3EuO2COEuC3O2CO4CO3EuO2COEuC3O2CO4CO3EuO2COEuC3O2CO4CO2C7F2CF2CH6C7F2CF2CH6C7F2CF2CH6C7F2CF2CH6C7F2CF2CH6C7F2CF2CH6C7F2CF2CH6C7F2CF2CH6C7F2CF2CH6C7F2CF2CH6C7F2CF2CH6C7F2CF2CH6C7F2CF2CH6C7F2CF2CH6C7F2CF2CH6C7F2CF2CH6C7F2CF2CH6C7F2CF2CH6C7F2CF2CH6C7F2CF2CH6C7F2CF2CH6C7F2CF2CH6C7F2CF2CH6C7F2CF2CH6C7F2CF2CH6C7F2CF2CH6C7F2CF2CH6C7F2CF2CH6C7F2CF2CH6C7F2CF2CH6C7F2CF2CH6C7F2CF2CH6C7F2CF2CH6C7F2CF2CH6C7F2CF2CH6C7F2CF2CH6C7F2CF2CH6C7F2CF2CH6C7F2CF2CH6C7F2CF2CH6C7F2CF2CH6C7F2CF2CH6C7F2CF2CH6C7F2CF2CH6C7F2CF2CH6C7F2CF2CH6C7F2CF2CH6C7F2CF2CH6
_chemical_formula_sum              "O192 Eu32 C528 F192 H288"
_cell_length_a       34.3401
_cell_length_b       38.3214
_cell_length_c       35.6512
_cell_angle_alpha    96.5657
_cell_angle_beta     94.10430000000001
_cell_angle_gamma    100.55809999999998

_symmetry_space_group_name_H-M    'P 1'
_symmetry_Int_Tables_number       1

loop_
  _symmetry_equiv_pos_as_xyz
  'x,y,z'

loop_
  _atom_site_type_symbol
  _atom_site_label
  _atom_site_symmetry_multiplicity
  _atom_site_fract_x
  _atom_site_fract_y
  _atom_site_fract_z
  _atom_site_occupancy
  O   O1        1.0  0.11750000000000001  0.023990000000000008  0.28479  1.0000
  Eu  Eu1       1.0  0.17904000000000003  0.014010000000000078  0.29334  1.0000
  O   O2        1.0  0.19774  0.0325899999999999  0.23838  1.0000
  O   O3        1.0  0.16526000000000005  0.0664  0.31223999999999996  1.0000
  C   C1        1.0  0.12819  0.05646000000000001  0.30094  1.0000
  O   O4        1.0  0.20481  0.006939999999999948  0.18159  1.0000
  Eu  Eu2       1.0  0.2656700000000001  0.9974700000000001  0.19920999999999997  1.0000
  C   C2        1.0  0.29572  0.05077  0.16456  1.0000
  C   C3        1.0  0.18253  0.01838999999999991  0.20531  1.0000
  C   C4        1.0  0.29205  0.93822  0.2039  1.0000
  O   O5        1.0  0.28913  0.01835  0.14778  1.0000
  O   O6        1.0  0.28921000000000013  0.054580000000000004  0.19948  1.0000
  C   C5        1.0  0.26511  0.01251  0.28752  1.0000
  O   O7        1.0  0.31563000000000013  0.9689500000000001  0.21078999999999998  1.0000
  O   O8        1.0  0.24713  0.9941600000000002  0.25732  1.0000
  O   O9        1.0  0.24368  0.02101  0.31321  1.0000
  O   O10       1.0  0.25649  0.93888  0.19092  1.0000
  C   C6        1.0  0.16125  0.95231  0.31914  1.0000
  O   O11       1.0  0.16016  0.98218  0.33905  1.0000
  O   O12       1.0  0.17205999999999996  0.9548799999999998  0.28569  1.0000
  O   O13       1.0  0.99678  0.81362  0.64449  1.0000
  Eu  Eu3       1.0  0.99123  0.79225  0.69964  1.0000
  O   O14       1.0  0.9762700000000001  0.73489  0.67117  1.0000
  O   O15       1.0  0.048339999999999994  0.80065  0.67437  1.0000
  C   C7        1.0  0.03407  0.81254  0.64533  1.0000
  O   O16       1.0  0.024639999999999978  0.72053  0.70576  1.0000
  Eu  Eu4       1.0  0.03148000000000018  0.70168  0.7630899999999999  1.0000
  C   C8        1.0  0.059149999999999946  0.64498  0.7395699999999998  1.0000
  C   C9        1.0  0.99488  0.7110200000000001  0.68104  1.0000
  C   C10       1.0  0.9939100000000001  0.69727  0.82421  1.0000
  O   O17       1.0  0.021860000000000032  0.6437800000000001  0.74232  1.0000
  O   O18       1.0  0.08128  0.67621  0.74635  1.0000
  C   C11       1.0  0.042159999999999996  0.78268  0.775  1.0000
  O   O19       1.0  0.027679999999999916  0.68804  0.82135  1.0000
  O   O20       1.0  0.05847  0.75806  0.78608  1.0000
  O   O21       1.0  0.008769999999999993  0.7733  0.75474  1.0000
  O   O22       1.0  0.97859  0.70706  0.79415  1.0000
  C   C12       1.0  0.9494900000000001  0.8361400000000001  0.7326399999999997  1.0000
  O   O23       1.0  0.98574  0.8461  0.72601  1.0000
  O   O24       1.0  0.93435  0.8033700000000001  0.72024  1.0000
  O   O25       1.0  0.27743  0.70472  0.55175  1.0000
  Eu  Eu5       1.0  0.25968  0.74917  0.5224099999999999  1.0000
  O   O26       1.0  0.19958  0.71552  0.50573  1.0000
  O   O27       1.0  0.25271  0.74388  0.58362  1.0000
  C   C13       1.0  0.2669800000000001  0.7156599999999999  0.58379  1.0000
  O   O28       1.0  0.18610999999999997  0.75382  0.4674499999999999  1.0000
  Eu  Eu6       1.0  0.24192000000000002  0.7922900000000002  0.4918  1.0000
  C   C14       1.0  0.19769  0.83059  0.53285  1.0000
  C   C15       1.0  0.17624  0.72432  0.48077999999999993  1.0000
  C   C16       1.0  0.23892  0.82941  0.43246  1.0000
  O   O29       1.0  0.20792  0.83667  0.50043  1.0000
  O   O30       1.0  0.21099  0.80453  0.54451  1.0000
  C   C17       1.0  0.32557000000000014  0.81679  0.53469  1.0000
  O   O31       1.0  0.22194000000000003  0.8351400000000001  0.46230000000000004  1.0000
  O   O32       1.0  0.29841000000000006  0.82923  0.51747  1.0000
  O   O33       1.0  0.31943  0.78367  0.53897  1.0000
  O   O34       1.0  0.25803  0.80405  0.43321  1.0000
  C   C18       1.0  0.28798  0.70642  0.47089  1.0000
  O   O35       1.0  0.28671000000000013  0.7013  0.5053999999999998  1.0000
  O   O36       1.0  0.2760800000000001  0.73452  0.46366  1.0000
  O   O37       1.0  0.024319999999999897  0.06349  0.03047  1.0000
  Eu  Eu7       1.0  0.0019900000000001583  0.004429999999999995  0.01910999999999996  1.0000
  O   O38       1.0  0.049170000000000005  0.04910000000000001  0.005770000000000053  1.0000
  O   O39       1.0  0.9947300000000001  0.03761  0.07342  1.0000
  C   C19       1.0  0.011930000000000218  0.067  0.06345999999999999  1.0000
  O   O40       1.0  0.09137  0.013820000000000011  0.98941  1.0000
  Eu  Eu8       1.0  0.04458000000000001  0.96423  0.98945  1.0000
  C   C20       1.0  0.07388999999999998  0.9483  0.05545  1.0000
  C   C21       1.0  0.08281000000000002  0.04496000000000003  0.9947400000000001  1.0000
  C   C22       1.0  0.028840000000000008  0.90963  0.93317  1.0000
  O   O41       1.0  0.04871  0.96857  0.05312  1.0000
  O   O42       1.0  0.08543  0.93822  0.02367  1.0000
  C   C23       1.0  0.96284  0.9243699999999999  0.013640000000000096  1.0000
  O   O43       1.0  0.013459999999999984  0.9086400000000001  0.96486  1.0000
  O   O44       1.0  0.99212  0.9194300000000001  0.9944599999999999  1.0000
  O   O45       1.0  0.96023  0.95548  0.028409999999999998  1.0000
  O   O46       1.0  0.052150000000000016  0.9391  0.9310099999999999  1.0000
  C   C24       1.0  0.96427  0.0028600000000000097  0.95026  1.0000
  O   O47       1.0  0.9541600000000001  0.01838000000000002  0.9803700000000001  1.0000
  O   O48       1.0  0.99431  0.98876  0.9560099999999999  1.0000
  O   O49       1.0  0.46967  0.25491  0.64633  1.0000
  Eu  Eu9       1.0  0.46613999999999994  0.2695699999999999  0.7078499999999999  1.0000
  O   O50       1.0  0.46122  0.21311000000000002  0.71951  1.0000
  O   O51       1.0  0.5239600000000002  0.27033  0.68394  1.0000
  C   C25       1.0  0.50785  0.26053  0.64986  1.0000
  O   O52       1.0  0.51821  0.19574000000000003  0.7240799999999998  1.0000
  Eu  Eu10      1.0  0.52366  0.21326000000000003  0.78643  1.0000
  C   C26       1.0  0.56052  0.16027  0.7981499999999998  1.0000
  C   C27       1.0  0.48571  0.19589  0.70498  1.0000
  C   C28       1.0  0.47553  0.22237  0.83887  1.0000
  O   O53       1.0  0.52271  0.15707  0.79504  1.0000
  O   O54       1.0  0.57959  0.19175  0.79513  1.0000
  C   C29       1.0  0.51203  0.29211  0.79001  1.0000
  O   O55       1.0  0.51302  0.22533999999999998  0.84657  1.0000
  O   O56       1.0  0.53699  0.27229  0.78127  1.0000
  O   O57       1.0  0.47969  0.29024  0.76933  1.0000
  O   O58       1.0  0.46314  0.21539  0.8036  1.0000
  C   C30       1.0  0.41699  0.31366  0.70097  1.0000
  O   O59       1.0  0.45407  0.32219  0.69631  1.0000
  O   O60       1.0  0.4056900000000001  0.28175  0.70894  1.0000
  O   O61       1.0  0.74576  0.18858  0.52798  1.0000
  Eu  Eu11      1.0  0.7709  0.24492999999999998  0.51731  1.0000
  O   O62       1.0  0.7254900000000002  0.19409999999999997  0.49515999999999993  1.0000
  O   O63       1.0  0.79038  0.22003000000000003  0.56832  1.0000
  C   C31       1.0  0.76732  0.19002999999999998  0.55896  1.0000
  O   O64       1.0  0.68462  0.22462  0.46813999999999995  1.0000
  Eu  Eu12      1.0  0.72456  0.27669  0.49101  1.0000
  C   C32       1.0  0.6846799999999998  0.28425  0.55252  1.0000
  C   C33       1.0  0.69369  0.19477999999999998  0.474  1.0000
  C   C34       1.0  0.68615  0.31117  0.44326  1.0000
  O   O65       1.0  0.6760400000000001  0.29631  0.5219  1.0000
  O   O66       1.0  0.71318  0.26755000000000007  0.55065  1.0000
  C   C35       1.0  0.80189  0.32775  0.52356  1.0000
  O   O67       1.0  0.67624  0.30674999999999997  0.4763  1.0000
  O   O68       1.0  0.76609  0.32814  0.51228  1.0000
  O   O69       1.0  0.81232  0.29829  0.52854  1.0000
  O   O70       1.0  0.7156900000000002  0.29722  0.43508  1.0000
  C   C36       1.0  0.8325900000000003  0.21939999999999998  0.48683  1.0000
  O   O71       1.0  0.82868  0.22411  0.52142  1.0000
  O   O72       1.0  0.80411  0.227  0.46775  1.0000
  O   O73       1.0  0.67516  0.035440000000000006  0.80179  1.0000
  Eu  Eu13      1.0  0.70358  0.98708  0.80034  1.0000
  O   O74       1.0  0.69383  0.98423  0.73741  1.0000
  O   O75       1.0  0.7369600000000002  0.044520000000000004  0.81435  1.0000
  C   C37       1.0  0.70642  0.058550000000000005  0.81086  1.0000
  O   O76       1.0  0.75491  0.006340000000000013  0.73155  1.0000
  Eu  Eu14      1.0  0.8147800000000001  0.03795  0.72669  1.0000
  C   C38       1.0  0.78592  0.09582  0.71354  1.0000
  C   C39       1.0  0.71946  0.99803  0.7169  1.0000
  C   C40       1.0  0.84565  0.9777000000000001  0.71163  1.0000
  O   O77       1.0  0.7932600000000002  0.07311  0.68748  1.0000
  O   O78       1.0  0.7929000000000003  0.08785  0.74682  1.0000
  C   C41       1.0  0.8017000000000001  0.013079999999999991  0.80736  1.0000
  O   O79       1.0  0.84295  0.9920400000000001  0.74482  1.0000
  O   O80       1.0  0.82752  0.017419999999999995  0.78289  1.0000
  O   O81       1.0  0.76708  0.02046000000000001  0.79998  1.0000
  O   O82       1.0  0.83143  0.99404  0.6871  1.0000
  C   C42       1.0  0.71971  0.94605  0.84945  1.0000
  O   O83       1.0  0.7090500000000002  0.97599  0.85947  1.0000
  O   O84       1.0  0.7287700000000003  0.94101  0.81513  1.0000
  O   O85       1.0  0.012200000000000008  0.30025  0.12623  1.0000
  Eu  Eu15      1.0  0.99421  0.29048  0.18318  1.0000
  O   O86       1.0  0.9754000000000002  0.23074999999999998  0.16383  1.0000
  O   O87       1.0  0.05558  0.28896  0.16767999999999997  1.0000
  C   C43       1.0  0.04779  0.29555  0.13372  1.0000
  O   O88       1.0  0.99732  0.2209  0.21967  1.0000
  Eu  Eu16      1.0  0.97616  0.20674  0.27485  1.0000
  C   C44       1.0  0.048459999999999996  0.20956999999999998  0.31022  1.0000
  C   C45       1.0  0.97811  0.20893  0.18783999999999998  1.0000
  C   C46       1.0  0.92425  0.22295  0.32131  1.0000
  O   O89       1.0  0.03047  0.18328  0.28665  1.0000
  O   O90       1.0  0.02975999999999999  0.23526  0.31352  1.0000
  C   C47       1.0  0.012299999999999997  0.28662  0.27305999999999997  1.0000
  O   O91       1.0  0.9482600000000001  0.2022  0.32834  1.0000
  O   O92       1.0  0.011289999999999993  0.26277  0.29556  1.0000
  O   O93       1.0  0.98739  0.27969  0.24368999999999996  1.0000
  O   O94       1.0  0.9259200000000001  0.23396000000000003  0.28869  1.0000
  C   C48       1.0  0.9573400000000001  0.34419000000000005  0.19585999999999998  1.0000
  O   O95       1.0  0.9953500000000001  0.34841000000000005  0.19753  1.0000
  O   O96       1.0  0.9386400000000001  0.31197  0.18537  1.0000
  O   O97       1.0  0.5027200000000001  0.10228  0.48300000000000004  1.0000
  Eu  Eu17      1.0  0.47542000000000006  0.04534000000000001  0.48247  1.0000
  O   O98       1.0  0.53363  0.02596000000000001  0.48009  1.0000
  O   O99       1.0  0.49574000000000007  0.08062999999999998  0.5362099999999999  1.0000
  C   C49       1.0  0.5065  0.10821000000000001  0.51938  1.0000
  O   O100      1.0  0.5784600000000002  0.009060000000000007  0.51697  1.0000
  Eu  Eu18      1.0  0.54627  0.95136  0.50801  1.0000
  C   C50       1.0  0.56762  0.9477400000000001  0.57832  1.0000
  C   C51       1.0  0.5645300000000001  0.034169999999999985  0.50364  1.0000
  C   C52       1.0  0.53853  0.8970199999999999  0.45545  1.0000
  O   O101      1.0  0.5884700000000002  0.93824  0.55173  1.0000
  O   O102      1.0  0.53494  0.9567599999999999  0.56763  1.0000
  C   C53       1.0  0.45904  0.96502  0.49479  1.0000
  O   O103      1.0  0.52512  0.8940499999999999  0.48775999999999997  1.0000
  O   O104      1.0  0.49223000000000006  0.96677  0.48076  1.0000
  O   O105      1.0  0.44388  0.99284  0.49793  1.0000
  O   O106      1.0  0.5595  0.9276800000000001  0.452  1.0000
  C   C54       1.0  0.41236000000000006  0.04142  0.43643  1.0000
  O   O107      1.0  0.41603  0.05770000000000001  0.4704  1.0000
  O   O108      1.0  0.44335  0.030409999999999982  0.4254799999999999  1.0000
  O   O109      1.0  0.24268  0.16682  0.01803  1.0000
  Eu  Eu19      1.0  0.2935  0.21034  0.009630000000000027  1.0000
  O   O110      1.0  0.23092000000000004  0.18242000000000005  0.98566  1.0000
  O   O111      1.0  0.2833  0.19194999999999998  0.06581  1.0000
  C   C55       1.0  0.25233  0.16856000000000002  0.05369  1.0000
  O   O112      1.0  0.2188  0.23021999999999998  0.96129  1.0000
  Eu  Eu20      1.0  0.2752700000000001  0.26144  0.99208  1.0000
  C   C56       1.0  0.23588  0.2861  0.04876  1.0000
  C   C57       1.0  0.20851  0.19747  0.96495  1.0000
  C   C58       1.0  0.2768600000000001  0.31058  0.94436  1.0000
  O   O113      1.0  0.24191000000000001  0.30165  0.0195  1.0000
  O   O114      1.0  0.24995  0.2577900000000001  0.04809999999999999  1.0000
  C   C59       1.0  0.36069  0.27689  0.030689999999999995  1.0000
  O   O115      1.0  0.26046  0.31242  0.97515  1.0000
  O   O116      1.0  0.33246000000000003  0.29244  0.02151  1.0000
  O   O117      1.0  0.35456000000000004  0.24291000000000001  0.027419999999999993  1.0000
  O   O118      1.0  0.29196  0.28296  0.93836  1.0000
  C   C60       1.0  0.31950999999999996  0.17784999999999998  0.9491499999999999  1.0000
  O   O119      1.0  0.32027  0.16666  0.98132  1.0000
  O   O120      1.0  0.30516  0.20607  0.9484499999999999  1.0000
  O   O121      1.0  0.14460000000000006  0.48449  0.80947  1.0000
  Eu  Eu21      1.0  0.20701000000000003  0.48136000000000007  0.80078  1.0000
  O   O122      1.0  0.19248000000000007  0.46715000000000007  0.7374  1.0000
  O   O123      1.0  0.18522  0.53273  0.80197  1.0000
  C   C61       1.0  0.15012  0.51829  0.80867  1.0000
  O   O124      1.0  0.24452000000000002  0.50729  0.7311  1.0000
  Eu  Eu22      1.0  0.30958  0.51929  0.7214599999999999  1.0000
  C   C62       1.0  0.29876  0.55789  0.6665  1.0000
  C   C63       1.0  0.2174  0.48113  0.716  1.0000
  C   C64       1.0  0.36764000000000013  0.48390000000000005  0.71513  1.0000
  O   O125      1.0  0.29839000000000004  0.52418  0.66024  1.0000
  O   O126      1.0  0.30425  0.57107  0.70161  1.0000
  C   C65       1.0  0.29897  0.51751  0.80629  1.0000
  O   O127      1.0  0.37226  0.51752  0.71275  1.0000
  O   O128      1.0  0.32404  0.53141  0.785  1.0000
  O   O129      1.0  0.27218  0.49102000000000007  0.7914499999999999  1.0000
  O   O130      1.0  0.33243  0.46878000000000003  0.72088  1.0000
  C   C66       1.0  0.21293999999999996  0.44767  0.86058  1.0000
  O   O131      1.0  0.21763000000000002  0.4817100000000001  0.86281  1.0000
  O   O132      1.0  0.20788  0.43119  0.82669  1.0000
  O   O133      1.0  0.76895  0.64028  0.9925999999999999  1.0000
  Eu  Eu23      1.0  0.7855399999999999  0.6972899999999999  0.9842299999999999  1.0000
  O   O134      1.0  0.72498  0.71115  0.99162  1.0000
  O   O135      1.0  0.7949800000000001  0.67927  0.04066  1.0000
  C   C67       1.0  0.78263  0.64614  0.0276  1.0000
  O   O136      1.0  0.6748  0.7292499999999998  0.0156099999999999  1.0000
  Eu  Eu24      1.0  0.70038  0.78137  0.99387  1.0000
  C   C68       1.0  0.68151  0.79189  0.06566  1.0000
  C   C69       1.0  0.6948  0.70431  0.010240000000000027  1.0000
  C   C70       1.0  0.72206  0.7867  0.92472  1.0000
  O   O137      1.0  0.67314  0.76166  0.0453  1.0000
  O   O138      1.0  0.6991600000000001  0.81629  0.04868  1.0000
  C   C71       1.0  0.7930700000000003  0.78064  0.00127  1.0000
  O   O139      1.0  0.7267699999999999  0.81337  0.95055  1.0000
  O   O140      1.0  0.7601600000000003  0.77071  0.014519999999999998  1.0000
  O   O141      1.0  0.81262  0.75666  0.9902099999999999  1.0000
  O   O142      1.0  0.7066599999999998  0.7569299999999999  0.9352599999999999  1.0000
  C   C72       1.0  0.82327  0.68438  0.92414  1.0000
  O   O143      1.0  0.83841  0.68364  0.95794  1.0000
  O   O144      1.0  0.78847  0.6920799999999999  0.9220599999999999  1.0000
  O   O145      1.0  0.5294  0.75501  0.15737  1.0000
  Eu  Eu25      1.0  0.49756000000000006  0.78675  0.19563  1.0000
  O   O146      1.0  0.47032000000000007  0.73638  0.2171  1.0000
  O   O147      1.0  0.55673  0.7754100000000002  0.21395999999999998  1.0000
  C   C73       1.0  0.5586300000000002  0.75692  0.18219  1.0000
  O   O148      1.0  0.4476100000000001  0.6850300000000001  0.23334999999999997  1.0000
  Eu  Eu26      1.0  0.46970000000000006  0.70869  0.29453  1.0000
  C   C74       1.0  0.50457  0.65459  0.30421  1.0000
  C   C75       1.0  0.45369  0.70436  0.20671  1.0000
  C   C76       1.0  0.4369  0.72781  0.35603  1.0000
  O   O149      1.0  0.46787000000000006  0.6538  0.30929  1.0000
  O   O150      1.0  0.52267  0.68359  0.29368  1.0000
  C   C77       1.0  0.48162  0.7931  0.28155  1.0000
  O   O151      1.0  0.4744300000000001  0.72901  0.35601  1.0000
  O   O152      1.0  0.49412  0.76378  0.27883  1.0000
  O   O153      1.0  0.4839300000000001  0.81149  0.25345999999999996  1.0000
  O   O154      1.0  0.41709000000000024  0.7191200000000001  0.3234099999999999  1.0000
  C   C78       1.0  0.43038000000000004  0.8136  0.19384  1.0000
  O   O155      1.0  0.4567500000000001  0.82052  0.22187  1.0000
  O   O156      1.0  0.43878000000000006  0.79228  0.16723  1.0000
  O   O157      1.0  0.65074  0.53658  0.32104  1.0000
  Eu  Eu27      1.0  0.67639  0.48899  0.29863  1.0000
  O   O158      1.0  0.67718  0.50278  0.23795000000000002  1.0000
  O   O159      1.0  0.66692  0.53357  0.26513  1.0000
  C   C79       1.0  0.65417  0.55201  0.29157  1.0000
  O   O160      1.0  0.7387900000000002  0.49561  0.23627  1.0000
  Eu  Eu28      1.0  0.8045500000000002  0.50351  0.22507  1.0000
  C   C80       1.0  0.8275900000000003  0.53154  0.16475  1.0000
  C   C81       1.0  0.70637  0.49963  0.21805999999999998  1.0000
  C   C82       1.0  0.80446  0.43318999999999996  0.224  1.0000
  O   O161      1.0  0.8460300000000002  0.51015  0.18081  1.0000
  O   O162      1.0  0.7978800000000003  0.5396  0.18138  1.0000
  C   C83       1.0  0.76717  0.5217  0.30364  1.0000
  O   O163      1.0  0.8197800000000001  0.45665000000000006  0.25154  1.0000
  O   O164      1.0  0.7616800000000002  0.50427  0.27021  1.0000
  O   O165      1.0  0.7369500000000002  0.52092  0.32232  1.0000
  O   O166      1.0  0.78759  0.44616  0.1977  1.0000
  C   C84       1.0  0.6987100000000003  0.42980000000000007  0.31567  1.0000
  O   O167      1.0  0.68324  0.44961999999999996  0.3393  1.0000
  O   O168      1.0  0.70202  0.44083000000000006  0.28347  1.0000
  O   O169      1.0  0.44137999999999994  0.55332  0.04723  1.0000
  Eu  Eu29      1.0  0.45537  0.5061100000000001  0.012960000000000083  1.0000
  O   O170      1.0  0.5073499999999997  0.54368  0.98961  1.0000
  O   O171      1.0  0.48966000000000004  0.52936  0.06795  1.0000
  C   C85       1.0  0.46869000000000005  0.55354  0.07383  1.0000
  O   O172      1.0  0.56562  0.52293  0.9824899999999999  1.0000
  Eu  Eu30      1.0  0.5436999999999999  0.46569000000000005  0.9840399999999999  1.0000
  C   C86       1.0  0.56999  0.47614  0.057690000000000005  1.0000
  C   C87       1.0  0.54506  0.54777  0.98409  1.0000
  C   C88       1.0  0.53111  0.45250000000000007  0.9082199999999999  1.0000
  O   O173      1.0  0.58878  0.46321000000000007  0.031939999999999996  1.0000
  O   O174      1.0  0.53688  0.4825  0.04532  1.0000
  C   C89       1.0  0.47514  0.42667000000000005  0.99584  1.0000
  O   O175      1.0  0.5619500000000002  0.44748  0.9268600000000001  1.0000
  O   O176      1.0  0.50546  0.41303  0.98946  1.0000
  O   O177      1.0  0.47857000000000005  0.4590999999999999  0.9898099999999999  1.0000
  O   O178      1.0  0.5075600000000002  0.46572  0.9287200000000001  1.0000
  C   C90       1.0  0.43517000000000017  0.52527  0.94493  1.0000
  O   O179      1.0  0.41369  0.50133  0.95998  1.0000
  O   O180      1.0  0.46765  0.53873  0.9649099999999999  1.0000
  O   O181      1.0  0.9856300000000001  0.58584  0.51074  1.0000
  Eu  Eu31      1.0  0.96506  0.5275699999999999  0.48914  1.0000
  O   O182      1.0  0.0101  0.53089  0.44662  1.0000
  O   O183      1.0  0.012369999999999994  0.5471399999999998  0.53702  1.0000
  C   C91       1.0  0.011120000000000007  0.58018  0.53634  1.0000
  O   O184      1.0  0.06943000000000003  0.53936  0.47695999999999994  1.0000
  Eu  Eu32      1.0  0.06758000000000002  0.4802199999999999  0.47002999999999995  1.0000
  C   C92       1.0  0.09269999999999999  0.47906  0.5431199999999999  1.0000
  C   C93       1.0  0.04394000000000001  0.55077  0.4564099999999999  1.0000
  C   C94       1.0  0.029689999999999977  0.42526  0.42354  1.0000
  O   O185      1.0  0.11586  0.48695  0.51807  1.0000
  O   O186      1.0  0.056339999999999994  0.47187  0.53011  1.0000
  C   C95       1.0  0.9831100000000004  0.45195  0.49889  1.0000
  O   O187      1.0  0.05721  0.42248  0.44887  1.0000
  O   O188      1.0  0.018540000000000223  0.4692  0.51013  1.0000
  O   O189      1.0  0.9575800000000001  0.46795  0.48454  1.0000
  O   O190      1.0  0.020220000000000002  0.45622  0.4245499999999999  1.0000
  C   C96       1.0  0.92549  0.56465  0.44730999999999993  1.0000
  O   O191      1.0  0.9526200000000001  0.57986  0.47380999999999995  1.0000
  O   O192      1.0  0.91892  0.53057  0.44364  1.0000
  C   C97       1.0  0.3053  0.08254  0.14535  1.0000
  C   C98       1.0  0.34431000000000006  0.10207  0.14864999999999998  1.0000
  C   C99       1.0  0.35169  0.13756000000000002  0.14049  1.0000
  C   C100      1.0  0.39332000000000006  0.15904  0.14454  1.0000
  C   C101      1.0  0.31961  0.15371  0.13025  1.0000
  C   C102      1.0  0.2802300000000001  0.13441999999999998  0.12721  1.0000
  C   C103      1.0  0.24482  0.15245  0.1206  1.0000
  F   F1        1.0  0.21505  0.13872  0.14223  1.0000
  F   F2        1.0  0.25517  0.1889  0.13288  1.0000
  C   C104      1.0  0.22777  0.14607  0.07853  1.0000
  F   F3        1.0  0.22403  0.1104  0.06424  1.0000
  F   F4        1.0  0.19012  0.15419  0.07618999999999998  1.0000
  C   C105      1.0  0.27364000000000005  0.09843  0.13373  1.0000
  H   H1        1.0  0.3685200000000001  0.0903  0.15945  1.0000
  H   H2        1.0  0.41539  0.14322  0.15396  1.0000
  H   H3        1.0  0.39563  0.18308  0.16577  1.0000
  H   H4        1.0  0.40085  0.16779  0.11686  1.0000
  H   H5        1.0  0.32545999999999997  0.18161  0.12579  1.0000
  H   H6        1.0  0.24339  0.08354  0.13276  1.0000
  C   C106      1.0  0.8442000000000002  0.67698  0.89013  1.0000
  C   C107      1.0  0.82482  0.67525  0.85371  1.0000
  C   C108      1.0  0.8448  0.66909  0.82134  1.0000
  C   C109      1.0  0.8243300000000002  0.66731  0.78236  1.0000
  C   C110      1.0  0.8844  0.6647  0.82543  1.0000
  C   C111      1.0  0.9040400000000001  0.66569  0.86155  1.0000
  C   C112      1.0  0.9474100000000001  0.66244  0.8654  1.0000
  F   F5        1.0  0.95689  0.6525399999999999  0.90064  1.0000
  F   F6        1.0  0.95308  0.635  0.83862  1.0000
  C   C113      1.0  0.97524  0.6984200000000002  0.8610399999999999  1.0000
  F   F7        1.0  0.9549700000000001  0.72664  0.86374  1.0000
  F   F8        1.0  0.005689999999999955  0.70624  0.89019  1.0000
  C   C114      1.0  0.8837100000000002  0.67194  0.89383  1.0000
  H   H7        1.0  0.79421  0.6787600000000001  0.85049  1.0000
  H   H8        1.0  0.7932200000000001  0.6713799999999999  0.7834399999999999  1.0000
  H   H9        1.0  0.82377  0.64068  0.76612  1.0000
  H   H10       1.0  0.84073  0.68837  0.76729  1.0000
  H   H11       1.0  0.90004  0.66066  0.80042  1.0000
  H   H12       1.0  0.8988800000000002  0.67366  0.9218899999999999  1.0000
  C   C115      1.0  0.29329  0.57996  0.63575  1.0000
  C   C116      1.0  0.27974000000000004  0.56387  0.59856  1.0000
  C   C117      1.0  0.27414  0.58496  0.56966  1.0000
  C   C118      1.0  0.25835  0.56808  0.53011  1.0000
  C   C119      1.0  0.28331  0.62234  0.57777  1.0000
  C   C120      1.0  0.29759  0.63902  0.61459  1.0000
  C   C121      1.0  0.30766  0.67969  0.62264  1.0000
  F   F9        1.0  0.32608  0.69003  0.65915  1.0000
  F   F10       1.0  0.33538  0.69218  0.59848  1.0000
  C   C122      1.0  0.26992  0.69693  0.61854  1.0000
  F   F11       1.0  0.23543000000000003  0.6714  0.61754  1.0000
  F   F12       1.0  0.27043  0.72198  0.64998  1.0000
  C   C123      1.0  0.30205  0.6175  0.64352  1.0000
  H   H13       1.0  0.27313  0.535  0.59209  1.0000
  H   H14       1.0  0.25234  0.53839  0.52771  1.0000
  H   H15       1.0  0.28037  0.57663  0.51  1.0000
  H   H16       1.0  0.23015  0.57682  0.522  1.0000
  H   H17       1.0  0.2793200000000001  0.63843  0.55526  1.0000
  H   H18       1.0  0.31256  0.62983  0.67218  1.0000
  C   C124      1.0  0.37394  0.032040000000000075  0.41331  1.0000
  C   C125      1.0  0.33869  0.027160000000000073  0.43124  1.0000
  C   C126      1.0  0.30252000000000007  0.011230000000000075  0.41043  1.0000
  C   C127      1.0  0.26522  0.005239999999999911  0.43008  1.0000
  C   C128      1.0  0.3015800000000001  0.0006099999999999994  0.37143  1.0000
  C   C129      1.0  0.33599  0.00821  0.35246  1.0000
  C   C130      1.0  0.33338  0.0017699999999999968  0.30947  1.0000
  F   F13       1.0  0.37124  0.007719999999999999  0.29728  1.0000
  F   F14       1.0  0.31612  0.9664800000000001  0.29674999999999996  1.0000
  C   C131      1.0  0.3093  0.026999999999999993  0.29151999999999995  1.0000
  F   F15       1.0  0.31702  0.06044  0.31298  1.0000
  F   F16       1.0  0.32173  0.03176  0.25627  1.0000
  C   C132      1.0  0.3724  0.02314  0.37395  1.0000
  H   H19       1.0  0.33952  0.03397999999999989  0.46168  1.0000
  H   H20       1.0  0.2620200000000001  0.030340000000000027  0.44736  1.0000
  H   H21       1.0  0.23864000000000002  0.9969000000000001  0.40935  1.0000
  H   H22       1.0  0.26627  0.98423  0.44884  1.0000
  H   H23       1.0  0.27397  0.98651  0.35594  1.0000
  H   H24       1.0  0.39971  0.027750000000000004  0.36035  1.0000
  C   C133      1.0  0.01797  0.10194  0.08725  1.0000
  C   C134      1.0  0.04127  0.13195  0.07536  1.0000
  C   C135      1.0  0.04674  0.16546  0.09706  1.0000
  C   C136      1.0  0.06998  0.19746  0.08277  1.0000
  C   C137      1.0  0.029729999999999993  0.16891  0.13151  1.0000
  C   C138      1.0  0.005550000000000001  0.13936  0.14366  1.0000
  C   C139      1.0  0.9863800000000001  0.14381  0.18063  1.0000
  F   F17       1.0  0.9654200000000001  0.11101999999999998  0.18767  1.0000
  F   F18       1.0  0.01632999999999996  0.1553  0.20993999999999996  1.0000
  C   C140      1.0  0.9570800000000002  0.1703  0.18008999999999997  1.0000
  F   F19       1.0  0.93438  0.16425  0.14538  1.0000
  F   F20       1.0  0.9315  0.16413  0.20796  1.0000
  C   C141      1.0  8.999999999992305e-05  0.10577  0.12124999999999998  1.0000
  H   H25       1.0  0.05515000000000001  0.12946  0.0491  1.0000
  H   H26       1.0  0.10171  0.1952  0.08278  1.0000
  H   H27       1.0  0.06777000000000002  0.22233000000000003  0.10085  1.0000
  H   H28       1.0  0.05797  0.19938  0.05346  1.0000
  H   H29       1.0  0.03552  0.19471  0.14874  1.0000
  H   H30       1.0  0.9818400000000002  0.08251  0.12994  1.0000
  C   C142      1.0  0.80841  0.8189300000000002  0.9986700000000001  1.0000
  C   C143      1.0  0.7853399999999999  0.8447  0.00826  1.0000
  C   C144      1.0  0.79824  0.88061  0.0037299999999999994  1.0000
  C   C145      1.0  0.7717400000000002  0.9073  0.01109  1.0000
  C   C146      1.0  0.83636  0.89155  0.9927299999999999  1.0000
  C   C147      1.0  0.86142  0.86669  0.98615  1.0000
  C   C148      1.0  0.90439  0.87967  0.9796899999999998  1.0000
  F   F21       1.0  0.91916  0.85183  0.9612199999999999  1.0000
  F   F22       1.0  0.90611  0.90629  0.9561399999999999  1.0000
  C   C149      1.0  0.9302600000000002  0.89359  0.017900000000000027  1.0000
  F   F23       1.0  0.90729  0.9048999999999999  0.04567  1.0000
  F   F24       1.0  0.94704  0.8663500000000001  0.030589999999999895  1.0000
  C   C150      1.0  0.84682  0.83026  0.9881599999999999  1.0000
  H   H31       1.0  0.75662  0.83669  0.01805  1.0000
  H   H32       1.0  0.7418000000000002  0.89414  0.01762  1.0000
  H   H33       1.0  0.76782  0.9209299999999999  0.98561  1.0000
  H   H34       1.0  0.78527  0.92756  0.03552  1.0000
  H   H35       1.0  0.84681  0.91957  0.9902299999999999  1.0000
  H   H36       1.0  0.86581  0.81091  0.9828899999999999  1.0000
  C   C151      1.0  0.38945  0.33876  0.69747  1.0000
  C   C152      1.0  0.34889  0.32806  0.70179  1.0000
  C   C153      1.0  0.32275  0.3519  0.69826  1.0000
  C   C154      1.0  0.2793100000000001  0.34047  0.70271  1.0000
  C   C155      1.0  0.33727  0.38656  0.68999  1.0000
  C   C156      1.0  0.37779  0.3977  0.68538  1.0000
  C   C157      1.0  0.39343  0.43499  0.67562  1.0000
  F   F25       1.0  0.4287900000000001  0.43509  0.65899  1.0000
  F   F26       1.0  0.36670000000000014  0.44331000000000004  0.6485299999999999  1.0000
  C   C158      1.0  0.40118999999999994  0.46384000000000003  0.71118  1.0000
  F   F27       1.0  0.4071  0.44853  0.74404  1.0000
  F   F28       1.0  0.43557  0.48836  0.70811  1.0000
  C   C159      1.0  0.40369  0.37363  0.68961  1.0000
  H   H37       1.0  0.33755  0.30109  0.70754  1.0000
  H   H38       1.0  0.27261  0.31309  0.71105  1.0000
  H   H39       1.0  0.26162  0.34061  0.67543  1.0000
  H   H40       1.0  0.27017  0.35925  0.72495  1.0000
  H   H41       1.0  0.3168  0.40461  0.68678  1.0000
  H   H42       1.0  0.43507999999999997  0.38199  0.68674  1.0000
  C   C160      1.0  0.53161  0.25587  0.61731  1.0000
  C   C161      1.0  0.51343  0.24937000000000004  0.57998  1.0000
  C   C162      1.0  0.53631  0.24568000000000004  0.54917  1.0000
  C   C163      1.0  0.51733  0.23995000000000002  0.50913  1.0000
  C   C164      1.0  0.57743  0.24761000000000002  0.55584  1.0000
  C   C165      1.0  0.59604  0.25365  0.59301  1.0000
  C   C166      1.0  0.64058  0.25552  0.59972  1.0000
  F   F29       1.0  0.6509500000000004  0.25385  0.63772  1.0000
  F   F30       1.0  0.64987  0.22544000000000003  0.57965  1.0000
  C   C167      1.0  0.66491  0.29061999999999993  0.5882799999999999  1.0000
  F   F31       1.0  0.64097  0.31566  0.5839  1.0000
  F   F32       1.0  0.69475  0.30574000000000007  0.61686  1.0000
  C   C168      1.0  0.57287  0.25814  0.62357  1.0000
  H   H43       1.0  0.48159  0.24757  0.57485  1.0000
  H   H44       1.0  0.48472  0.23887  0.50819  1.0000
  H   H45       1.0  0.52256  0.21439  0.49426  1.0000
  H   H46       1.0  0.5306500000000002  0.26221  0.4938699999999999  1.0000
  H   H47       1.0  0.5949900000000002  0.24436  0.53205  1.0000
  H   H48       1.0  0.5868600000000002  0.26333  0.65237  1.0000
  C   C169      1.0  0.7139300000000002  0.9166200000000001  0.87274  1.0000
  C   C170      1.0  0.6792200000000003  0.91122  0.89152  1.0000
  C   C171      1.0  0.66505  0.87801  0.9031999999999999  1.0000
  C   C172      1.0  0.6264300000000002  0.87118  0.9208899999999999  1.0000
  C   C173      1.0  0.6863300000000001  0.8504000000000002  0.89696  1.0000
  C   C174      1.0  0.7234  0.85629  0.8815599999999999  1.0000
  C   C175      1.0  0.7502500000000002  0.82861  0.87791  1.0000
  F   F33       1.0  0.76207  0.82645  0.84148  1.0000
  F   F34       1.0  0.7840700000000002  0.84115  0.90286  1.0000
  C   C176      1.0  0.7320400000000002  0.79  0.88474  1.0000
  F   F35       1.0  0.69797  0.77733  0.86021  1.0000
  F   F36       1.0  0.7592099999999999  0.76827  0.8765499999999999  1.0000
  C   C177      1.0  0.73647  0.88963  0.86894  1.0000
  H   H49       1.0  0.6612800000000001  0.93173  0.894  1.0000
  H   H50       1.0  0.61282  0.8954000000000001  0.9239199999999999  1.0000
  H   H51       1.0  0.63173  0.8630900000000001  0.9494799999999999  1.0000
  H   H52       1.0  0.60517  0.84927  0.90291  1.0000
  H   H53       1.0  0.67321  0.82463  0.90433  1.0000
  H   H54       1.0  0.76346  0.89409  0.85473  1.0000
  C   C178      1.0  0.07668000000000001  0.29591000000000006  0.10466  1.0000
  C   C179      1.0  0.06479  0.30001  0.06712  1.0000
  C   C180      1.0  0.08990000000000001  0.29565  0.03829  1.0000
  C   C181      1.0  0.07694  0.29919  0.998  1.0000
  C   C182      1.0  0.12726000000000007  0.28729  0.047029999999999995  1.0000
  C   C183      1.0  0.14034  0.28412  0.0845  1.0000
  C   C184      1.0  0.18024  0.27326  0.09276  1.0000
  F   F37       1.0  0.18615  0.2699  0.131  1.0000
  F   F38       1.0  0.17818  0.23949000000000004  0.0731  1.0000
  C   C185      1.0  0.21631  0.30061000000000004  0.08214  1.0000
  F   F39       1.0  0.20490000000000003  0.33222  0.07476  1.0000
  F   F40       1.0  0.24518  0.30928  0.11265  1.0000
  C   C186      1.0  0.11484000000000004  0.2888  0.11326999999999997  1.0000
  H   H55       1.0  0.035550000000000005  0.30567000000000005  0.06007  1.0000
  H   H56       1.0  0.04619999999999999  0.30446  0.9950199999999999  1.0000
  H   H57       1.0  0.07776999999999998  0.27404999999999996  0.9794499999999999  1.0000
  H   H58       1.0  0.09734  0.32166  0.9882899999999999  1.0000
  H   H59       1.0  0.14611  0.28292  0.0245  1.0000
  H   H60       1.0  0.12384  0.28548  0.14215  1.0000
  C   C187      1.0  0.9430900000000001  0.0007599999999999978  0.9123099999999998  1.0000
  C   C188      1.0  0.9567100000000001  0.98322  0.88056  1.0000
  C   C189      1.0  0.9366600000000002  0.98093  0.84451  1.0000
  C   C190      1.0  0.94985  0.9610700000000001  0.81071  1.0000
  C   C191      1.0  0.90288  0.99617  0.84009  1.0000
  C   C192      1.0  0.88818  0.013150000000000004  0.87153  1.0000
  C   C193      1.0  0.85192  0.0302  0.86595  1.0000
  F   F41       1.0  0.8426300000000002  0.04484  0.90086  1.0000
  F   F42       1.0  0.8625500000000003  0.05876  0.84569  1.0000
  C   C194      1.0  0.8141199999999998  0.003309999999999928  0.84571  1.0000
  F   F43       1.0  0.82006  0.9683  0.84125  1.0000
  F   F44       1.0  0.78349  0.004819999999999994  0.86852  1.0000
  C   C195      1.0  0.9088600000000001  0.015600000000000003  0.90764  1.0000
  H   H61       1.0  0.9826800000000001  0.97106  0.88385  1.0000
  H   H62       1.0  0.9779  0.95166  0.81778  1.0000
  H   H63       1.0  0.9545600000000001  0.9784499999999999  0.78792  1.0000
  H   H64       1.0  0.9259399999999999  0.93765  0.80037  1.0000
  H   H65       1.0  0.88774  0.9942499999999999  0.81205  1.0000
  H   H66       1.0  0.8986800000000003  0.029219999999999996  0.93224  1.0000
  C   C196      1.0  0.8986400000000002  0.23487000000000002  0.34978  1.0000
  C   C197      1.0  0.8686  0.25363  0.34046  1.0000
  C   C198      1.0  0.84691  0.26716  0.36884  1.0000
  C   C199      1.0  0.81483  0.2875  0.35935  1.0000
  C   C200      1.0  0.8557500000000002  0.2621  0.40668  1.0000
  C   C201      1.0  0.8855500000000002  0.24312  0.41639  1.0000
  C   C202      1.0  0.89639  0.23861000000000002  0.45744000000000007  1.0000
  F   F45       1.0  0.9347800000000002  0.23209000000000002  0.46154000000000006  1.0000
  F   F46       1.0  0.89674  0.27038  0.48049  1.0000
  C   C203      1.0  0.86783  0.20732999999999996  0.4709499999999999  1.0000
  F   F47       1.0  0.85484  0.17979999999999996  0.44157  1.0000
  F   F48       1.0  0.8881  0.19383999999999998  0.49927999999999995  1.0000
  C   C204      1.0  0.90643  0.22928999999999997  0.38758  1.0000
  H   H67       1.0  0.8624900000000002  0.25816  0.31135  1.0000
  H   H68       1.0  0.8113200000000003  0.28969  0.32853  1.0000
  H   H69       1.0  0.82241  0.31495  0.37514  1.0000
  H   H70       1.0  0.78597  0.27366  0.36765  1.0000
  H   H71       1.0  0.83965  0.27335999999999994  0.42855  1.0000
  H   H72       1.0  0.92964  0.21481  0.39468999999999993  1.0000
  C   C205      1.0  0.76805  0.15881  0.57914  1.0000
  C   C206      1.0  0.7783000000000003  0.12848  0.55984  1.0000
  C   C207      1.0  0.77866  0.09785999999999999  0.57754  1.0000
  C   C208      1.0  0.79409  0.06725  0.55774  1.0000
  C   C209      1.0  0.7653000000000001  0.09653000000000002  0.61371  1.0000
  C   C210      1.0  0.7553400000000002  0.12688  0.63401  1.0000
  C   C211      1.0  0.73905  0.12470000000000002  0.67264  1.0000
  F   F49       1.0  0.71666  0.1511  0.67916  1.0000
  F   F50       1.0  0.71331  0.09216  0.67201  1.0000
  C   C212      1.0  0.77215  0.12986  0.70605  1.0000
  F   F51       1.0  0.8047800000000002  0.15457  0.69907  1.0000
  F   F52       1.0  0.7578  0.14365  0.7388  1.0000
  C   C213      1.0  0.7584200000000002  0.15866  0.61677  1.0000
  H   H73       1.0  0.7868700000000001  0.12892  0.5311799999999999  1.0000
  H   H74       1.0  0.8245400000000003  0.07706  0.54995  1.0000
  H   H75       1.0  0.7745100000000001  0.05550000000000001  0.53153  1.0000
  H   H76       1.0  0.79609  0.04623  0.57632  1.0000
  H   H77       1.0  0.76215  0.07158  0.62551  1.0000
  H   H78       1.0  0.75132  0.1826  0.63169  1.0000
  C   C214      1.0  0.23612  0.85126  0.40137  1.0000
  C   C215      1.0  0.26767000000000013  0.8597400000000001  0.37925  1.0000
  C   C216      1.0  0.2669300000000001  0.88589  0.35474  1.0000
  C   C217      1.0  0.30232  0.89758  0.33382  1.0000
  C   C218      1.0  0.23401000000000002  0.90291  0.3518  1.0000
  C   C219      1.0  0.20143  0.89364  0.3729  1.0000
  C   C220      1.0  0.16721  0.91402  0.37312  1.0000
  F   F53       1.0  0.13752  0.89731  0.39313  1.0000
  F   F54       1.0  0.18138000000000004  0.9475800000000001  0.39313  1.0000
  C   C221      1.0  0.14774  0.91676  0.33293  1.0000
  F   F55       1.0  0.15460000000000002  0.8894900000000001  0.30669  1.0000
  F   F56       1.0  0.10693  0.91257  0.33399  1.0000
  C   C222      1.0  0.20306  0.86772  0.39754  1.0000
  H   H79       1.0  0.29377  0.84784  0.38293999999999995  1.0000
  H   H80       1.0  0.3247500000000001  0.88035  0.33649999999999997  1.0000
  H   H81       1.0  0.31668  0.92531  0.34554  1.0000
  H   H82       1.0  0.29289  0.89678  0.30342  1.0000
  H   H83       1.0  0.2341  0.92368  0.33354  1.0000
  H   H84       1.0  0.17922  0.8612  0.41535  1.0000
  C   C223      1.0  0.1398  0.01365  0.19344  1.0000
  C   C224      1.0  0.11912000000000002  0.04172  0.19981  1.0000
  C   C225      1.0  0.08038000000000001  0.0385  0.18244  1.0000
  C   C226      1.0  0.05851000000000003  0.06878000000000001  0.18956  1.0000
  C   C227      1.0  0.06275  0.00723  0.15795  1.0000
  C   C228      1.0  0.08332999999999999  0.9788699999999999  0.15131  1.0000
  C   C229      1.0  0.06462  0.94395  0.12651  1.0000
  F   F57       1.0  0.06444000000000005  0.9168900000000001  0.1492  1.0000
  F   F58       1.0  0.025120000000000007  0.94364  0.11480999999999998  1.0000
  C   C230      1.0  0.08766  0.9351500000000001  0.09134999999999999  1.0000
  F   F59       1.0  0.12814000000000003  0.9482299999999999  0.09871  1.0000
  F   F60       1.0  0.08236000000000003  0.89825  0.08349  1.0000
  C   C231      1.0  0.12123000000000002  0.98206  0.17045  1.0000
  H   H85       1.0  0.13356  0.06645  0.21713  1.0000
  H   H86       1.0  0.07532  0.09332000000000001  0.18011  1.0000
  H   H87       1.0  0.05510000000000001  0.07418  0.22029  1.0000
  H   H88       1.0  0.028420000000000004  0.06238  0.17403  1.0000
  H   H89       1.0  0.03299  0.005040000000000003  0.14448  1.0000
  H   H90       1.0  0.13690000000000002  0.9599500000000001  0.16696  1.0000
  C   C232      1.0  0.5862  0.07143  0.5141  1.0000
  C   C233      1.0  0.60446  0.08279  0.55101  1.0000
  C   C234      1.0  0.62871  0.11678000000000001  0.56029  1.0000
  C   C235      1.0  0.64654  0.12948  0.60026  1.0000
  C   C236      1.0  0.6361200000000002  0.13906  0.53198  1.0000
  C   C237      1.0  0.6181300000000002  0.12824  0.49477  1.0000
  C   C238      1.0  0.6246800000000002  0.15351  0.46486  1.0000
  F   F61       1.0  0.59968  0.1392  0.43225  1.0000
  F   F62       1.0  0.61376  0.18540999999999996  0.47817  1.0000
  C   C239      1.0  0.66834  0.16037  0.4540199999999999  1.0000
  F   F63       1.0  0.68635  0.13182  0.46081  1.0000
  F   F64       1.0  0.6679  0.16260999999999998  0.41548  1.0000
  C   C240      1.0  0.59295  0.09428  0.48622  1.0000
  H   H91       1.0  0.59962  0.06527  0.57262  1.0000
  H   H92       1.0  0.63578  0.1101  0.61994  1.0000
  H   H93       1.0  0.63854  0.15557  0.6102  1.0000
  H   H94       1.0  0.6792600000000002  0.13286  0.60114  1.0000
  H   H95       1.0  0.65537  0.16508  0.53908  1.0000
  H   H96       1.0  0.57928  0.08495999999999998  0.4576799999999999  1.0000
  C   C241      1.0  0.40058  0.29866  0.0435  1.0000
  C   C242      1.0  0.4336100000000001  0.2826  0.05032  1.0000
  C   C243      1.0  0.4720500000000001  0.30372  0.057690000000000005  1.0000
  C   C244      1.0  0.50779  0.28672  0.06265  1.0000
  C   C245      1.0  0.47737000000000007  0.34103  0.05867  1.0000
  C   C246      1.0  0.4444900000000001  0.35744000000000004  0.052529999999999966  1.0000
  C   C247      1.0  0.44911  0.39749999999999996  0.05204999999999971  1.0000
  F   F65       1.0  0.42319  0.40982  0.07617000000000006  1.0000
  F   F66       1.0  0.48719  0.41466000000000003  0.06687  1.0000
  C   C248      1.0  0.43932000000000015  0.40694  0.011309999999999931  1.0000
  F   F67       1.0  0.42424000000000006  0.37663  0.98564  1.0000
  F   F68       1.0  0.4106400000000001  0.42812  0.012259999999999938  1.0000
  C   C249      1.0  0.40631  0.33605  0.04557000000000011  1.0000
  H   H97       1.0  0.42967000000000005  0.25372  0.04865999999999999  1.0000
  H   H98       1.0  0.49927000000000005  0.2572  0.06131000000000001  1.0000
  H   H99       1.0  0.52467  0.29758  0.09052  1.0000
  H   H100      1.0  0.5273500000000002  0.2928  0.03980000000000006  1.0000
  H   H101      1.0  0.50723  0.35697  0.06354  1.0000
  H   H102      1.0  0.38115  0.34881999999999996  0.040159999999999973  1.0000
  C   C250      1.0  0.07637000000000002  0.61276  0.73334  1.0000
  C   C251      1.0  0.10667999999999996  0.61161  0.70929  1.0000
  C   C252      1.0  0.12795  0.58367  0.70837  1.0000
  C   C253      1.0  0.16012999999999997  0.5820799999999999  0.68233  1.0000
  C   C254      1.0  0.11983999999999999  0.55764  0.73286  1.0000
  C   C255      1.0  0.08962  0.55851  0.7573199999999999  1.0000
  C   C256      1.0  0.08324  0.53185  0.78579  1.0000
  F   F69       1.0  0.048320000000000016  0.53396  0.80249  1.0000
  F   F70       1.0  0.07854  0.49741  0.76699  1.0000
  C   C257      1.0  0.11821  0.53921  0.8175499999999998  1.0000
  F   F71       1.0  0.13477  0.57545  0.8242699999999998  1.0000
  F   F72       1.0  0.10394000000000003  0.52935  0.85094  1.0000
  C   C258      1.0  0.06734999999999994  0.58587  0.75667  1.0000
  H   H103      1.0  0.11413999999999998  0.6328099999999999  0.69186  1.0000
  H   H104      1.0  0.16402000000000005  0.60497  0.66557  1.0000
  H   H105      1.0  0.15223  0.5571  0.66217  1.0000
  H   H106      1.0  0.18876000000000007  0.58255  0.69912  1.0000
  H   H107      1.0  0.13734  0.53688  0.73318  1.0000
  H   H108      1.0  0.044969999999999996  0.58796  0.77631  1.0000
  C   C259      1.0  0.10060000000000002  0.0811  0.30735  1.0000
  C   C260      1.0  0.06206  0.06915  0.31711  1.0000
  C   C261      1.0  0.038950000000000005  0.09409  0.32961  1.0000
  C   C262      1.0  0.9982399999999999  0.08199  0.34183  1.0000
  C   C263      1.0  0.054410000000000014  0.13088  0.33164  1.0000
  C   C264      1.0  0.09214000000000001  0.14312  0.31944  1.0000
  C   C265      1.0  0.11056999999999999  0.18229999999999996  0.31837999999999994  1.0000
  F   F73       1.0  0.14709000000000005  0.18948000000000004  0.3398399999999999  1.0000
  F   F74       1.0  0.11758000000000002  0.18679999999999997  0.28125  1.0000
  C   C266      1.0  0.087  0.21066  0.33344  1.0000
  F   F75       1.0  0.07948000000000001  0.20696000000000006  0.37059  1.0000
  F   F76       1.0  0.11044  0.24416  0.33326  1.0000
  C   C267      1.0  0.11489  0.11775  0.30776  1.0000
  H   H109      1.0  0.05084999999999999  0.04075999999999999  0.3166999999999999  1.0000
  H   H110      1.0  0.99038  0.05237  0.33998  1.0000
  H   H111      1.0  0.97582  0.09128  0.32337  1.0000
  H   H112      1.0  0.99715  0.09366  0.37165  1.0000
  H   H113      1.0  0.03651999999999998  0.14937999999999999  0.34266  1.0000
  H   H114      1.0  0.14453  0.12674  0.29958  1.0000
  C   C268      1.0  0.41754  0.73348  0.39117  1.0000
  C   C269      1.0  0.43019  0.76458  0.41698  1.0000
  C   C270      1.0  0.41200999999999993  0.76928  0.45079  1.0000
  C   C271      1.0  0.42349999999999993  0.80343  0.4776  1.0000
  C   C272      1.0  0.38300999999999996  0.74149  0.45989  1.0000
  C   C273      1.0  0.37155  0.7093  0.43523  1.0000
  C   C274      1.0  0.34399  0.6776399999999999  0.44734  1.0000
  F   F77       1.0  0.34909  0.64618  0.4265999999999999  1.0000
  F   F78       1.0  0.35415  0.67497  0.48512  1.0000
  C   C275      1.0  0.29985  0.68043  0.44115999999999994  1.0000
  F   F79       1.0  0.29198  0.69027  0.40557  1.0000
  F   F80       1.0  0.27643  0.64716  0.44249  1.0000
  C   C276      1.0  0.3878400000000001  0.7062100000000001  0.40013  1.0000
  H   H115      1.0  0.45377  0.78516  0.41046  1.0000
  H   H116      1.0  0.4459800000000001  0.82332  0.4665099999999999  1.0000
  H   H117      1.0  0.43593000000000004  0.7977600000000001  0.50538  1.0000
  H   H118      1.0  0.39682  0.81543  0.48178  1.0000
  H   H119      1.0  0.37005  0.7447  0.48660999999999993  1.0000
  H   H120      1.0  0.37869  0.68194  0.38031999999999994  1.0000
  C   C277      1.0  0.8387  0.54414  0.12866  1.0000
  C   C278      1.0  0.8606000000000003  0.52459  0.10538  1.0000
  C   C279      1.0  0.8698200000000001  0.53459  0.07004  1.0000
  C   C280      1.0  0.8921500000000002  0.51303  0.04463  1.0000
  C   C281      1.0  0.85827  0.56515  0.058460000000000005  1.0000
  C   C282      1.0  0.8376100000000001  0.58599  0.08192999999999999  1.0000
  C   C283      1.0  0.82864  0.62083  0.07032  1.0000
  F   F81       1.0  0.83354  0.64626  0.10211  1.0000
  F   F82       1.0  0.8559900000000001  0.6337  0.04588  1.0000
  C   C284      1.0  0.78588  0.61619  0.05092  1.0000
  F   F83       1.0  0.77609  0.5839  0.02727  1.0000
  F   F84       1.0  0.75911  0.61607  0.07817  1.0000
  C   C285      1.0  0.82676  0.57459  0.11659  1.0000
  H   H121      1.0  0.86974  0.50101  0.11437999999999998  1.0000
  H   H122      1.0  0.8986000000000002  0.48928  0.05728  1.0000
  H   H123      1.0  0.9208  0.52988  0.03975  1.0000
  H   H124      1.0  0.8742100000000002  0.50357  0.016959999999999996  1.0000
  H   H125      1.0  0.8657300000000002  0.57276  0.03112  1.0000
  H   H126      1.0  0.80995  0.58985  0.13447  1.0000
  C   C286      1.0  0.47631000000000007  0.17613  0.66658  1.0000
  C   C287      1.0  0.43694  0.1596  0.65395  1.0000
  C   C288      1.0  0.42846  0.13658  0.61974  1.0000
  C   C289      1.0  0.38737  0.11495  0.60844  1.0000
  C   C290      1.0  0.4591  0.13243  0.5967  1.0000
  C   C291      1.0  0.49843000000000004  0.15084  0.6077  1.0000
  C   C292      1.0  0.5323600000000002  0.14658  0.58339  1.0000
  F   F85       1.0  0.5635700000000002  0.17531  0.59411  1.0000
  F   F86       1.0  0.54618  0.11628  0.59133  1.0000
  C   C293      1.0  0.5213  0.14526  0.54007  1.0000
  F   F87       1.0  0.49246  0.16541  0.53385  1.0000
  F   F88       1.0  0.55449  0.1604  0.52371  1.0000
  C   C294      1.0  0.5068  0.17152  0.64357  1.0000
  H   H127      1.0  0.41326  0.16296  0.67176  1.0000
  H   H128      1.0  0.36613  0.12138  0.62906  1.0000
  H   H129      1.0  0.38842000000000004  0.08606  0.60746  1.0000
  H   H130      1.0  0.37625  0.12014000000000001  0.57999  1.0000
  H   H131      1.0  0.4518000000000001  0.11475  0.57035  1.0000
  H   H132      1.0  0.5371200000000003  0.1843  0.65374  1.0000
  C   C295      1.0  0.36389  0.8401500000000001  0.5504  1.0000
  C   C296      1.0  0.39132  0.82666  0.5731  1.0000
  C   C297      1.0  0.4277099999999999  0.84823  0.58827  1.0000
  C   C298      1.0  0.4576000000000002  0.83341  0.61132  1.0000
  C   C299      1.0  0.43681  0.8837600000000001  0.58093  1.0000
  C   C300      1.0  0.41009  0.8978500000000001  0.55801  1.0000
  C   C301      1.0  0.4227  0.93465  0.5458  1.0000
  F   F89       1.0  0.39097999999999994  0.9523599999999998  0.54619  1.0000
  F   F90       1.0  0.4533  0.9550400000000001  0.5709  1.0000
  C   C302      1.0  0.43640000000000007  0.9306300000000001  0.50552  1.0000
  F   F91       1.0  0.45948  0.90484  0.50277  1.0000
  F   F92       1.0  0.40335  0.91904  0.47946  1.0000
  C   C303      1.0  0.37358  0.87584  0.54285  1.0000
  H   H133      1.0  0.38458  0.79912  0.57878  1.0000
  H   H134      1.0  0.44655000000000006  0.80489  0.61451  1.0000
  H   H135      1.0  0.46409  0.84909  0.63998  1.0000
  H   H136      1.0  0.48553  0.8353  0.59713  1.0000
  H   H137      1.0  0.46541  0.89995  0.5921899999999999  1.0000
  H   H138      1.0  0.35329  0.88622  0.52437  1.0000
  C   C304      1.0  0.9369500000000001  0.37378  0.20774  1.0000
  C   C305      1.0  0.95798  0.40927  0.21322  1.0000
  C   C306      1.0  0.94016  0.437  0.22882  1.0000
  C   C307      1.0  0.96247  0.47500999999999993  0.23516999999999996  1.0000
  C   C308      1.0  0.90142  0.4290900000000001  0.23959999999999998  1.0000
  C   C309      1.0  0.87963  0.39378  0.23411  1.0000
  C   C310      1.0  0.83885  0.38506  0.24887000000000004  1.0000
  F   F93       1.0  0.8296300000000001  0.34885  0.25232  1.0000
  F   F94       1.0  0.83993  0.40324  0.28498  1.0000
  C   C311      1.0  0.80539  0.39388  0.22215999999999997  1.0000
  F   F95       1.0  0.8095900000000003  0.38061  0.18514  1.0000
  F   F96       1.0  0.76898  0.37672  0.23142  1.0000
  C   C312      1.0  0.89757  0.36633  0.21738  1.0000
  H   H139      1.0  0.9884699999999998  0.41528  0.20608  1.0000
  H   H140      1.0  0.99319  0.4772  0.22661  1.0000
  H   H141      1.0  0.96427  0.4856  0.26569  1.0000
  H   H142      1.0  0.9466  0.49165  0.21833999999999998  1.0000
  H   H143      1.0  0.8890000000000002  0.45058999999999994  0.25331  1.0000
  H   H144      1.0  0.88167  0.33884000000000003  0.2135  1.0000
  C   C313      1.0  0.17153  0.17607  0.94466  1.0000
  C   C314      1.0  0.16055  0.18117  0.9073399999999999  1.0000
  C   C315      1.0  0.12785  0.15830999999999998  0.88627  1.0000
  C   C316      1.0  0.11670000000000001  0.16256  0.8458  1.0000
  C   C317      1.0  0.10579  0.1307  0.90293  1.0000
  C   C318      1.0  0.11594  0.12558  0.94067  1.0000
  C   C319      1.0  0.08904000000000002  0.09778  0.95912  1.0000
  F   F97       1.0  0.0629  0.11515  0.97827  1.0000
  F   F98       1.0  0.06663999999999999  0.07248999999999999  0.9309999999999999  1.0000
  C   C320      1.0  0.11090000000000003  0.07782000000000001  0.98718  1.0000
  F   F99       1.0  0.14436999999999997  0.06845999999999997  0.9725399999999998  1.0000
  F   F100      1.0  0.12227000000000002  0.09953  0.02148  1.0000
  C   C321      1.0  0.14877000000000004  0.14891  0.96144  1.0000
  H   H145      1.0  0.17824  0.20212  0.89435  1.0000
  H   H146      1.0  0.13524  0.18665  0.83706  1.0000
  H   H147      1.0  0.08502000000000001  0.16511  0.84209  1.0000
  H   H148      1.0  0.12087  0.13864  0.82697  1.0000
  H   H149      1.0  0.08018  0.11369  0.88636  1.0000
  H   H150      1.0  0.15672999999999998  0.1463  0.9907299999999999  1.0000
  C   C322      1.0  0.44876  0.22501  0.86874  1.0000
  C   C323      1.0  0.4502500000000001  0.25762  0.89132  1.0000
  C   C324      1.0  0.42823  0.25915  0.92286  1.0000
  C   C325      1.0  0.43027  0.29404  0.94744  1.0000
  C   C326      1.0  0.40518  0.22758  0.93206  1.0000
  C   C327      1.0  0.40303  0.19462999999999997  0.90924  1.0000
  C   C328      1.0  0.37931000000000004  0.16022  0.92  1.0000
  F   F101      1.0  0.38728000000000007  0.13087000000000001  0.8974299999999998  1.0000
  F   F102      1.0  0.39175  0.15693  0.95708  1.0000
  C   C329      1.0  0.33384000000000014  0.1589  0.9151899999999998  1.0000
  F   F103      1.0  0.32390000000000013  0.17382999999999998  0.8830599999999998  1.0000
  F   F104      1.0  0.31410000000000005  0.12351999999999999  0.9104699999999999  1.0000
  C   C330      1.0  0.4246600000000001  0.19387  0.87718  1.0000
  H   H151      1.0  0.4688199999999998  0.28166  0.8845799999999999  1.0000
  H   H152      1.0  0.44748000000000004  0.31681  0.9352100000000001  1.0000
  H   H153      1.0  0.44522000000000006  0.29286  0.9757  1.0000
  H   H154      1.0  0.3997700000000001  0.29912  0.9506  1.0000
  H   H155      1.0  0.38938  0.22872  0.95725  1.0000
  H   H156      1.0  0.4240900000000001  0.1689  0.85932  1.0000
  C   C331      1.0  0.9036500000000002  0.58425  0.42236  1.0000
  C   C332      1.0  0.91794  0.62035  0.41919  1.0000
  C   C333      1.0  0.8972800000000002  0.63825  0.39456  1.0000
  C   C334      1.0  0.9122300000000002  0.67691  0.39099  1.0000
  C   C335      1.0  0.8618  0.62004  0.37356  1.0000
  C   C336      1.0  0.84652  0.58409  0.37709  1.0000
  C   C337      1.0  0.80562  0.56554  0.35846  1.0000
  F   F105      1.0  0.78731  0.54357  0.38305  1.0000
  F   F106      1.0  0.78234  0.59084  0.35282  1.0000
  C   C338      1.0  0.80753  0.54305  0.31985  1.0000
  F   F107      1.0  0.82185  0.56572  0.29427  1.0000
  F   F108      1.0  0.83307  0.51942  0.32422  1.0000
  C   C339      1.0  0.86823  0.56627  0.40098  1.0000
  H   H157      1.0  0.9453  0.63438  0.43547  1.0000
  H   H158      1.0  0.94116  0.68755  0.40801  1.0000
  H   H159      1.0  0.8903300000000002  0.69298  0.40101  1.0000
  H   H160      1.0  0.91619  0.68013  0.3609  1.0000
  H   H161      1.0  0.8458300000000001  0.63419  0.35499  1.0000
  H   H162      1.0  0.8568  0.53853  0.40381  1.0000
  C   C340      1.0  0.47454  0.57888  0.10916  1.0000
  C   C341      1.0  0.5043100000000001  0.57766  0.13779  1.0000
  C   C342      1.0  0.50777  0.59979  0.1725  1.0000
  C   C343      1.0  0.5387900000000002  0.59782  0.20366  1.0000
  C   C344      1.0  0.48135  0.62337  0.17849  1.0000
  C   C345      1.0  0.45149  0.62529  0.15004  1.0000
  C   C346      1.0  0.42153  0.64969  0.15718  1.0000
  F   F109      1.0  0.39425  0.64537  0.12553  1.0000
  F   F110      1.0  0.39998000000000006  0.63889  0.18663  1.0000
  C   C347      1.0  0.44128  0.69015  0.16534999999999997  1.0000
  F   F111      1.0  0.47409  0.69634  0.14494  1.0000
  F   F112      1.0  0.4145  0.71011  0.15247  1.0000
  C   C348      1.0  0.4486700000000001  0.60295  0.11529999999999999  1.0000
  H   H163      1.0  0.52427  0.55899  0.13342  1.0000
  H   H164      1.0  0.55744  0.57804  0.19484  1.0000
  H   H165      1.0  0.5240600000000002  0.58965  0.22888  1.0000
  H   H166      1.0  0.55844  0.62449  0.21152999999999997  1.0000
  H   H167      1.0  0.48403000000000007  0.63979  0.20559  1.0000
  H   H168      1.0  0.42564  0.60346  0.09311999999999998  1.0000
  C   C349      1.0  0.8638400000000003  0.9459900000000001  0.70166  1.0000
  C   C350      1.0  0.87643  0.9398100000000001  0.66521  1.0000
  C   C351      1.0  0.8932  0.90983  0.65465  1.0000
  C   C352      1.0  0.90753  0.9035100000000001  0.6161  1.0000
  C   C353      1.0  0.89652  0.88529  0.68032  1.0000
  C   C354      1.0  0.8838300000000002  0.8905400000000001  0.71671  1.0000
  C   C355      1.0  0.8856100000000002  0.8620700000000001  0.74287  1.0000
  F   F113      1.0  0.86514  0.8693700000000001  0.7741199999999999  1.0000
  F   F114      1.0  0.86609  0.82919  0.72402  1.0000
  C   C356      1.0  0.92887  0.86016  0.7574499999999997  1.0000
  F   F115      1.0  0.9523100000000001  0.89406  0.76286  1.0000
  F   F116      1.0  0.92807  0.84756  0.79229  1.0000
  C   C357      1.0  0.8681400000000001  0.9215300000000001  0.72749  1.0000
  H   H169      1.0  0.87356  0.95857  0.64508  1.0000
  H   H170      1.0  0.90177  0.9242199999999998  0.5981499999999998  1.0000
  H   H171      1.0  0.8921400000000003  0.87686  0.60152  1.0000
  H   H172      1.0  0.94006  0.9040499999999999  0.61923  1.0000
  H   H173      1.0  0.9085000000000002  0.8616900000000001  0.67166  1.0000
  H   H174      1.0  0.85833  0.9263099999999999  0.75549  1.0000
  C   C358      1.0  0.05427999999999998  0.58548  0.44136  1.0000
  C   C359      1.0  0.027589999999999993  0.595  0.41433  1.0000
  C   C360      1.0  0.03827999999999996  0.62589  0.39694999999999997  1.0000
  C   C361      1.0  0.00967  0.63623  0.36836999999999986  1.0000
  C   C362      1.0  0.07607  0.64734  0.40634  1.0000
  C   C363      1.0  0.10274000000000004  0.6392700000000001  0.43436  1.0000
  C   C364      1.0  0.14257000000000006  0.66438  0.44568  1.0000
  F   F117      1.0  0.16718999999999998  0.6483699999999999  0.46791  1.0000
  F   F118      1.0  0.16111000000000006  0.6713  0.4133  1.0000
  C   C365      1.0  0.13695  0.69995  0.46782999999999997  1.0000
  F   F119      1.0  0.11436  0.71738  0.4452499999999999  1.0000
  F   F120      1.0  0.11714999999999996  0.69283  0.49945999999999996  1.0000
  C   C366      1.0  0.09156999999999998  0.60809  0.45169  1.0000
  H   H175      1.0  0.9986800000000001  0.57802  0.40611  1.0000
  H   H176      1.0  0.9804200000000001  0.61762  0.36489  1.0000
  H   H177      1.0  0.022009999999999995  0.63596  0.34043  1.0000
  H   H178      1.0  0.004769999999999983  0.66357  0.37782  1.0000
  H   H179      1.0  0.08456  0.67059  0.39192  1.0000
  H   H180      1.0  0.11187  0.60121  0.47302999999999995  1.0000
  C   C367      1.0  0.30257000000000006  0.9046300000000002  0.2141  1.0000
  C   C368      1.0  0.27259  0.87945  0.22629  1.0000
  C   C369      1.0  0.28128  0.84855  0.23962  1.0000
  C   C370      1.0  0.24995  0.82305  0.25532999999999995  1.0000
  C   C371      1.0  0.31998  0.84212  0.23959999999999998  1.0000
  C   C372      1.0  0.3503300000000001  0.8663500000000001  0.22653  1.0000
  C   C373      1.0  0.39148  0.8573300000000001  0.22578  1.0000
  F   F121      1.0  0.41948  0.8874200000000001  0.22195  1.0000
  F   F122      1.0  0.4014700000000001  0.84599  0.26011  1.0000
  C   C374      1.0  0.39236000000000015  0.8277500000000001  0.19249999999999998  1.0000
  F   F123      1.0  0.36151  0.79894  0.19281  1.0000
  F   F124      1.0  0.38772  0.84168  0.15862999999999997  1.0000
  C   C375      1.0  0.34156999999999993  0.8981599999999998  0.21445  1.0000
  H   H181      1.0  0.24270000000000003  0.8847300000000001  0.22713000000000003  1.0000
  H   H182      1.0  0.22123000000000004  0.83248  0.2552  1.0000
  H   H183      1.0  0.25984  0.82053  0.28507  1.0000
  H   H184      1.0  0.24508000000000002  0.79635  0.23811  1.0000
  H   H185      1.0  0.32653  0.81816  0.25009999999999993  1.0000
  H   H186      1.0  0.36464  0.9175  0.20489  1.0000
  C   C376      1.0  0.019910000000000108  0.8795900000000001  0.90217  1.0000
  C   C377      1.0  0.98176  0.85834  0.89587  1.0000
  C   C378      1.0  0.97324  0.82835  0.86825  1.0000
  C   C379      1.0  0.93233  0.8053199999999999  0.86317  1.0000
  C   C380      1.0  0.003270000000000101  0.81975  0.84626  1.0000
  C   C381      1.0  0.041610000000000036  0.84152  0.851  1.0000
  C   C382      1.0  0.07522000000000001  0.8314399999999998  0.82874  1.0000
  F   F125      1.0  0.10696000000000006  0.8602  0.83331  1.0000
  F   F126      1.0  0.08868  0.80395  0.84449  1.0000
  C   C383      1.0  0.06378999999999993  0.821  0.7852799999999999  1.0000
  F   F127      1.0  0.041520000000000216  0.84448  0.77282  1.0000
  F   F128      1.0  0.09818999999999997  0.8247800000000001  0.76689  1.0000
  C   C384      1.0  0.04951  0.87141  0.87945  1.0000
  H   H187      1.0  0.9585  0.8655  0.9121100000000001  1.0000
  H   H188      1.0  0.90946  0.82211  0.85993  1.0000
  H   H189      1.0  0.92724  0.79128  0.88848  1.0000
  H   H190      1.0  0.9286000000000002  0.78504  0.83765  1.0000
  H   H191      1.0  0.99646  0.79591  0.8259  1.0000
  H   H192      1.0  0.07915000000000001  0.8876  0.88524  1.0000
  C   C385      1.0  0.17242  0.85198  0.5534  1.0000
  C   C386      1.0  0.16772000000000006  0.8848  0.54152  1.0000
  C   C387      1.0  0.14230999999999996  0.90498  0.55889  1.0000
  C   C388      1.0  0.13716000000000006  0.9399500000000001  0.54602  1.0000
  C   C389      1.0  0.12115000000000005  0.8921300000000001  0.58821  1.0000
  C   C390      1.0  0.1252  0.85924  0.60041  1.0000
  C   C391      1.0  0.10095000000000001  0.8452400000000001  0.63131  1.0000
  F   F129      1.0  0.12111000000000001  0.82334  0.65044  1.0000
  F   F130      1.0  0.09658  0.8737  0.65741  1.0000
  C   C392      1.0  0.05944000000000002  0.82398  0.61456  1.0000
  F   F131      1.0  0.040260000000000004  0.84477  0.59299  1.0000
  F   F132      1.0  0.06382999999999996  0.79365  0.59144  1.0000
  C   C393      1.0  0.15119  0.83933  0.5829  1.0000
  H   H193      1.0  0.1837900000000001  0.8946800000000001  0.51858  1.0000
  H   H194      1.0  0.155  0.9462  0.5220099999999999  1.0000
  H   H195      1.0  0.14679000000000003  0.9619000000000002  0.56982  1.0000
  H   H196      1.0  0.10536999999999999  0.9387499999999999  0.5366  1.0000
  H   H197      1.0  0.10114999999999996  0.90766  0.60122  1.0000
  H   H198      1.0  0.15411000000000005  0.81365  0.5914499999999999  1.0000
  C   C394      1.0  0.10593000000000001  0.47881  0.58328  1.0000
  C   C395      1.0  0.07799  0.47695  0.61005  1.0000
  C   C396      1.0  0.09017  0.47901  0.64863  1.0000
  C   C397      1.0  0.059939999999999986  0.4784  0.67702  1.0000
  C   C398      1.0  0.13079  0.48273999999999995  0.66055  1.0000
  C   C399      1.0  0.15934000000000004  0.48358000000000007  0.634  1.0000
  C   C400      1.0  0.20377  0.49051000000000006  0.6469  1.0000
  F   F133      1.0  0.22489  0.48644  0.61551  1.0000
  F   F134      1.0  0.2147  0.52589  0.66299  1.0000
  C   C401      1.0  0.21610000000000001  0.4653300000000001  0.6750499999999999  1.0000
  F   F135      1.0  0.19004000000000004  0.43257  0.66859  1.0000
  F   F136      1.0  0.25362  0.4587899999999999  0.6688599999999999  1.0000
  C   C402      1.0  0.14631000000000002  0.48155  0.59522  1.0000
  H   H199      1.0  0.04677000000000003  0.47500000000000003  0.60098  1.0000
  H   H200      1.0  0.029099999999999987  0.472  0.66296  1.0000
  H   H201      1.0  0.06394  0.50506  0.69395  1.0000
  H   H202      1.0  0.06332999999999998  0.45791999999999994  0.69599  1.0000
  H   H203      1.0  0.13999  0.48521000000000003  0.69047  1.0000
  H   H204      1.0  0.16754  0.48316  0.57416  1.0000
  C   C403      1.0  0.59247  0.74045  0.1735  1.0000
  C   C404      1.0  0.58723  0.7034  0.16313  1.0000
  C   C405      1.0  0.6174  0.68869  0.14656  1.0000
  C   C406      1.0  0.6119  0.64887  0.1365  1.0000
  C   C407      1.0  0.6515700000000001  0.7116  0.13795  1.0000
  C   C408      1.0  0.6562100000000001  0.74894  0.14734  1.0000
  C   C409      1.0  0.68851  0.77497  0.13266  1.0000
  F   F137      1.0  0.7100600000000001  0.7969600000000001  0.16368  1.0000
  F   F138      1.0  0.7149  0.75671  0.11480999999999998  1.0000
  C   C410      1.0  0.67048  0.79846  0.10524  1.0000
  F   F139      1.0  0.62925  0.79217  0.10258  1.0000
  F   F140      1.0  0.68381  0.83438  0.11876999999999999  1.0000
  C   C411      1.0  0.6279000000000002  0.76267  0.16796999999999998  1.0000
  H   H205      1.0  0.55943  0.68618  0.1671  1.0000
  H   H206      1.0  0.58486  0.63898  0.11641000000000001  1.0000
  H   H207      1.0  0.6083700000000001  0.6357200000000001  0.16254999999999997  1.0000
  H   H208      1.0  0.63784  0.64118  0.12312  1.0000
  H   H209      1.0  0.6737  0.70038  0.12303999999999998  1.0000
  H   H210      1.0  0.6311600000000004  0.7913899999999999  0.17532  1.0000
  C   C412      1.0  0.66551  0.33071  0.41712  1.0000
  C   C413      1.0  0.63  0.34149000000000007  0.42607  1.0000
  C   C414      1.0  0.6102000000000001  0.35986  0.40129  1.0000
  C   C415      1.0  0.57168  0.3706  0.41033  1.0000
  C   C416      1.0  0.62616  0.36772  0.36742  1.0000
  C   C417      1.0  0.66144  0.35684  0.35774  1.0000
  C   C418      1.0  0.6777700000000001  0.36345000000000005  0.32017  1.0000
  F   F141      1.0  0.69132  0.33315  0.30571  1.0000
  F   F142      1.0  0.64754  0.36773  0.29404  1.0000
  C   C419      1.0  0.7125300000000001  0.39635  0.32441  1.0000
  F   F143      1.0  0.73236  0.40259  0.3605  1.0000
  F   F144      1.0  0.7398100000000001  0.38944  0.29912  1.0000
  C   C420      1.0  0.68108  0.33855  0.38297  1.0000
  H   H211      1.0  0.6176000000000001  0.33539  0.45222  1.0000
  H   H212      1.0  0.5620600000000002  0.3616500000000001  0.43734  1.0000
  H   H213      1.0  0.54804  0.35831  0.38724  1.0000
  H   H214      1.0  0.5751900000000002  0.4001800000000001  0.41286  1.0000
  H   H215      1.0  0.61077  0.38206  0.34855  1.0000
  H   H216      1.0  0.70847  0.3302800000000001  0.37582  1.0000
  C   C421      1.0  0.70138  0.50214  0.17677  1.0000
  C   C422      1.0  0.7276  0.4904299999999999  0.15206  1.0000
  C   C423      1.0  0.72094  0.49033  0.1128  1.0000
  C   C424      1.0  0.7501300000000002  0.47911  0.08672  1.0000
  C   C425      1.0  0.68634  0.50018  0.09778  1.0000
  C   C426      1.0  0.65887  0.51098  0.12182000000000001  1.0000
  C   C427      1.0  0.6198600000000002  0.51885  0.10545  1.0000
  F   F145      1.0  0.6082400000000002  0.54476  0.13031  1.0000
  F   F146      1.0  0.62607  0.53381  0.07215  1.0000
  C   C428      1.0  0.58622  0.48452  0.09857  1.0000
  F   F147      1.0  0.59977  0.45475  0.10911  1.0000
  F   F148      1.0  0.55531  0.4897500000000001  0.12021  1.0000
  C   C429      1.0  0.66689  0.51225  0.16123  1.0000
  H   H217      1.0  0.753  0.481  0.16313  1.0000
  H   H218      1.0  0.77598  0.47207000000000005  0.10267999999999997  1.0000
  H   H219      1.0  0.76141  0.50138  0.07054  1.0000
  H   H220      1.0  0.7352900000000002  0.45537  0.06655  1.0000
  H   H221      1.0  0.68054  0.49874000000000007  0.06732  1.0000
  H   H222      1.0  0.64546  0.5201  0.17974  1.0000
  C   C430      1.0  0.012520000000000085  0.39613  0.39314  1.0000
  C   C431      1.0  0.9737  0.39352  0.37666  1.0000
  C   C432      1.0  0.9594300000000001  0.36943  0.34392  1.0000
  C   C433      1.0  0.91779  0.36635  0.32624  1.0000
  C   C434      1.0  0.9848600000000001  0.34915999999999997  0.32654  1.0000
  C   C435      1.0  0.02456  0.35232  0.34199  1.0000
  C   C436      1.0  0.05547  0.33465  0.32237  1.0000
  F   F149      1.0  0.08999000000000001  0.3603  0.32411  1.0000
  F   F150      1.0  0.06442999999999999  0.30811999999999995  0.34289  1.0000
  C   C437      1.0  0.04469999999999998  0.31955  0.27985  1.0000
  F   F151      1.0  0.03411  0.34625  0.26075  1.0000
  F   F152      1.0  0.07822  0.31039  0.26515  1.0000
  C   C438      1.0  0.037209999999999986  0.37466  0.37648  1.0000
  H   H223      1.0  0.95492  0.41077  0.38884  1.0000
  H   H224      1.0  0.90171  0.38504  0.3421  1.0000
  H   H225      1.0  0.90105  0.33855999999999997  0.32565999999999995  1.0000
  H   H226      1.0  0.91894  0.37292  0.29684  1.0000
  H   H227      1.0  0.9733200000000001  0.33195  0.30057  1.0000
  H   H228      1.0  0.06762  0.37752  0.38877  1.0000
  C   C439      1.0  0.57951  0.12966  0.80531  1.0000
  C   C440      1.0  0.5554700000000001  0.0954  0.80181  1.0000
  C   C441      1.0  0.571  0.06624999999999996  0.8121199999999997  1.0000
  C   C442      1.0  0.54502  0.02971  0.80849  1.0000
  C   C443      1.0  0.61086  0.07143999999999998  0.8266999999999999  1.0000
  C   C444      1.0  0.6362800000000002  0.10505  0.82881  1.0000
  C   C445      1.0  0.67958  0.11012999999999998  0.8451899999999999  1.0000
  F   F153      1.0  0.69361  0.14599  0.85862  1.0000
  F   F154      1.0  0.68166  0.09132  0.87606  1.0000
  C   C446      1.0  0.7073400000000002  0.09824999999999999  0.8157099999999999  1.0000
  F   F155      1.0  0.6968  0.10814  0.78081  1.0000
  F   F156      1.0  0.74609  0.11563000000000001  0.82734  1.0000
  C   C447      1.0  0.62022  0.13416  0.81761  1.0000
  H   H229      1.0  0.5242300000000001  0.09148  0.79176  1.0000
  H   H230      1.0  0.51441  0.02972  0.796  1.0000
  H   H231      1.0  0.54303  0.020640000000000002  0.83688  1.0000
  H   H232      1.0  0.5578799999999999  0.01044  0.78979  1.0000
  H   H233      1.0  0.6216400000000001  0.049200000000000015  0.83705  1.0000
  H   H234      1.0  0.63892  0.16046  0.81961  1.0000
  C   C448      1.0  0.27877  0.33822  0.91861  1.0000
  C   C449      1.0  0.29458  0.33367  0.88352  1.0000
  C   C450      1.0  0.2963599999999999  0.36033  0.8594  1.0000
  C   C451      1.0  0.3123700000000001  0.35527  0.8214399999999997  1.0000
  C   C452      1.0  0.28281  0.39192  0.87085  1.0000
  C   C453      1.0  0.2670200000000001  0.39682  0.90595  1.0000
  C   C454      1.0  0.25051000000000007  0.43007  0.9175799999999998  1.0000
  F   F157      1.0  0.24561000000000002  0.43299999999999994  0.95604  1.0000
  F   F158      1.0  0.27788  0.45993000000000006  0.9122800000000001  1.0000
  C   C455      1.0  0.20969  0.42898  0.89537  1.0000
  F   F159      1.0  0.18967  0.39393000000000006  0.88514  1.0000
  F   F160      1.0  0.18631000000000003  0.44595  0.9186899999999999  1.0000
  C   C456      1.0  0.265  0.36968999999999996  0.9294899999999999  1.0000
  H   H235      1.0  0.30495  0.30923  0.87478  1.0000
  H   H236      1.0  0.32123  0.32882000000000006  0.81603  1.0000
  H   H237      1.0  0.33882000000000007  0.37652  0.8201699999999998  1.0000
  H   H238      1.0  0.28917999999999994  0.3569  0.7987199999999999  1.0000
  H   H239      1.0  0.28439000000000003  0.41257  0.85234  1.0000
  H   H240      1.0  0.25238  0.37287  0.9563699999999999  1.0000
  C   C457      1.0  0.9844900000000001  0.67419  0.66052  1.0000
  C   C458      1.0  0.9445600000000001  0.6581700000000001  0.64942  1.0000
  C   C459      1.0  0.9348800000000002  0.6255  0.62532  1.0000
  C   C460      1.0  0.8923200000000001  0.60808  0.61317  1.0000
  C   C461      1.0  0.9653300000000001  0.6093  0.61145  1.0000
  C   C462      1.0  0.005459999999999987  0.62513  0.62153  1.0000
  C   C463      1.0  0.037949999999999984  0.6077300000000001  0.6048  1.0000
  F   F161      1.0  0.07471  0.62473  0.62298  1.0000
  F   F162      1.0  0.03235999999999999  0.57243  0.61191  1.0000
  C   C464      1.0  0.03944000000000004  0.60987  0.56153  1.0000
  F   F163      1.0  0.03213  0.64272  0.55333  1.0000
  F   F164      1.0  0.07745000000000005  0.6076  0.55222  1.0000
  C   C465      1.0  0.014739999999999984  0.6573  0.64689  1.0000
  H   H241      1.0  0.9210799999999997  0.67132  0.65921  1.0000
  H   H242      1.0  0.87131  0.62388  0.62579  1.0000
  H   H243      1.0  0.88616  0.58094  0.62214  1.0000
  H   H244      1.0  0.88691  0.60548  0.58178  1.0000
  H   H245      1.0  0.9576500000000001  0.5843899999999999  0.59245  1.0000
  H   H246      1.0  0.045460000000000035  0.6704  0.65455  1.0000
  C   C466      1.0  0.52473  0.62467  0.31051  1.0000
  C   C467      1.0  0.5027600000000001  0.59121  0.31562  1.0000
  C   C468      1.0  0.52216  0.5630000000000001  0.32217  1.0000
  C   C469      1.0  0.49875  0.52721  0.32793  1.0000
  C   C470      1.0  0.56383  0.56846  0.32387  1.0000
  C   C471      1.0  0.58634  0.60201  0.31937  1.0000
  C   C472      1.0  0.63153  0.60836  0.32271  1.0000
  F   F165      1.0  0.64682  0.64479  0.32526  1.0000
  F   F166      1.0  0.64505  0.5975700000000002  0.35624  1.0000
  C   C473      1.0  0.64746  0.58926  0.28788  1.0000
  F   F167      1.0  0.62196  0.58787  0.25559  1.0000
  F   F168      1.0  0.68388  0.60928  0.28203  1.0000
  C   C474      1.0  0.56633  0.62978  0.3121  1.0000
  H   H247      1.0  0.47059000000000006  0.5871  0.31446999999999997  1.0000
  H   H248      1.0  0.4663  0.52717  0.32647  1.0000
  H   H249      1.0  0.50826  0.52054  0.35625  1.0000
  H   H250      1.0  0.50405  0.50631  0.30568  1.0000
  H   H251      1.0  0.5786100000000002  0.54665  0.32917  1.0000
  H   H252      1.0  0.58305  0.65568  0.30803  1.0000
  C   C475      1.0  0.7049600000000001  0.004119999999999903  0.6789399999999999  1.0000
  C   C476      1.0  0.72658  0.0005499999999999801  0.6474099999999999  1.0000
  C   C477      1.0  0.7069100000000001  0.9964500000000001  0.61068  1.0000
  C   C478      1.0  0.7283100000000001  0.9887400000000001  0.57644  1.0000
  C   C479      1.0  0.6658300000000004  0.99621  0.60598  1.0000
  C   C480      1.0  0.64415  0.99988  0.63765  1.0000
  C   C481      1.0  0.599  0.99254  0.63365  1.0000
  F   F169      1.0  0.5846  0.0014499999999999466  0.66816  1.0000
  F   F170      1.0  0.58636  0.014790000000000003  0.6093  1.0000
  C   C482      1.0  0.58158  0.9522200000000001  0.6194299999999999  1.0000
  F   F171      1.0  0.60928  0.9307799999999999  0.62544  1.0000
  F   F172      1.0  0.54919  0.94037  0.63887  1.0000
  C   C483      1.0  0.6645200000000001  0.005749999999999926  0.67367  1.0000
  H   H253      1.0  0.7576000000000002  0.9985700000000001  0.6513399999999999  1.0000
  H   H254      1.0  0.7601400000000003  0.9885700000000001  0.58437  1.0000
  H   H255      1.0  0.72612  0.00921  0.55717  1.0000
  H   H256      1.0  0.71431  0.96198  0.5611899999999999  1.0000
  H   H257      1.0  0.65046  0.9913400000000001  0.57775  1.0000
  H   H258      1.0  0.6479700000000002  0.00822999999999996  0.69826  1.0000
  C   C484      1.0  0.51986  0.31864  0.82441  1.0000
  C   C485      1.0  0.5404400000000003  0.31239  0.8576  1.0000
  C   C486      1.0  0.54158  0.33532000000000006  0.89151  1.0000
  C   C487      1.0  0.56022  0.32719999999999994  0.9280799999999999  1.0000
  C   C488      1.0  0.52387  0.36554  0.89152  1.0000
  C   C489      1.0  0.5060600000000001  0.37383  0.85775  1.0000
  C   C490      1.0  0.48909  0.40784  0.85715  1.0000
  F   F173      1.0  0.46998  0.40847  0.82168  1.0000
  F   F174      1.0  0.46054  0.40767  0.88277  1.0000
  C   C491      1.0  0.52188  0.44217  0.86631  1.0000
  F   F175      1.0  0.55615  0.43696  0.84992  1.0000
  F   F176      1.0  0.5088  0.47031  0.85143  1.0000
  C   C492      1.0  0.5036  0.34969000000000006  0.82456  1.0000
  H   H259      1.0  0.55377  0.28891  0.85759  1.0000
  H   H260      1.0  0.57259  0.30235  0.9239  1.0000
  H   H261      1.0  0.53746  0.32362  0.94868  1.0000
  H   H262      1.0  0.58468  0.34976  0.9400399999999999  1.0000
  H   H263      1.0  0.5239500000000002  0.38242  0.9179599999999999  1.0000
  H   H264      1.0  0.48872000000000004  0.35477  0.79851  1.0000
  C   C493      1.0  0.42352  0.53702  0.9085200000000001  1.0000
  C   C494      1.0  0.45246999999999993  0.54716  0.884  1.0000
  C   C495      1.0  0.44216  0.56061  0.85047  1.0000
  C   C496      1.0  0.47313  0.57221  0.82447  1.0000
  C   C497      1.0  0.40288  0.56474  0.84192  1.0000
  C   C498      1.0  0.3736  0.55562  0.8666399999999999  1.0000
  C   C499      1.0  0.33291  0.5658  0.8608699999999999  1.0000
  F   F177      1.0  0.32446  0.58192  0.8953799999999998  1.0000
  F   F178      1.0  0.33349  0.59101  0.83577  1.0000
  C   C500      1.0  0.29887  0.53344  0.84692  1.0000
  F   F179      1.0  0.3008200000000001  0.5069100000000001  0.86966  1.0000
  F   F180      1.0  0.26312  0.54474  0.8505  1.0000
  C   C501      1.0  0.38409  0.54076  0.8994799999999998  1.0000
  H   H265      1.0  0.48302000000000006  0.5446799999999999  0.89112  1.0000
  H   H266      1.0  0.50284  0.56779  0.83499  1.0000
  H   H267      1.0  0.47540000000000004  0.6011999999999998  0.8224099999999999  1.0000
  H   H268      1.0  0.46466  0.55692  0.79578  1.0000
  H   H269      1.0  0.3956  0.57605  0.81642  1.0000
  H   H270      1.0  0.36219  0.53423  0.91929  1.0000
  C   C502      1.0  0.56646  0.58364  0.9787899999999999  1.0000
  C   C503      1.0  0.54766  0.60715  0.9600499999999998  1.0000
  C   C504      1.0  0.56958  0.64008  0.95305  1.0000
  C   C505      1.0  0.55002  0.66494  0.93192  1.0000
  C   C506      1.0  0.61037  0.64953  0.9652499999999999  1.0000
  C   C507      1.0  0.62937  0.62667  0.98508  1.0000
  C   C508      1.0  0.67364  0.63673  0.99795  1.0000
  F   F181      1.0  0.68631  0.6087900000000002  0.01373  1.0000
  F   F182      1.0  0.69379  0.6417000000000002  0.9660799999999999  1.0000
  C   C509      1.0  0.68399  0.67059  0.02797  1.0000
  F   F183      1.0  0.6518399999999999  0.67296  0.04897  1.0000
  F   F184      1.0  0.7154900000000002  0.66839  0.05329  1.0000
  C   C510      1.0  0.60694  0.5939  0.99183  1.0000
  H   H271      1.0  0.51638  0.59952  0.95007  1.0000
  H   H272      1.0  0.51792  0.65382  0.9238  1.0000
  H   H273      1.0  0.56475  0.66942  0.90568  1.0000
  H   H274      1.0  0.55279  0.69099  0.95004  1.0000
  H   H275      1.0  0.6272900000000001  0.6746100000000002  0.9590199999999999  1.0000
  H   H276      1.0  0.62092  0.57597  0.00721  1.0000
  C   C511      1.0  0.83221  0.36084999999999995  0.5276299999999999  1.0000
  C   C512      1.0  0.8244900000000002  0.39333  0.54469  1.0000
  C   C513      1.0  0.85216  0.4252000000000001  0.5447899999999999  1.0000
  C   C514      1.0  0.8445100000000001  0.4602  0.5632  1.0000
  C   C515      1.0  0.8870800000000002  0.42463  0.52681  1.0000
  C   C516      1.0  0.89523  0.39239  0.50903  1.0000
  C   C517      1.0  0.93083  0.39219  0.48561  1.0000
  F   F185      1.0  0.9350700000000001  0.35706  0.47571  1.0000
  F   F186      1.0  0.92234  0.40539000000000003  0.45203  1.0000
  C   C518      1.0  0.9713500000000002  0.4133800000000001  0.50643  1.0000
  F   F187      1.0  0.9708000000000001  0.41317  0.54522  1.0000
  F   F188      1.0  0.0011900000000000257  0.39575  0.49533000000000005  1.0000
  C   C519      1.0  0.8676400000000001  0.3605  0.51031  1.0000
  H   H277      1.0  0.79696  0.39374  0.55766  1.0000
  H   H278      1.0  0.81566  0.45676  0.5759  1.0000
  H   H279      1.0  0.84388  0.47894000000000003  0.54168  1.0000
  H   H280      1.0  0.8687100000000001  0.47204  0.58592  1.0000
  H   H281      1.0  0.9075199999999999  0.44956000000000007  0.52664  1.0000
  H   H282      1.0  0.8722900000000002  0.33537  0.49585  1.0000
  C   C520      1.0  0.46291999999999994  0.80571  0.31445  1.0000
  C   C521      1.0  0.42184000000000005  0.79581  0.31577999999999995  1.0000
  C   C522      1.0  0.40338999999999997  0.81106  0.34557  1.0000
  C   C523      1.0  0.35961  0.79954  0.34821  1.0000
  C   C524      1.0  0.42611  0.83762  0.37292  1.0000
  C   C525      1.0  0.46731  0.84879  0.37082  1.0000
  C   C526      1.0  0.49163  0.87983  0.39766  1.0000
  F   F189      1.0  0.50864  0.90574  0.37646  1.0000
  F   F190      1.0  0.46669  0.89513  0.42076  1.0000
  C   C527      1.0  0.52505  0.86861  0.42246  1.0000
  F   F191      1.0  0.5108400000000002  0.83656  0.43572  1.0000
  F   F192      1.0  0.5570300000000002  0.86458  0.40192  1.0000
  C   C528      1.0  0.4854200000000001  0.83222  0.34162  1.0000
  H   H283      1.0  0.4043  0.77651  0.2935  1.0000
  H   H284      1.0  0.34561  0.77895  0.32416999999999996  1.0000
  H   H285      1.0  0.34496  0.82301  0.3476699999999999  1.0000
  H   H286      1.0  0.35479  0.78805  0.37513  1.0000
  H   H287      1.0  0.4113800000000001  0.84963  0.39547  1.0000
  H   H288      1.0  0.51684  0.84094  0.33901  1.0000
