data_image0
_chemical_formula_structural       Ce2C2HC2O8HO8C4Ce2C2HC2O8HO8C4Ce2C2HC2O8HO8C4Ce2C2HC2O8HO8C5OC2IC6N3C2IH9COC2IC6N3C2IH9COC2IC6N3C2IH9COC2IC6N3C2IH9COC2IC6N3C2IH9COC2IC6N3C2IH9COC2IC6N3C2IH9COC2IC6N3C2IH9COC2IC6N3C2IH9COC2IC6N3C2IH9COC2IC6N3C2IH9COC2IC6N3C2IH9COC2IC6N3C2IH9COC2IC6N3C2IH9COC2IC6N3C2IH9COC2IC6N3C2IH9
_chemical_formula_sum              "Ce8 C208 H152 O80 I32 N48"
_cell_length_a       19.133
_cell_length_b       35.06700000000001
_cell_length_c       29.5053
_cell_angle_alpha    91.57029999999999
_cell_angle_beta     85.571
_cell_angle_gamma    86.9904

_symmetry_space_group_name_H-M    'P 1'
_symmetry_Int_Tables_number       1

loop_
  _symmetry_equiv_pos_as_xyz
  'x,y,z'

loop_
  _atom_site_type_symbol
  _atom_site_label
  _atom_site_symmetry_multiplicity
  _atom_site_fract_x
  _atom_site_fract_y
  _atom_site_fract_z
  _atom_site_occupancy
  Ce  Ce1       1.0  0.64822  0.29079  0.4826199999999999  1.0000
  Ce  Ce2       1.0  0.8058700000000001  0.26544  0.5646199999999998  1.0000
  C   C1        1.0  0.5909  0.27484  0.4045899999999999  1.0000
  C   C2        1.0  0.9771899999999999  0.26495  0.53997  1.0000
  H   H1        1.0  0.44122000000000006  0.33613  0.4704299999999999  1.0000
  C   C3        1.0  0.8536700000000002  0.18948  0.54664  1.0000
  C   C4        1.0  0.66325  0.26057  0.57724  1.0000
  O   O1        1.0  0.8626400000000001  0.27371  0.63013  1.0000
  O   O2        1.0  0.80658  0.2238  0.62465  1.0000
  O   O3        1.0  0.48238999999999993  0.32495  0.4831899999999999  1.0000
  O   O4        1.0  0.53916  0.27806  0.5158399999999999  1.0000
  O   O5        1.0  0.60265  0.3454  0.45499  1.0000
  O   O6        1.0  0.6506  0.34928  0.51898  1.0000
  O   O7        1.0  0.75343  0.29966  0.4438099999999999  1.0000
  O   O8        1.0  0.75354  0.25632  0.49525999999999987  1.0000
  H   H2        1.0  0.022610000000000036  0.30232  0.5771399999999998  1.0000
  O   O9        1.0  0.6231200000000002  0.24902  0.4262199999999999  1.0000
  O   O10       1.0  0.59319  0.30892  0.42027999999999993  1.0000
  O   O11       1.0  0.97887  0.29235000000000005  0.56903  1.0000
  O   O12       1.0  0.9185900000000001  0.25144  0.5308699999999997  1.0000
  O   O13       1.0  0.8812199999999999  0.21776000000000004  0.52841  1.0000
  O   O14       1.0  0.80297  0.19921  0.57541  1.0000
  O   O15       1.0  0.69766  0.2793  0.6017899999999998  1.0000
  O   O16       1.0  0.69919  0.24958  0.5355799999999997  1.0000
  C   C5        1.0  0.84403  0.24351  0.64871  1.0000
  C   C6        1.0  0.4827  0.29279  0.50195  1.0000
  C   C7        1.0  0.61699  0.36651  0.48881999999999987  1.0000
  C   C8        1.0  0.78967  0.2747  0.45956  1.0000
  Ce  Ce3       1.0  0.16509999999999997  0.78404  0.47138999999999986  1.0000
  Ce  Ce4       1.0  0.32625  0.7384  0.50728  1.0000
  C   C9        1.0  0.13230000000000008  0.75004  0.3929899999999999  1.0000
  C   C10       1.0  0.46429999999999993  0.78987  0.4746899999999999  1.0000
  H   H3        1.0  0.9585299999999999  0.80682  0.4759299999999999  1.0000
  C   C11       1.0  0.32404000000000005  0.66075  0.4994999999999999  1.0000
  C   C12       1.0  0.20149000000000003  0.743  0.5592199999999999  1.0000
  O   O17       1.0  0.38138000000000016  0.7388900000000002  0.57468  1.0000
  O   O18       1.0  0.42489  0.7008400000000001  0.5227  1.0000
  O   O19       1.0  0.00442000000000009  0.79586  0.4815299999999999  1.0000
  O   O20       1.0  0.07541  0.74945  0.5021599999999999  1.0000
  O   O21       1.0  0.12955  0.84394  0.4982199999999999  1.0000
  O   O22       1.0  0.22280999999999998  0.83796  0.4521599999999999  1.0000
  O   O23       1.0  0.26304000000000005  0.8045  0.42886999999999986  1.0000
  O   O24       1.0  0.26179  0.7438  0.44286  1.0000
  H   H4        1.0  0.53383  0.82675  0.45603  1.0000
  O   O25       1.0  0.17380000000000007  0.73374  0.4192799999999999  1.0000
  O   O26       1.0  0.11097  0.78401  0.4053199999999999  1.0000
  O   O27       1.0  0.48462  0.8216  0.4600499999999999  1.0000
  O   O28       1.0  0.39815999999999996  0.78538  0.4789899999999999  1.0000
  O   O29       1.0  0.37497  0.67938  0.4825099999999999  1.0000
  O   O30       1.0  0.2743200000000001  0.68141  0.5206599999999998  1.0000
  O   O31       1.0  0.23582000000000006  0.71283  0.5493699999999998  1.0000
  O   O32       1.0  0.22747999999999988  0.77438  0.5362099999999999  1.0000
  C   C13       1.0  0.4289199999999999  0.71382  0.5624199999999998  1.0000
  C   C14       1.0  0.013409999999999934  0.76228  0.4962699999999999  1.0000
  C   C15       1.0  0.17956000000000003  0.86036  0.4770599999999999  1.0000
  C   C16       1.0  0.29183  0.77301  0.4185199999999999  1.0000
  Ce  Ce5       1.0  0.21043  0.21281  0.03375999999999999  1.0000
  Ce  Ce6       1.0  0.33281  0.27502  0.9671799999999998  1.0000
  C   C17       1.0  0.17898  0.2196  0.12681  1.0000
  C   C18       1.0  0.4952800000000001  0.2502  0.9568499999999998  1.0000
  H   H5        1.0  0.0011200000000000114  0.20537  0.09110999999999997  1.0000
  C   C19       1.0  0.37320999999999993  0.34122  0.008469999999999978  1.0000
  C   C20       1.0  0.1971  0.26464  0.9470999999999999  1.0000
  O   O33       1.0  0.35769  0.23246000000000003  0.9062999999999999  1.0000
  O   O34       1.0  0.36209  0.29090000000000005  0.89279  1.0000
  O   O35       1.0  0.04410000000000002  0.21108  0.07379  1.0000
  O   O36       1.0  0.10413000000000001  0.24277000000000004  0.021939999999999994  1.0000
  O   O37       1.0  0.14208  0.16143  0.02287  1.0000
  O   O38       1.0  0.22823000000000004  0.16627  0.9757599999999998  1.0000
  O   O39       1.0  0.32246  0.1935  0.05073999999999999  1.0000
  O   O40       1.0  0.29945000000000005  0.25419  0.04102999999999998  1.0000
  H   H6        1.0  0.5370000000000001  0.27622  0.9037399999999998  1.0000
  O   O41       1.0  0.1849399999999999  0.24777000000000002  0.10173999999999997  1.0000
  O   O42       1.0  0.18549  0.18822  0.10493999999999998  1.0000
  O   O43       1.0  0.49532999999999994  0.27264  0.9236199999999998  1.0000
  O   O44       1.0  0.43907999999999997  0.24636999999999998  0.9818499999999998  1.0000
  O   O45       1.0  0.40614  0.32493  0.9744599999999998  1.0000
  O   O46       1.0  0.31757  0.32552  0.019999999999999796  1.0000
  O   O47       1.0  0.22191000000000002  0.2958  0.9491499999999998  1.0000
  O   O48       1.0  0.24114999999999998  0.23512  0.96051  1.0000
  C   C21       1.0  0.36945  0.25712  0.87677  1.0000
  C   C22       1.0  0.04618999999999995  0.23644999999999997  0.04374  1.0000
  C   C23       1.0  0.17560999999999996  0.14774  0.9874499999999999  1.0000
  C   C24       1.0  0.34427  0.22542  0.055449999999999985  1.0000
  Ce  Ce7       1.0  0.66072  0.73105  0.02473  1.0000
  Ce  Ce8       1.0  0.8489800000000001  0.77256  0.97625  1.0000
  C   C25       1.0  0.59023  0.70135  0.09864  1.0000
  C   C26       1.0  0.9970799999999999  0.77061  0.023400000000000084  1.0000
  H   H7        1.0  0.48699999999999993  0.74441  0.97479  1.0000
  C   C27       1.0  0.8479500000000001  0.84777  0.95955  1.0000
  C   C28       1.0  0.73445  0.74817  0.92885  1.0000
  O   O49       1.0  0.91508  0.7224  0.9408899999999998  1.0000
  O   O50       1.0  0.92525  0.77727  0.91221  1.0000
  O   O51       1.0  0.53317  0.74982  0.9833999999999999  1.0000
  O   O52       1.0  0.61631  0.78725  0.9988799999999999  1.0000
  O   O53       1.0  0.62986  0.68171  0.9790199999999999  1.0000
  O   O54       1.0  0.68893  0.66772  0.03613  1.0000
  O   O55       1.0  0.71108  0.76715  0.0793  1.0000
  O   O56       1.0  0.78267  0.73685  0.02941  1.0000
  H   H8        1.0  0.07299999999999998  0.75101  0.9792499999999997  1.0000
  O   O57       1.0  0.65282  0.68995  0.08509999999999997  1.0000
  O   O58       1.0  0.56464  0.72737  0.07521999999999997  1.0000
  O   O59       1.0  0.023700000000000027  0.75858  0.9845899999999999  1.0000
  O   O60       1.0  0.9312599999999999  0.77888  0.029530000000000053  1.0000
  O   O61       1.0  0.8031599999999999  0.8341  0.9884599999999999  1.0000
  O   O62       1.0  0.894  0.82345  0.9404899999999998  1.0000
  O   O63       1.0  0.77205  0.77332  0.9192599999999997  1.0000
  O   O64       1.0  0.7538499999999999  0.7319700000000001  0.96807  1.0000
  C   C29       1.0  0.9423100000000001  0.74165  0.9090399999999997  1.0000
  C   C30       1.0  0.55386  0.78365  0.98818  1.0000
  C   C31       1.0  0.65783  0.6556  0.0021  1.0000
  C   C32       1.0  0.7720900000000002  0.75743  0.06984999999999997  1.0000
  C   C33       1.0  0.41922  0.27009999999999995  0.50149  1.0000
  O   O65       1.0  0.411  0.26207  0.45456999999999986  1.0000
  C   C34       1.0  0.35214  0.24239  0.44554  1.0000
  C   C35       1.0  0.29265  0.26258  0.4315499999999999  1.0000
  I   I1        1.0  0.28718000000000005  0.32296  0.43040999999999996  1.0000
  C   C36       1.0  0.23609  0.2428  0.4177299999999999  1.0000
  C   C37       1.0  0.23833  0.20275  0.4180999999999999  1.0000
  C   C38       1.0  0.17455  0.18162  0.40824  1.0000
  C   C39       1.0  0.13637999999999995  0.16911  0.45245999999999986  1.0000
  C   C40       1.0  0.10960000000000002  0.20301000000000002  0.4821199999999999  1.0000
  C   C41       1.0  0.04156000000000001  0.21748  0.4874099999999999  1.0000
  N   N1        1.0  0.04005999999999996  0.24645  0.51833  1.0000
  N   N2        1.0  0.10434  0.24975  0.53114  1.0000
  N   N3        1.0  0.1482  0.22363  0.50928  1.0000
  C   C42       1.0  0.29849  0.18263999999999997  0.4311399999999999  1.0000
  C   C43       1.0  0.35578999999999994  0.20229  0.44396999999999986  1.0000
  I   I2        1.0  0.44811999999999996  0.17055  0.4583399999999999  1.0000
  H   H9        1.0  0.3729700000000001  0.28725  0.51765  1.0000
  H   H10       1.0  0.4267800000000001  0.24325999999999998  0.5200699999999998  1.0000
  H   H11       1.0  0.18969000000000005  0.25866  0.4079699999999999  1.0000
  H   H12       1.0  0.19065  0.15608  0.3859999999999999  1.0000
  H   H13       1.0  0.13761000000000004  0.19976  0.38957999999999987  1.0000
  H   H14       1.0  0.17158  0.15029  0.47144  1.0000
  H   H15       1.0  0.09136  0.15219  0.4437399999999999  1.0000
  H   H16       1.0  0.99684  0.20689  0.47158  1.0000
  H   H17       1.0  0.3007500000000001  0.15169  0.4311899999999999  1.0000
  C   C44       1.0  0.9522499999999999  0.73751  0.5034199999999998  1.0000
  O   O66       1.0  0.9317799999999999  0.72618  0.4597  1.0000
  C   C45       1.0  0.86566  0.71084  0.45993  1.0000
  C   C46       1.0  0.80793  0.73404  0.4484299999999999  1.0000
  I   I3        1.0  0.8177300000000001  0.79244  0.43504  1.0000
  C   C47       1.0  0.7433599999999997  0.71833  0.4431499999999999  1.0000
  C   C48       1.0  0.7355899999999997  0.6792  0.44881  1.0000
  C   C49       1.0  0.66641  0.66222  0.4415699999999999  1.0000
  C   C50       1.0  0.61414  0.66969  0.4830699999999999  1.0000
  C   C51       1.0  0.58609  0.71047  0.4874399999999999  1.0000
  C   C52       1.0  0.52952  0.7261700000000001  0.4668599999999999  1.0000
  N   N4        1.0  0.5157200000000001  0.76121  0.4862399999999999  1.0000
  N   N5        1.0  0.5637  0.76728  0.51528  1.0000
  N   N6        1.0  0.6065200000000001  0.73653  0.51743  1.0000
  C   C53       1.0  0.79302  0.65595  0.46055  1.0000
  C   C54       1.0  0.85813  0.67148  0.4653299999999999  1.0000
  I   I4        1.0  0.94499  0.63395  0.47595  1.0000
  H   H18       1.0  0.9084999999999998  0.75406  0.52338  1.0000
  H   H19       1.0  0.9675299999999999  0.71192  0.5224  1.0000
  H   H20       1.0  0.69948  0.73654  0.4338399999999999  1.0000
  H   H21       1.0  0.67449  0.6307900000000001  0.4360099999999999  1.0000
  H   H22       1.0  0.6444  0.67335  0.41041  1.0000
  H   H23       1.0  0.63997  0.6618599999999999  0.5142299999999999  1.0000
  H   H24       1.0  0.56943  0.65098  0.4804299999999999  1.0000
  H   H25       1.0  0.49945000000000006  0.71252  0.44213999999999987  1.0000
  H   H26       1.0  0.7873799999999997  0.62566  0.4652  1.0000
  C   C55       1.0  0.56051  0.22772  0.9664499999999999  1.0000
  O   O67       1.0  0.5936  0.24656000000000003  0.0020699999999997942  1.0000
  C   C56       1.0  0.65605  0.26349  0.9878899999999998  1.0000
  C   C57       1.0  0.7148099999999998  0.2418  0.9674399999999997  1.0000
  I   I5        1.0  0.7211200000000001  0.18115  0.96491  1.0000
  C   C58       1.0  0.7739900000000001  0.26023  0.9509299999999998  1.0000
  C   C59       1.0  0.7771599999999999  0.29998  0.9559499999999999  1.0000
  C   C60       1.0  0.84357  0.31938  0.9413499999999999  1.0000
  C   C61       1.0  0.88149  0.33313  0.9822399999999999  1.0000
  C   C62       1.0  0.91175  0.29994  0.006899999999999998  1.0000
  C   C63       1.0  0.9817900000000002  0.29038  0.010259999999999997  1.0000
  N   N7        1.0  0.9841  0.25817  0.03385  1.0000
  N   N8        1.0  0.91908  0.24869000000000002  0.04494  1.0000
  N   N9        1.0  0.87371  0.27375  0.028869999999999993  1.0000
  C   C64       1.0  0.71962  0.32129  0.9777199999999999  1.0000
  C   C65       1.0  0.66038  0.30304  0.9947399999999998  1.0000
  I   I6        1.0  0.58046  0.33577  0.03315999999999999  1.0000
  H   H27       1.0  0.59472  0.22370000000000004  0.9341999999999998  1.0000
  H   H28       1.0  0.5468  0.19889  0.9774299999999999  1.0000
  H   H29       1.0  0.81828  0.24315  0.93573  1.0000
  H   H30       1.0  0.83021  0.34397  0.91999  1.0000
  H   H31       1.0  0.8811600000000002  0.29986  0.9202899999999999  1.0000
  H   H32       1.0  0.84525  0.35119  0.006189999999999999  1.0000
  H   H33       1.0  0.92469  0.35111  0.96956  1.0000
  H   H34       1.0  0.026810000000000004  0.30527  0.9968699999999999  1.0000
  H   H35       1.0  0.72147  0.35201  0.9821599999999999  1.0000
  C   C66       1.0  0.04229000000000004  0.77343  0.06300999999999979  1.0000
  O   O68       1.0  0.07422000000000001  0.80942  0.06597000000000008  1.0000
  C   C67       1.0  0.13044000000000006  0.81514  0.03391999999999973  1.0000
  C   C68       1.0  0.19769999999999996  0.79734  0.03712000000000004  1.0000
  I   I7        1.0  0.22123000000000007  0.76254  0.0921099999999999  1.0000
  C   C69       1.0  0.25307  0.80511  0.005330000000000056  1.0000
  C   C70       1.0  0.24273  0.8312400000000001  0.9708399999999998  1.0000
  C   C71       1.0  0.30064  0.83868  0.9347399999999999  1.0000
  C   C72       1.0  0.35034  0.86904  0.9503099999999999  1.0000
  C   C73       1.0  0.41752999999999996  0.85378  0.9680599999999999  1.0000
  C   C74       1.0  0.44021999999999994  0.81626  0.9723199999999999  1.0000
  N   N10       1.0  0.50736  0.81638  0.9824799999999999  1.0000
  N   N11       1.0  0.52405  0.85244  0.98688  1.0000
  N   N12       1.0  0.47063999999999995  0.87582  0.9775899999999998  1.0000
  C   C75       1.0  0.17682  0.85052  0.9696999999999998  1.0000
  C   C76       1.0  0.12151000000000002  0.84286  0.0012299999999998423  1.0000
  I   I8        1.0  0.026129999999999973  0.87566  0.0007599999999998718  1.0000
  H   H36       1.0  0.08173  0.74896  0.06170999999999999  1.0000
  H   H37       1.0  0.008040000000000002  0.77096  0.09474999999999997  1.0000
  H   H38       1.0  0.30415000000000003  0.7911499999999999  0.008199999999999761  1.0000
  H   H39       1.0  0.27585  0.84974  0.9043599999999998  1.0000
  H   H40       1.0  0.32881  0.81151  0.92206  1.0000
  H   H41       1.0  0.32259999999999983  0.88902  0.97625  1.0000
  H   H42       1.0  0.3656799999999999  0.88612  0.92039  1.0000
  H   H43       1.0  0.41179000000000004  0.7910300000000001  0.9674299999999998  1.0000
  H   H44       1.0  0.16883000000000006  0.87196  0.9445199999999998  1.0000
  C   C77       1.0  0.18644000000000002  0.9025  0.48104999999999987  1.0000
  O   O69       1.0  0.18591999999999995  0.91399  0.5281099999999999  1.0000
  C   C78       1.0  0.14795999999999998  0.94869  0.53946  1.0000
  C   C79       1.0  0.07881  0.94882  0.55946  1.0000
  I   I9        1.0  0.03143000000000006  0.89747  0.57674  1.0000
  C   C80       1.0  0.039410000000000035  0.9833900000000001  0.5679299999999998  1.0000
  C   C81       1.0  0.06859000000000003  0.018239999999999996  0.5571799999999998  1.0000
  C   C82       1.0  0.02451  0.05528000000000001  0.56365  1.0000
  C   C83       1.0  0.010750000000000001  0.07222  0.51755  1.0000
  C   C84       1.0  0.9488099999999999  0.1004  0.52192  1.0000
  C   C85       1.0  0.9457299999999998  0.13695  0.5406099999999998  1.0000
  N   N13       1.0  0.87976  0.15101  0.53702  1.0000
  N   N14       1.0  0.8446799999999999  0.12495  0.51681  1.0000
  N   N15       1.0  0.8854600000000001  0.09355  0.50736  1.0000
  C   C86       1.0  0.13879999999999998  0.018099999999999998  0.53949  1.0000
  C   C87       1.0  0.17857  0.9836599999999999  0.53091  1.0000
  I   I10       1.0  0.2849  0.98579  0.5057899999999997  1.0000
  H   H45       1.0  0.14250000000000002  0.91684  0.4641499999999999  1.0000
  H   H46       1.0  0.23674  0.90983  0.46292  1.0000
  H   H47       1.0  0.9854900000000001  0.98295  0.58199  1.0000
  H   H48       1.0  0.05166000000000002  0.07603  0.5843799999999998  1.0000
  H   H49       1.0  0.97345  0.05005999999999999  0.5826199999999998  1.0000
  H   H50       1.0  0.9993500000000001  0.04889999999999999  0.4934199999999999  1.0000
  H   H51       1.0  0.05796000000000001  0.08623  0.50307  1.0000
  H   H52       1.0  0.9868800000000001  0.15182  0.5553599999999997  1.0000
  H   H53       1.0  0.16235000000000002  0.04478  0.5317799999999999  1.0000
  C   C88       1.0  0.152  0.11472  0.9607  1.0000
  O   O70       1.0  0.08795  0.1266  0.9418699999999998  1.0000
  C   C89       1.0  0.04165000000000001  0.09764999999999999  0.9354899999999998  1.0000
  C   C90       1.0  0.98915  0.09077  0.9696999999999998  1.0000
  I   I11       1.0  0.9808299999999999  0.12172000000000001  0.03259  1.0000
  C   C91       1.0  0.9398600000000001  0.06374  0.9622299999999998  1.0000
  C   C92       1.0  0.9408900000000001  0.0438  0.9203  1.0000
  C   C93       1.0  0.8866900000000001  0.014780000000000012  0.9130099999999998  1.0000
  C   C94       1.0  0.92074  0.97404  0.90589  1.0000
  C   C95       1.0  0.8762400000000002  0.9429700000000001  0.9244099999999997  1.0000
  C   C96       1.0  0.8975199999999999  0.90486  0.9246099999999998  1.0000
  N   N16       1.0  0.8470599999999999  0.88749  0.94899  1.0000
  N   N17       1.0  0.79693  0.91349  0.96305  1.0000
  N   N18       1.0  0.8133  0.9476899999999999  0.9485799999999998  1.0000
  C   C97       1.0  0.99267  0.05127999999999999  0.8857299999999998  1.0000
  C   C98       1.0  0.043150000000000015  0.07785  0.89338  1.0000
  I   I12       1.0  0.12008000000000005  0.08856999999999998  0.8405399999999997  1.0000
  H   H54       1.0  0.14533  0.09016  0.98347  1.0000
  H   H55       1.0  0.19246  0.10635  0.9326399999999998  1.0000
  H   H56       1.0  0.9003100000000003  0.058600000000000006  0.9892099999999998  1.0000
  H   H57       1.0  0.85799  0.022520000000000095  0.88303  1.0000
  H   H58       1.0  0.8471000000000003  0.01611999999999991  0.9426199999999998  1.0000
  H   H59       1.0  0.9703500000000002  0.97181  0.9229499999999998  1.0000
  H   H60       1.0  0.9342100000000001  0.96811  0.8690599999999999  1.0000
  H   H61       1.0  0.94633  0.89119  0.9103299999999998  1.0000
  H   H62       1.0  0.99401  0.03657  0.8529299999999997  1.0000
  C   C99       1.0  0.59324  0.40797  0.4924099999999999  1.0000
  O   O71       1.0  0.54059  0.41413  0.46111999999999986  1.0000
  C   C100      1.0  0.47909  0.43684  0.4737099999999999  1.0000
  C   C101      1.0  0.45876999999999996  0.46361  0.44196999999999986  1.0000
  I   I13       1.0  0.52569  0.47397999999999996  0.3836299999999999  1.0000
  C   C102      1.0  0.3931700000000001  0.48314999999999997  0.44729  1.0000
  C   C103      1.0  0.3458100000000002  0.47608  0.4841499999999999  1.0000
  C   C104      1.0  0.27315  0.49541999999999997  0.4881299999999999  1.0000
  C   C105      1.0  0.26503  0.52657  0.5258199999999997  1.0000
  C   C106      1.0  0.30259  0.56141  0.51219  1.0000
  C   C107      1.0  0.27381  0.59821  0.51286  1.0000
  N   N19       1.0  0.32648000000000005  0.62002  0.49925999999999987  1.0000
  N   N20       1.0  0.38463  0.59803  0.4911199999999999  1.0000
  N   N21       1.0  0.37156999999999996  0.5619  0.4987799999999999  1.0000
  C   C108      1.0  0.3659  0.45017  0.5167099999999998  1.0000
  C   C109      1.0  0.43159999999999993  0.43015  0.51181  1.0000
  I   I14       1.0  0.4479  0.38905  0.5620399999999999  1.0000
  H   H63       1.0  0.63867  0.42493  0.4817999999999999  1.0000
  H   H64       1.0  0.57544  0.41733  0.52776  1.0000
  H   H65       1.0  0.37895  0.5038  0.42249  1.0000
  H   H66       1.0  0.23413  0.47362000000000004  0.49573  1.0000
  H   H67       1.0  0.26031000000000004  0.50802  0.4553399999999999  1.0000
  H   H68       1.0  0.28525  0.5156  0.5575299999999997  1.0000
  H   H69       1.0  0.20819  0.5346  0.5330499999999999  1.0000
  H   H70       1.0  0.22029000000000004  0.60817  0.5231099999999997  1.0000
  H   H71       1.0  0.32925  0.4447  0.5453799999999998  1.0000
  C   C110      1.0  0.40113  0.37333  0.0343  1.0000
  O   O72       1.0  0.35140999999999994  0.40525  0.03999999999999999  1.0000
  C   C111      1.0  0.38482  0.43949  0.0452  1.0000
  C   C112      1.0  0.4042299999999999  0.46002  0.0065  1.0000
  I   I15       1.0  0.3726499999999999  0.4436  0.9419999999999997  1.0000
  C   C113      1.0  0.4478  0.49051000000000006  0.00984  1.0000
  C   C114      1.0  0.47261  0.50095  0.05173999999999999  1.0000
  C   C115      1.0  0.52058  0.53361  0.05432  1.0000
  C   C116      1.0  0.5933  0.52362  0.029029999999999993  1.0000
  C   C117      1.0  0.62022  0.55765  0.00505  1.0000
  C   C118      1.0  0.64767  0.5889400000000001  0.02503  1.0000
  N   N22       1.0  0.64889  0.61602  0.9935899999999999  1.0000
  N   N23       1.0  0.6237  0.60204  0.95639  1.0000
  N   N24       1.0  0.60582  0.56649  0.9623899999999999  1.0000
  C   C119      1.0  0.45072  0.48144000000000003  0.09081999999999997  1.0000
  C   C120      1.0  0.4069999999999999  0.45083  0.08768999999999998  1.0000
  I   I16       1.0  0.3780299999999999  0.42168  0.14752999999999994  1.0000
  H   H72       1.0  0.45069000000000004  0.38124  0.015449999999999742  1.0000
  H   H73       1.0  0.41379000000000005  0.3631  0.0681  1.0000
  H   H74       1.0  0.46397  0.50548  0.9795  1.0000
  H   H75       1.0  0.52788  0.54164  0.09034999999999999  1.0000
  H   H76       1.0  0.49407  0.55894  0.03959  1.0000
  H   H77       1.0  0.5907  0.50014  0.00325  1.0000
  H   H78       1.0  0.63096  0.51358  0.053609999999999984  1.0000
  H   H79       1.0  0.65946  0.59291  0.060179999999999984  1.0000
  H   H80       1.0  0.46889  0.48942  0.12346999999999997  1.0000
  C   C121      1.0  0.8631900000000001  0.26528  0.4392099999999999  1.0000
  O   O73       1.0  0.87165  0.28332  0.39632999999999996  1.0000
  C   C122      1.0  0.94037  0.28316  0.3758599999999999  1.0000
  C   C123      1.0  0.95726  0.2621299999999999  0.3348499999999999  1.0000
  I   I17       1.0  0.88474  0.22568  0.30845  1.0000
  C   C124      1.0  0.021749999999999978  0.26587  0.30989  1.0000
  C   C125      1.0  0.07052  0.29068  0.32549  1.0000
  C   C126      1.0  0.13729  0.29769  0.29683  1.0000
  C   C127      1.0  0.18674000000000002  0.26175  0.2889699999999999  1.0000
  C   C128      1.0  0.17388999999999993  0.23963  0.24638999999999994  1.0000
  C   C129      1.0  0.17988  0.25237  0.20248999999999995  1.0000
  N   N25       1.0  0.16916999999999996  0.22206  0.17535999999999993  1.0000
  N   N26       1.0  0.15764999999999996  0.19255  0.20121999999999995  1.0000
  N   N27       1.0  0.15991  0.20236  0.24476  1.0000
  C   C130      1.0  0.053920000000000017  0.31153  0.3665199999999999  1.0000
  C   C131      1.0  0.9891300000000001  0.30846  0.3912699999999999  1.0000
  I   I18       1.0  0.96441  0.3476  0.44690999999999986  1.0000
  H   H81       1.0  0.8721699999999999  0.23382999999999998  0.4340999999999999  1.0000
  H   H82       1.0  0.9004599999999998  0.27652  0.4619099999999999  1.0000
  H   H83       1.0  0.03233000000000001  0.25068  0.2773699999999999  1.0000
  H   H84       1.0  0.16643999999999995  0.31992  0.31379  1.0000
  H   H85       1.0  0.12357  0.30975  0.2640399999999999  1.0000
  H   H86       1.0  0.18185000000000004  0.24309  0.3187299999999999  1.0000
  H   H87       1.0  0.24177000000000004  0.27053  0.28565  1.0000
  H   H88       1.0  0.19343  0.28023  0.19138999999999995  1.0000
  H   H89       1.0  0.09046000000000003  0.33134  0.3786499999999999  1.0000
  C   C132      1.0  0.10632000000000008  0.7303200000000001  0.35275  1.0000
  O   O74       1.0  0.15459  0.73307  0.3136799999999999  1.0000
  C   C133      1.0  0.12392  0.72447  0.27329  1.0000
  C   C134      1.0  0.09129  0.75398  0.24988  1.0000
  I   I19       1.0  0.09399  0.81168  0.27228  1.0000
  C   C135      1.0  0.05367000000000003  0.74535  0.21245999999999995  1.0000
  C   C136      1.0  0.047150000000000004  0.70721  0.19853999999999994  1.0000
  C   C137      1.0  0.99851  0.69786  0.16245999999999997  1.0000
  C   C138      1.0  0.9215699999999999  0.70903  0.17898999999999995  1.0000
  C   C139      1.0  0.88893  0.7390600000000002  0.15092999999999995  1.0000
  C   C140      1.0  0.87107  0.73337  0.10694999999999998  1.0000
  N   N28       1.0  0.8215999999999999  0.76091  0.10027999999999997  1.0000
  N   N29       1.0  0.8115199999999998  0.78294  0.13758  1.0000
  N   N30       1.0  0.85229  0.7705  0.16895  1.0000
  C   C141      1.0  0.08304999999999998  0.67793  0.22033999999999998  1.0000
  C   C142      1.0  0.12174  0.68643  0.2573  1.0000
  I   I20       1.0  0.17415  0.6409  0.2885199999999999  1.0000
  H   H90       1.0  0.05414999999999999  0.74424  0.34693  1.0000
  H   H91       1.0  0.09854999999999998  0.6999  0.3603699999999999  1.0000
  H   H92       1.0  0.027200000000000002  0.76824  0.19529999999999997  1.0000
  H   H93       1.0  0.0027200000000000605  0.66665  0.15404  1.0000
  H   H94       1.0  0.015179999999999968  0.71221  0.13065999999999997  1.0000
  H   H95       1.0  0.91626  0.71896  0.21522999999999995  1.0000
  H   H96       1.0  0.88992  0.6834  0.17716999999999994  1.0000
  H   H97       1.0  0.88351  0.70808  0.08526999999999997  1.0000
  H   H98       1.0  0.07956000000000009  0.6484  0.20937999999999998  1.0000
  C   C143      1.0  0.8660000000000001  0.23181  0.69382  1.0000
  O   O75       1.0  0.8061  0.22301  0.72301  1.0000
  C   C144      1.0  0.82411  0.21622999999999998  0.7672099999999997  1.0000
  C   C145      1.0  0.8218000000000001  0.24681  0.7989199999999999  1.0000
  I   I21       1.0  0.77467  0.30075  0.78506  1.0000
  C   C146      1.0  0.8549799999999999  0.24259  0.8390099999999998  1.0000
  C   C147      1.0  0.8892000000000001  0.2077  0.8485599999999998  1.0000
  C   C148      1.0  0.9360600000000001  0.20528000000000002  0.8873399999999999  1.0000
  C   C149      1.0  0.013890000000000034  0.20308  0.8693099999999998  1.0000
  C   C150      1.0  0.054490000000000025  0.23204  0.8928699999999998  1.0000
  C   C151      1.0  0.11178000000000005  0.22458  0.9171199999999998  1.0000
  N   N31       1.0  0.13541  0.25864  0.92826  1.0000
  N   N32       1.0  0.09469  0.28577  0.9117099999999998  1.0000
  N   N33       1.0  0.04447000000000002  0.27025  0.88997  1.0000
  C   C152      1.0  0.8844  0.17597000000000002  0.8192  1.0000
  C   C153      1.0  0.8518  0.18012  0.7785999999999997  1.0000
  I   I22       1.0  0.84877  0.1322  0.7338299999999999  1.0000
  H   H99       1.0  0.8937700000000001  0.25561  0.7089199999999999  1.0000
  H   H100      1.0  0.9034599999999999  0.20647000000000004  0.68877  1.0000
  H   H101      1.0  0.8575899999999999  0.26729  0.86097  1.0000
  H   H102      1.0  0.9244099999999998  0.17988000000000004  0.9078599999999998  1.0000
  H   H103      1.0  0.9253200000000001  0.23062  0.9106  1.0000
  H   H104      1.0  0.020400000000000033  0.20807000000000003  0.8321499999999997  1.0000
  H   H105      1.0  0.03705000000000002  0.17393999999999998  0.8744599999999998  1.0000
  H   H106      1.0  0.13635  0.197  0.92318  1.0000
  H   H107      1.0  0.90937  0.14866000000000001  0.8266199999999998  1.0000
  C   C154      1.0  0.40715  0.23306000000000002  0.08081  1.0000
  O   O76       1.0  0.4092799999999999  0.27341  0.09029999999999998  1.0000
  C   C155      1.0  0.40704  0.2839  0.13670999999999994  1.0000
  C   C156      1.0  0.46326999999999996  0.27352  0.16293  1.0000
  I   I23       1.0  0.55864  0.24688  0.13318999999999995  1.0000
  C   C157      1.0  0.45789  0.28188  0.20976999999999996  1.0000
  C   C158      1.0  0.39727  0.301  0.23091999999999996  1.0000
  C   C159      1.0  0.39067999999999997  0.3097  0.2814  1.0000
  C   C160      1.0  0.38965  0.27318  0.30916  1.0000
  C   C161      1.0  0.45915999999999996  0.26381  0.32752  1.0000
  C   C162      1.0  0.49268  0.28656  0.3567899999999999  1.0000
  N   N34       1.0  0.5487799999999999  0.26526  0.3682499999999999  1.0000
  N   N35       1.0  0.54921  0.23153999999999997  0.34779999999999994  1.0000
  N   N36       1.0  0.49511999999999995  0.22967000000000004  0.32223999999999997  1.0000
  C   C163      1.0  0.34331  0.31311  0.20439  1.0000
  C   C164      1.0  0.34839  0.30538  0.15761  1.0000
  I   I24       1.0  0.26493  0.3274  0.12159999999999997  1.0000
  H   H108      1.0  0.45580999999999994  0.22238000000000002  0.06066999999999999  1.0000
  H   H109      1.0  0.40295999999999993  0.21654  0.11253999999999999  1.0000
  H   H110      1.0  0.50095  0.27337000000000006  0.22964999999999997  1.0000
  H   H111      1.0  0.34117  0.32704  0.2910799999999999  1.0000
  H   H112      1.0  0.4339199999999999  0.32788  0.2900099999999999  1.0000
  H   H113      1.0  0.37362000000000006  0.24845  0.28876  1.0000
  H   H114      1.0  0.34981  0.27757  0.33848999999999996  1.0000
  H   H115      1.0  0.47518  0.31451  0.3708  1.0000
  H   H116      1.0  0.29699  0.32877  0.22006  1.0000
  C   C165      1.0  0.6758699999999999  0.7380899999999999  0.90031  1.0000
  O   O77       1.0  0.65633  0.77052  0.8744899999999998  1.0000
  C   C166      1.0  0.64529  0.76369  0.8285799999999998  1.0000
  C   C167      1.0  0.57649  0.7673300000000001  0.8149999999999998  1.0000
  I   I25       1.0  0.4887  0.77272  0.8628399999999998  1.0000
  C   C168      1.0  0.56449  0.76697  0.76899  1.0000
  C   C169      1.0  0.62065  0.76225  0.7357199999999998  1.0000
  C   C170      1.0  0.60705  0.7596400000000001  0.68633  1.0000
  C   C171      1.0  0.6196  0.71801  0.66793  1.0000
  C   C172      1.0  0.57027  0.70615  0.6335899999999998  1.0000
  C   C173      1.0  0.50815  0.7244  0.62273  1.0000
  N   N37       1.0  0.48485000000000006  0.70303  0.5893999999999998  1.0000
  N   N38       1.0  0.5293700000000001  0.6731700000000002  0.5802299999999998  1.0000
  N   N39       1.0  0.5817700000000001  0.67416  0.6069999999999998  1.0000
  C   C174      1.0  0.68922  0.75836  0.74891  1.0000
  C   C175      1.0  0.7020100000000002  0.75933  0.7949699999999997  1.0000
  I   I26       1.0  0.80819  0.75527  0.81056  1.0000
  H   H117      1.0  0.6299  0.73169  0.92296  1.0000
  H   H118      1.0  0.6921600000000002  0.71231  0.8785099999999999  1.0000
  H   H119      1.0  0.51117  0.76987  0.75926  1.0000
  H   H120      1.0  0.6421199999999999  0.77848  0.6665099999999998  1.0000
  H   H121      1.0  0.55307  0.77134  0.6827099999999999  1.0000
  H   H122      1.0  0.61537  0.69751  0.6959199999999998  1.0000
  H   H123      1.0  0.67425  0.7144100000000001  0.6520499999999998  1.0000
  H   H124      1.0  0.4832  0.75136  0.6356199999999999  1.0000
  H   H125      1.0  0.7326800000000001  0.75474  0.72319  1.0000
  C   C176      1.0  0.35017  0.76654  0.38183  1.0000
  O   O78       1.0  0.39938999999999997  0.7378500000000001  0.3952499999999999  1.0000
  C   C177      1.0  0.42967000000000005  0.71344  0.3598899999999999  1.0000
  C   C178      1.0  0.49525  0.72101  0.33813  1.0000
  I   I27       1.0  0.54676  0.77091  0.35410999999999987  1.0000
  C   C179      1.0  0.5295  0.69449  0.3065499999999999  1.0000
  C   C180      1.0  0.49957  0.65981  0.297  1.0000
  C   C181      1.0  0.53989  0.62917  0.26740999999999987  1.0000
  C   C182      1.0  0.50409  0.61978  0.22418  1.0000
  C   C183      1.0  0.51069  0.65057  0.19055999999999995  1.0000
  C   C184      1.0  0.57071  0.65883  0.16444999999999999  1.0000
  N   N40       1.0  0.54978  0.68512  0.13529  1.0000
  N   N41       1.0  0.48147000000000006  0.6928  0.14370999999999995  1.0000
  N   N42       1.0  0.45597999999999994  0.672  0.17725  1.0000
  C   C185      1.0  0.43389999999999995  0.6525  0.31832  1.0000
  C   C186      1.0  0.39903000000000005  0.67901  0.34945  1.0000
  I   I28       1.0  0.3026  0.66401  0.38149  1.0000
  H   H126      1.0  0.37687000000000004  0.79357  0.3763399999999999  1.0000
  H   H127      1.0  0.32685  0.75802  0.34982999999999986  1.0000
  H   H128      1.0  0.58044  0.70042  0.29053  1.0000
  H   H129      1.0  0.54403  0.60292  0.2874699999999999  1.0000
  H   H130      1.0  0.59432  0.6373  0.2581299999999999  1.0000
  H   H131      1.0  0.44786000000000004  0.61475  0.23239999999999994  1.0000
  H   H132      1.0  0.52918  0.59305  0.208  1.0000
  H   H133      1.0  0.6235099999999999  0.64621  0.16593999999999995  1.0000
  H   H134      1.0  0.41073  0.62556  0.3118499999999999  1.0000
  C   C187      1.0  0.39144000000000007  0.2475  0.8280099999999999  1.0000
  O   O79       1.0  0.39913000000000004  0.20697  0.82103  1.0000
  C   C188      1.0  0.41416  0.19555999999999998  0.7753499999999998  1.0000
  C   C189      1.0  0.48405  0.18783  0.7577899999999997  1.0000
  I   I29       1.0  0.56883  0.19384  0.7990599999999998  1.0000
  C   C190      1.0  0.4986300000000001  0.17581  0.7122399999999998  1.0000
  C   C191      1.0  0.44389999999999996  0.17147999999999997  0.6837399999999998  1.0000
  C   C192      1.0  0.45955000000000007  0.15827  0.6346699999999997  1.0000
  C   C193      1.0  0.44788  0.19057  0.6015699999999999  1.0000
  C   C194      1.0  0.50288  0.21929000000000004  0.6039999999999998  1.0000
  C   C195      1.0  0.56306  0.22095  0.5753099999999998  1.0000
  N   N43       1.0  0.59778  0.25023  0.5917199999999999  1.0000
  N   N44       1.0  0.56151  0.26476  0.62871  1.0000
  N   N45       1.0  0.50309  0.24669  0.63697  1.0000
  C   C196      1.0  0.37417000000000006  0.17850999999999997  0.7016699999999999  1.0000
  C   C197      1.0  0.3591500000000001  0.18998  0.74733  1.0000
  I   I30       1.0  0.25278  0.19746999999999998  0.7733699999999998  1.0000
  H   H135      1.0  0.44229000000000007  0.26042  0.8187899999999998  1.0000
  H   H136      1.0  0.35082  0.25998  0.8069799999999998  1.0000
  H   H137      1.0  0.5527  0.17015000000000002  0.699  1.0000
  H   H138      1.0  0.42494999999999994  0.13481  0.6270199999999998  1.0000
  H   H139      1.0  0.51454  0.14612  0.6287199999999997  1.0000
  H   H140      1.0  0.39484  0.20499  0.60859  1.0000
  H   H141      1.0  0.45069000000000004  0.17787  0.56653  1.0000
  H   H142      1.0  0.5808100000000004  0.20227  0.5463999999999998  1.0000
  H   H143      1.0  0.33148  0.17466999999999996  0.6802099999999998  1.0000
  C   C198      1.0  0.13931  0.74508  0.5936499999999998  1.0000
  O   O80       1.0  0.10961000000000005  0.70843  0.5958099999999998  1.0000
  C   C199      1.0  0.09558  0.6944  0.63952  1.0000
  C   C200      1.0  0.026360000000000026  0.69714  0.6596599999999999  1.0000
  I   I31       1.0  0.9455099999999999  0.72791  0.62938  1.0000
  C   C201      1.0  0.008820000000000036  0.67823  0.6997599999999998  1.0000
  C   C202      1.0  0.05986999999999999  0.65632  0.72053  1.0000
  C   C203      1.0  0.04021999999999997  0.63353  0.7618  1.0000
  C   C204      1.0  0.07655000000000003  0.6460100000000001  0.8040199999999997  1.0000
  C   C205      1.0  0.04385000000000003  0.68277  0.8252599999999998  1.0000
  C   C206      1.0  0.007430000000000033  0.68716  0.8673299999999998  1.0000
  N   N46       1.0  0.98706  0.72442  0.8722599999999998  1.0000
  N   N47       1.0  0.01032000000000011  0.74201  0.8354299999999998  1.0000
  N   N48       1.0  0.045520000000000026  0.71728  0.8061099999999998  1.0000
  C   C207      1.0  0.12893000000000002  0.654  0.7009399999999998  1.0000
  C   C208      1.0  0.14714  0.67282  0.66099  1.0000
  I   I32       1.0  0.25264  0.66444  0.6348599999999998  1.0000
  H   H144      1.0  0.09922000000000003  0.7663  0.58304  1.0000
  H   H145      1.0  0.15610000000000004  0.7552  0.6270099999999997  1.0000
  H   H146      1.0  0.95498  0.68002  0.71415  1.0000
  H   H147      1.0  0.055630000000000006  0.60304  0.7535  1.0000
  H   H148      1.0  0.9824300000000001  0.63503  0.7697999999999998  1.0000
  H   H149      1.0  0.1335  0.64908  0.79557  1.0000
  H   H150      1.0  0.07170000000000003  0.623  0.8292299999999998  1.0000
  H   H151      1.0  0.9958799999999999  0.66544  0.8917799999999998  1.0000
  H   H152      1.0  0.16859000000000005  0.6366700000000001  0.71623  1.0000
