data_image0
_chemical_formula_structural       CCe2C2O12C4Ce2C2O12C4Ce2C2O12C4Ce2C2O11C15FCFC2FCFC2H18C12FCFC2FCFC2H18C12FCFC2FCFC2H18C12FCFC2FCFC2H18C12FCFC2FCFC2H18C12FCFC2FCFC2H18C12FCFC2FCFC2H18C12FCFC2FCFC2H18C12FCFC2FCFC2H18C12FCFC2FCFC2H18C12FCFC2FCFC2H18C12FCFC2FCFC2H18
_chemical_formula_sum              "C240 Ce8 O47 F48 H216"
_cell_length_a       17.3581
_cell_length_b       24.0578
_cell_length_c       35.0446
_cell_angle_alpha    114.5902
_cell_angle_beta     91.29709999999999
_cell_angle_gamma    88.1519

_space_group_name_H-M_alt    "P 1"
_space_group_IT_number       1

loop_
  _space_group_symop_operation_xyz
  'x, y, z'

loop_
  _atom_site_type_symbol
  _atom_site_label
  _atom_site_symmetry_multiplicity
  _atom_site_fract_x
  _atom_site_fract_y
  _atom_site_fract_z
  _atom_site_occupancy
  C   C1        1.0  0.5273500000000001  0.48536  0.60955  1.0000
  Ce  Ce1       1.0  0.41526  0.5243699999999999  0.4527299999999999  1.0000
  Ce  Ce2       1.0  0.62853  0.48161999999999977  0.5510399999999998  1.0000
  C   C2        1.0  0.54606  0.58445  0.52153  1.0000
  C   C3        1.0  0.74507  0.4797299999999999  0.50015  1.0000
  O   O1        1.0  0.51571  0.47619  0.40844  1.0000
  O   O2        1.0  0.44550000000000006  0.5386899999999999  0.3941399999999999  1.0000
  O   O3        1.0  0.53033  0.46772  0.50153  1.0000
  O   O4        1.0  0.4232300000000001  0.43719999999999987  0.4664099999999999  1.0000
  O   O5        1.0  0.36247  0.50436  0.50509  1.0000
  O   O6        1.0  0.30294  0.56843  0.48792  1.0000
  O   O7        1.0  0.55935  0.5331599999999999  0.6117  1.0000
  O   O8        1.0  0.5422800000000001  0.43797  0.57683  1.0000
  O   O9        1.0  0.49722000000000005  0.59766  0.4988499999999999  1.0000
  O   O10       1.0  0.54434  0.5305199999999999  0.5206499999999997  1.0000
  O   O11       1.0  0.70574  0.43287  0.49349  1.0000
  O   O12       1.0  0.72217  0.5270699999999998  0.5308799999999998  1.0000
  C   C4        1.0  0.4978000000000001  0.49725999999999987  0.38169  1.0000
  C   C5        1.0  0.4801599999999999  0.4255  0.48553  1.0000
  C   C6        1.0  0.2992  0.53111  0.5046  1.0000
  C   C7        1.0  0.46858000000000005  0.50125  0.88083  1.0000
  Ce  Ce3       1.0  0.41795  0.49023999999999995  0.04917  1.0000
  Ce  Ce4       1.0  0.56583  0.49980999999999987  0.94114  1.0000
  C   C8        1.0  0.55132  0.40945999999999994  0.98933  1.0000
  C   C9        1.0  0.70809  0.5192599999999999  0.97928  1.0000
  O   O13       1.0  0.52986  0.5215599999999999  0.08760999999999997  1.0000
  O   O14       1.0  0.45457  0.47446  0.10846999999999997  1.0000
  O   O15       1.0  0.49836  0.5910399999999998  0.9804299999999998  1.0000
  O   O16       1.0  0.4633300000000001  0.53997  0.012939999999999997  1.0000
  O   O17       1.0  0.3088600000000001  0.4649499999999999  0.008990000000000054  1.0000
  O   O18       1.0  0.32131  0.4303  0.054879999999999984  1.0000
  O   O19       1.0  0.45260999999999996  0.4750999999999998  0.9045899999999998  1.0000
  O   O20       1.0  0.53596  0.52206  0.88558  1.0000
  O   O21       1.0  0.48740000000000006  0.40439  0.00499  1.0000
  O   O22       1.0  0.57282  0.46243999999999974  0.9937999999999998  1.0000
  O   O23       1.0  0.65361  0.49735999999999986  0.9913099999999999  1.0000
  O   O24       1.0  0.68587  0.54241  0.95473  1.0000
  C   C10       1.0  0.5178600000000001  0.5010299999999999  0.11431  1.0000
  C   C11       1.0  0.44777  0.58435  0.00356  1.0000
  C   C12       1.0  0.27886  0.43513999999999975  0.02656999999999976  1.0000
  C   C13       1.0  0.019500000000000073  0.03897999999999987  0.6015599999999998  1.0000
  Ce  Ce5       1.0  0.99731  0.96997  0.46866999999999986  1.0000
  Ce  Ce6       1.0  0.07888  0.97485  0.52398  1.0000
  C   C14       1.0  0.09813000000000001  0.08537  0.49606  1.0000
  C   C15       1.0  0.23400999999999994  0.9823099999999996  0.5183999999999997  1.0000
  O   O25       1.0  0.07386000000000005  0.9302799999999999  0.41033999999999987  1.0000
  O   O26       1.0  0.9622900000000001  0.9606899999999997  0.4021099999999999  1.0000
  O   O27       1.0  0.00015999999999994155  0.8990499999999999  0.52413  1.0000
  O   O28       1.0  0.95526  0.8767299999999998  0.46079  1.0000
  O   O29       1.0  0.8966500000000001  0.008380000000000007  0.51447  1.0000
  O   O30       1.0  0.87007  0.97152  0.4501699999999999  1.0000
  O   O31       1.0  0.9949200000000001  0.04444000000000001  0.56927  1.0000
  O   O32       1.0  0.08127000000000002  0.007119999999999797  0.5958899999999998  1.0000
  O   O33       1.0  0.03356  0.06628  0.47824  1.0000
  O   O34       1.0  0.12994  0.06060999999999999  0.51877  1.0000
  O   O35       1.0  0.20165000000000002  0.93087  0.50782  1.0000
  O   O36       1.0  0.18749000000000002  0.028599999999999955  0.53181  1.0000
  C   C16       1.0  0.027629999999999995  0.9413399999999998  0.38587  1.0000
  C   C17       1.0  0.9497700000000001  0.873  0.4957499999999999  1.0000
  C   C18       1.0  0.84465  0.9915499999999999  0.4871099999999999  1.0000
  C   C19       1.0  0.10508999999999989  0.021529999999999827  0.90988  1.0000
  Ce  Ce7       1.0  0.89288  0.9696599999999999  0.03667  1.0000
  Ce  Ce8       1.0  0.11395000000000002  0.9946599999999998  0.9785799999999998  1.0000
  C   C20       1.0  0.03576  0.88979  0.98817  1.0000
  C   C21       1.0  0.2501  0.02035  0.04708  1.0000
  O   O37       1.0  0.013679999999999921  0.9754499999999999  0.06942  1.0000
  O   O38       1.0  0.9191599999999999  0.011900000000000013  0.10871999999999997  1.0000
  O   O39       1.0  0.04231999999999992  0.08406  0.017719999999999958  1.0000
  O   O40       1.0  0.93164  0.05959999999999997  0.037589999999999985  1.0000
  O   O41       1.0  0.84044  0.93029  0.96827  1.0000
  O   O42       1.0  0.76175  0.97448  0.01696  1.0000
  O   O43       1.0  0.06115999999999998  0.9840199999999999  0.9152199999999998  1.0000
  O   O44       1.0  0.15519000000000002  0.04484999999999984  0.9393799999999998  1.0000
  O   O45       1.0  0.01645000000000001  0.9380399999999998  0.02023  1.0000
  O   O46       1.0  0.08823000000000002  0.8946199999999999  0.96539  1.0000
  O   O47       1.0  0.17871  0.009449999999999991  0.039629999999999985  1.0000
  C   C22       1.0  0.99163  0.0040999999999999995  0.10689  1.0000
  C   C23       1.0  0.9747900000000002  0.09682999999999997  0.03216999999999999  1.0000
  C   C24       1.0  0.76938  0.9429399999999999  0.9775199999999997  1.0000
  C   C25       1.0  0.6099  0.6275299999999998  0.5446899999999998  1.0000
  C   C26       1.0  0.59425  0.6987299999999999  0.56813  1.0000
  C   C27       1.0  0.6443100000000002  0.7218999999999997  0.6090499999999998  1.0000
  C   C28       1.0  0.63424  0.79129  0.63424  1.0000
  C   C29       1.0  0.54906  0.8074599999999997  0.64615  1.0000
  C   C30       1.0  0.49961000000000005  0.78691  0.6058199999999998  1.0000
  C   C31       1.0  0.50863  0.71679  0.58071  1.0000
  C   C32       1.0  0.5259500000000001  0.8200399999999999  0.57896  1.0000
  C   C33       1.0  0.6123  0.8040399999999995  0.5663999999999998  1.0000
  C   C34       1.0  0.63672  0.8388199999999998  0.53946  1.0000
  C   C35       1.0  0.72262  0.8384599999999999  0.5298  1.0000
  C   C36       1.0  0.7716600000000001  0.8814299999999999  0.5590799999999998  1.0000
  F   F1        1.0  0.74441  0.9212399999999997  0.59695  1.0000
  C   C37       1.0  0.84743  0.8876799999999998  0.54872  1.0000
  F   F2        1.0  0.89001  0.93213  0.57795  1.0000
  C   C38       1.0  0.87609  0.8535699999999998  0.5077899999999997  1.0000
  C   C39       1.0  0.82637  0.8117599999999998  0.4779899999999999  1.0000
  F   F3        1.0  0.84941  0.78026  0.4377399999999999  1.0000
  C   C40       1.0  0.75113  0.8036799999999998  0.4890599999999999  1.0000
  F   F4        1.0  0.70446  0.76418  0.45913  1.0000
  C   C41       1.0  0.66067  0.8240399999999998  0.60755  1.0000
  C   C42       1.0  0.62001  0.7331299999999997  0.54123  1.0000
  H   H1        1.0  0.65648  0.6192999999999999  0.52159  1.0000
  H   H2        1.0  0.63299  0.61034  0.56767  1.0000
  H   H3        1.0  0.70627  0.71041  0.60111  1.0000
  H   H4        1.0  0.62776  0.69884  0.62926  1.0000
  H   H5        1.0  0.67002  0.8059  0.66331  1.0000
  H   H6        1.0  0.54155  0.85759  0.6649699999999997  1.0000
  H   H7        1.0  0.53047  0.78444  0.66602  1.0000
  H   H8        1.0  0.43812  0.7991699999999999  0.61451  1.0000
  H   H9        1.0  0.48873999999999995  0.6931699999999997  0.59993  1.0000
  H   H10       1.0  0.47082999999999997  0.7031099999999997  0.5524699999999998  1.0000
  H   H11       1.0  0.51757  0.8702999999999997  0.59731  1.0000
  H   H12       1.0  0.48853  0.8069  0.5505299999999997  1.0000
  H   H13       1.0  0.60317  0.8207799999999997  0.50959  1.0000
  H   H14       1.0  0.61743  0.8875599999999999  0.5556899999999998  1.0000
  H   H15       1.0  0.7227599999999998  0.81291  0.60039  1.0000
  H   H16       1.0  0.65387  0.8742099999999999  0.62629  1.0000
  H   H17       1.0  0.5838500000000003  0.71875  0.5122199999999998  1.0000
  H   H18       1.0  0.68084  0.7205699999999998  0.53128  1.0000
  C   C43       1.0  0.4814800000000001  0.3677599999999999  0.49297  1.0000
  C   C44       1.0  0.46091  0.3057399999999999  0.4547299999999999  1.0000
  C   C45       1.0  0.50926  0.25375  0.45986  1.0000
  C   C46       1.0  0.49343  0.1917199999999999  0.4232399999999999  1.0000
  C   C47       1.0  0.51472  0.19361999999999996  0.38158  1.0000
  C   C48       1.0  0.46447999999999995  0.24293  0.37556  1.0000
  C   C49       1.0  0.48029  0.30582999999999994  0.41158  1.0000
  C   C50       1.0  0.37884999999999996  0.22733999999999996  0.37522  1.0000
  C   C51       1.0  0.35609  0.22578  0.4176  1.0000
  C   C52       1.0  0.26807  0.21059999999999995  0.41532999999999987  1.0000
  C   C53       1.0  0.23646999999999999  0.1824699999999999  0.44368999999999986  1.0000
  C   C54       1.0  0.24339999999999998  0.1187299999999999  0.4311999999999999  1.0000
  F   F5        1.0  0.28634  0.08294  0.39762  1.0000
  C   C55       1.0  0.19982  0.08967999999999998  0.45013  1.0000
  F   F6        1.0  0.20582  0.027949999999999912  0.4356099999999999  1.0000
  C   C56       1.0  0.14616  0.12228999999999995  0.48129  1.0000
  C   C57       1.0  0.13857  0.18597999999999998  0.49457  1.0000
  F   F7        1.0  0.08628000000000001  0.2187899999999998  0.5242599999999997  1.0000
  C   C58       1.0  0.18399999999999997  0.2159199999999999  0.4761599999999999  1.0000
  F   F8        1.0  0.17309  0.27700999999999987  0.4881299999999999  1.0000
  C   C59       1.0  0.40817  0.17628999999999995  0.42314  1.0000
  C   C60       1.0  0.37377  0.28973  0.4539  1.0000
  H   H19       1.0  0.44141  0.3753299999999998  0.5190999999999998  1.0000
  H   H20       1.0  0.5404199999999999  0.36338999999999977  0.5045399999999998  1.0000
  H   H21       1.0  0.49483000000000005  0.2518299999999999  0.4900899999999999  1.0000
  H   H22       1.0  0.57193  0.2627599999999999  0.4608599999999999  1.0000
  H   H23       1.0  0.52904  0.15545  0.42612  1.0000
  H   H24       1.0  0.5055  0.14820999999999995  0.3551899999999999  1.0000
  H   H25       1.0  0.5768700000000001  0.20384999999999992  0.3818399999999999  1.0000
  H   H26       1.0  0.47869999999999996  0.24395999999999995  0.34510999999999986  1.0000
  H   H27       1.0  0.54175  0.31719999999999987  0.4111599999999999  1.0000
  H   H28       1.0  0.44442000000000004  0.34052999999999983  0.4056599999999999  1.0000
  H   H29       1.0  0.3688600000000001  0.1820499999999999  0.3487699999999999  1.0000
  H   H30       1.0  0.34289  0.26112999999999986  0.36870999999999987  1.0000
  H   H31       1.0  0.23372000000000004  0.2523999999999999  0.4197899999999999  1.0000
  H   H32       1.0  0.2539  0.17816999999999988  0.38263999999999987  1.0000
  H   H33       1.0  0.39428  0.17344999999999994  0.45299  1.0000
  H   H34       1.0  0.39937  0.13085999999999995  0.3969399999999999  1.0000
  H   H35       1.0  0.3383  0.32549999999999996  0.4492  1.0000
  H   H36       1.0  0.35761999999999994  0.28970999999999997  0.4844599999999999  1.0000
  C   C61       1.0  0.9934399999999999  0.8306399999999998  0.97387  1.0000
  C   C62       1.0  0.0006699999999999992  0.79746  0.00376  1.0000
  C   C63       1.0  0.9619399999999999  0.7344699999999997  0.9822499999999998  1.0000
  C   C64       1.0  0.9656500000000001  0.70081  0.01133  1.0000
  C   C65       1.0  0.9216000000000001  0.7393199999999999  0.051909999999999984  1.0000
  C   C66       1.0  0.95973  0.8014199999999999  0.07384  1.0000
  C   C67       1.0  0.9573999999999999  0.8351899999999998  0.04517  1.0000
  C   C68       1.0  0.04423  0.7919100000000001  0.08401  1.0000
  C   C69       1.0  0.09128000000000001  0.7525099999999998  0.04383999999999998  1.0000
  C   C70       1.0  0.17665000000000003  0.7478499999999999  0.0591  1.0000
  C   C71       1.0  0.23258000000000004  0.6948099999999998  0.034439999999999985  1.0000
  C   C72       1.0  0.24698  0.6485499999999998  0.0487  1.0000
  F   F9        1.0  0.19518  0.6393699999999999  0.07384  1.0000
  C   C73       1.0  0.31743000000000005  0.6151499999999999  0.04068  1.0000
  F   F10       1.0  0.33182  0.57876  0.06087999999999998  1.0000
  C   C74       1.0  0.37403  0.6230199999999999  0.015139999999999997  1.0000
  C   C75       1.0  0.35697  0.6663  0.99827  1.0000
  F   F11       1.0  0.40847  0.67613  0.97331  1.0000
  C   C76       1.0  0.28828  0.7023299999999999  0.008459999999999997  1.0000
  F   F12       1.0  0.27862000000000003  0.74769  0.9952  1.0000
  C   C77       1.0  0.051050000000000005  0.6902099999999998  0.02185  1.0000
  C   C78       1.0  0.08667  0.7858799999999998  0.013819999999999997  1.0000
  H   H37       1.0  0.016399999999999994  0.7991699999999999  0.9426699999999998  1.0000
  H   H38       1.0  0.9315100000000001  0.83955  0.96866  1.0000
  H   H39       1.0  0.9908300000000001  0.7057099999999998  0.95219  1.0000
  H   H40       1.0  0.9005500000000001  0.7409799999999996  0.9747099999999999  1.0000
  H   H41       1.0  0.93676  0.65659  0.99515  1.0000
  H   H42       1.0  0.9224400000000001  0.7154399999999999  0.0731  1.0000
  H   H43       1.0  0.86028  0.74639  0.044619999999999986  1.0000
  H   H44       1.0  0.9288900000000001  0.8298099999999998  0.10341  1.0000
  H   H45       1.0  0.89677  0.84594  0.03897999999999999  1.0000
  H   H46       1.0  0.9862799999999999  0.87852  0.06248  1.0000
  H   H47       1.0  0.046529999999999995  0.77041  0.10666999999999997  1.0000
  H   H48       1.0  0.06946000000000001  0.8375299999999998  0.09939  1.0000
  H   H49       1.0  0.20515999999999998  0.7913999999999999  0.06489999999999997  1.0000
  H   H50       1.0  0.17439000000000002  0.74899  0.09114  1.0000
  H   H51       1.0  0.08142  0.6608599999999999  0.9923999999999998  1.0000
  H   H52       1.0  0.052700000000000004  0.6656999999999998  0.0427  1.0000
  H   H53       1.0  0.11673000000000001  0.8300899999999998  0.028489999999999994  1.0000
  H   H54       1.0  0.11719000000000002  0.7576499999999998  0.9841599999999999  1.0000
  C   C79       1.0  0.9358  0.15378  0.03284  1.0000
  C   C80       1.0  0.88831  0.13457  0.99115  1.0000
  C   C81       1.0  0.81675  0.09874999999999995  0.99323  1.0000
  C   C82       1.0  0.77368  0.07476999999999999  0.95139  1.0000
  C   C83       1.0  0.8282499999999999  0.032639999999999905  0.9159799999999998  1.0000
  C   C84       1.0  0.89579  0.06910999999999992  0.9126599999999998  1.0000
  C   C85       1.0  0.94021  0.09234999999999989  0.9535999999999998  1.0000
  C   C86       1.0  0.86669  0.12274999999999986  0.9036099999999998  1.0000
  C   C87       1.0  0.81258  0.16595999999999986  0.9392099999999998  1.0000
  C   C88       1.0  0.78648  0.21773  0.92573  1.0000
  C   C89       1.0  0.71954  0.26007999999999976  0.9481999999999998  1.0000
  C   C90       1.0  0.64506  0.25102999999999975  0.9297799999999998  1.0000
  F   F13       1.0  0.62839  0.19713999999999987  0.8971999999999998  1.0000
  C   C91       1.0  0.58891  0.29875999999999986  0.9431599999999998  1.0000
  F   F14       1.0  0.51901  0.28946  0.92355  1.0000
  C   C92       1.0  0.6073  0.3566999999999997  0.9743899999999998  1.0000
  C   C93       1.0  0.68041  0.36426999999999987  0.99384  1.0000
  F   F15       1.0  0.70053  0.41921999999999987  0.02398  1.0000
  C   C94       1.0  0.73525  0.31646  0.98129  1.0000
  F   F16       1.0  0.80625  0.3269999999999999  0.9994499999999997  1.0000
  C   C95       1.0  0.7435300000000002  0.12846999999999986  0.9420499999999998  1.0000
  C   C96       1.0  0.85838  0.18957999999999994  0.98221  1.0000
  H   H55       1.0  0.97888  0.19071  0.03655999999999999  1.0000
  H   H56       1.0  0.89791  0.17196999999999996  0.06067  1.0000
  H   H57       1.0  0.77796  0.12789999999999999  0.018990000000000062  1.0000
  H   H58       1.0  0.82936  0.05776000000000008  0.99881  1.0000
  H   H59       1.0  0.72471  0.04939000000000009  0.95471  1.0000
  H   H60       1.0  0.80029  0.015499999999999767  0.8847199999999997  1.0000
  H   H61       1.0  0.84823  0.9921899999999995  0.9217599999999998  1.0000
  H   H62       1.0  0.93426  0.039429999999999764  0.8870199999999998  1.0000
  H   H63       1.0  0.95922  0.04974999999999966  0.9562499999999998  1.0000
  H   H64       1.0  0.99166  0.11696000000000001  0.95168  1.0000
  H   H65       1.0  0.83644  0.10438  0.87256  1.0000
  H   H66       1.0  0.9171499999999999  0.14763999999999988  0.9003899999999998  1.0000
  H   H67       1.0  0.8375299999999998  0.24543999999999974  0.9271499999999998  1.0000
  H   H68       1.0  0.7707099999999999  0.1963599999999999  0.8918399999999997  1.0000
  H   H69       1.0  0.70423  0.15779999999999983  0.9675599999999998  1.0000
  H   H70       1.0  0.70953  0.10976999999999985  0.9123199999999998  1.0000
  H   H71       1.0  0.90786  0.21682999999999977  0.9811799999999998  1.0000
  H   H72       1.0  0.8204500000000002  0.21975999999999984  0.008259999999999712  1.0000
  C   C97       1.0  0.22487  0.50273  0.50674  1.0000
  C   C98       1.0  0.19186999999999999  0.4616799999999998  0.4611599999999999  1.0000
  C   C99       1.0  0.17232  0.39718999999999977  0.4578799999999999  1.0000
  C   C100      1.0  0.13793999999999998  0.3573199999999999  0.4140799999999999  1.0000
  C   C101      1.0  0.19513  0.35  0.3792999999999999  1.0000
  C   C102      1.0  0.21323999999999999  0.4131699999999999  0.3813799999999999  1.0000
  C   C103      1.0  0.24867000000000003  0.45197  0.42436999999999997  1.0000
  C   C104      1.0  0.13915  0.4454899999999999  0.37534  1.0000
  C   C105      1.0  0.08012000000000001  0.45285  0.40983999999999987  1.0000
  C   C106      1.0  0.006330000000000002  0.48528999999999994  0.40229  1.0000
  C   C107      1.0  0.93855  0.4838399999999999  0.42802  1.0000
  C   C108      1.0  0.88819  0.43435999999999975  0.4122999999999999  1.0000
  F   F17       1.0  0.89897  0.38828999999999997  0.37372  1.0000
  C   C109      1.0  0.8267  0.4317099999999999  0.43634  1.0000
  F   F18       1.0  0.78079  0.38233999999999996  0.42093999999999987  1.0000
  C   C110      1.0  0.81239  0.4797899999999999  0.4755799999999999  1.0000
  C   C111      1.0  0.86303  0.5291699999999998  0.4914999999999999  1.0000
  F   F19       1.0  0.85313  0.5749599999999999  0.53035  1.0000
  C   C112      1.0  0.9253899999999999  0.5311999999999999  0.46782  1.0000
  F   F20       1.0  0.9728299999999999  0.57959  0.4838499999999999  1.0000
  C   C113      1.0  0.06335  0.38809999999999995  0.40718  1.0000
  C   C114      1.0  0.11634000000000003  0.49193  0.4535999999999999  1.0000
  H   H73       1.0  0.18319  0.5394799999999997  0.5255699999999998  1.0000
  H   H74       1.0  0.23604  0.4743599999999999  0.52464  1.0000
  H   H75       1.0  0.13046  0.4012699999999999  0.4825199999999999  1.0000
  H   H76       1.0  0.22494999999999998  0.37427999999999995  0.4634899999999999  1.0000
  H   H77       1.0  0.12483999999999999  0.3113899999999999  0.41228  1.0000
  H   H78       1.0  0.17084999999999995  0.3207699999999999  0.3478699999999999  1.0000
  H   H79       1.0  0.24890000000000004  0.32751999999999987  0.3837299999999999  1.0000
  H   H80       1.0  0.25489  0.40792999999999985  0.35632999999999987  1.0000
  H   H81       1.0  0.30274  0.4288499999999999  0.4279799999999999  1.0000
  H   H82       1.0  0.26334  0.49581999999999987  0.42344  1.0000
  H   H83       1.0  0.11456  0.41830999999999996  0.3436  1.0000
  H   H84       1.0  0.15325  0.4910899999999999  0.37666  1.0000
  H   H85       1.0  0.01903  0.5335099999999998  0.4089299999999999  1.0000
  H   H86       1.0  0.9895700000000001  0.4638199999999999  0.36857  1.0000
  H   H87       1.0  0.021630000000000007  0.3907899999999999  0.43147  1.0000
  H   H88       1.0  0.0384  0.35913999999999996  0.3759  1.0000
  H   H89       1.0  0.12868  0.53846  0.45614  1.0000
  H   H90       1.0  0.07495  0.49716999999999995  0.47871  1.0000
  C   C115      1.0  0.19761  0.4143199999999999  0.01831999999999989  1.0000
  C   C116      1.0  0.16877999999999999  0.3880299999999998  0.9713599999999998  1.0000
  C   C117      1.0  0.13449  0.32452  0.96076  1.0000
  C   C118      1.0  0.10021  0.2977399999999999  0.9161899999999997  1.0000
  C   C119      1.0  0.16404000000000002  0.2898699999999998  0.8842599999999998  1.0000
  C   C120      1.0  0.19789  0.3522  0.8935  1.0000
  C   C121      1.0  0.23220999999999997  0.3796399999999999  0.93818  1.0000
  C   C122      1.0  0.13372  0.3953399999999999  0.8897  1.0000
  C   C123      1.0  0.06879  0.4043399999999999  0.92166  1.0000
  C   C124      1.0  0.006969999999999922  0.44878  0.91637  1.0000
  C   C125      1.0  0.93584  0.4614999999999999  0.94337  1.0000
  C   C126      1.0  0.8749300000000001  0.4204399999999997  0.9302499999999998  1.0000
  F   F21       1.0  0.88149  0.36650999999999995  0.89595  1.0000
  C   C127      1.0  0.80297  0.4375799999999999  0.9486599999999997  1.0000
  F   F22       1.0  0.74399  0.3988299999999998  0.9316499999999998  1.0000
  C   C128      1.0  0.78816  0.49770999999999993  0.9781799999999999  1.0000
  C   C129      1.0  0.8491100000000003  0.5382999999999998  0.9930499999999999  1.0000
  F   F23       1.0  0.83516  0.5972599999999999  0.0203  1.0000
  C   C130      1.0  0.92345  0.5193199999999999  0.97678  1.0000
  F   F24       1.0  0.9821500000000003  0.5588199999999998  0.9910699999999998  1.0000
  C   C131      1.0  0.03595999999999999  0.34075999999999984  0.9125799999999997  1.0000
  C   C132      1.0  0.10396  0.43123999999999985  0.9665899999999997  1.0000
  H   H91       1.0  0.16141  0.45496999999999993  0.037589999999999985  1.0000
  H   H92       1.0  0.18977  0.38155  0.0327900000000001  1.0000
  H   H93       1.0  0.08875000000000002  0.32842999999999983  0.9835499999999998  1.0000
  H   H94       1.0  0.18037000000000003  0.2927099999999998  0.9632699999999997  1.0000
  H   H95       1.0  0.07471000000000001  0.2532999999999998  0.9104499999999998  1.0000
  H   H96       1.0  0.13987000000000005  0.2708  0.85187  1.0000
  H   H97       1.0  0.21017999999999998  0.2577399999999999  0.8859799999999998  1.0000
  H   H98       1.0  0.24366  0.3466  0.87046  1.0000
  H   H99       1.0  0.28053  0.34973999999999983  0.9406899999999998  1.0000
  H   H100      1.0  0.25575  0.4241699999999999  0.94249  1.0000
  H   H101      1.0  0.10929000000000001  0.37558999999999976  0.8572599999999998  1.0000
  H   H102      1.0  0.1588  0.4399999999999998  0.8949899999999997  1.0000
  H   H103      1.0  0.03490000000000001  0.4926099999999999  0.92216  1.0000
  H   H104      1.0  0.98763  0.4306599999999997  0.8829999999999998  1.0000
  H   H105      1.0  0.9905100000000001  0.34485  0.93549  1.0000
  H   H106      1.0  0.010520000000000081  0.32003  0.88044  1.0000
  H   H107      1.0  0.12790000000000004  0.47693999999999975  0.9736599999999997  1.0000
  H   H108      1.0  0.05775  0.43790999999999985  0.9897099999999998  1.0000
  C   C133      1.0  0.76149  0.99448  0.49823  1.0000
  C   C134      1.0  0.71191  0.03061999999999993  0.4791299999999999  1.0000
  C   C135      1.0  0.7026200000000002  0.9929999999999999  0.43089  1.0000
  C   C136      1.0  0.65278  0.029519999999999918  0.4122399999999999  1.0000
  C   C137      1.0  0.69111  0.09057  0.42086  1.0000
  C   C138      1.0  0.70084  0.1281899999999999  0.4685499999999999  1.0000
  C   C139      1.0  0.7508100000000001  0.09205999999999986  0.48720999999999987  1.0000
  C   C140      1.0  0.62262  0.14118999999999993  0.4901999999999999  1.0000
  C   C141      1.0  0.57957  0.08080000000000001  0.48071  1.0000
  C   C142      1.0  0.49833  0.10016999999999998  0.5006  1.0000
  C   C143      1.0  0.44653  0.05217000000000001  0.50349  1.0000
  C   C144      1.0  0.40511  0.011779999999999926  0.4681499999999999  1.0000
  F   F25       1.0  0.41660000000000014  0.009829999999999983  0.42951  1.0000
  C   C145      1.0  0.34306  0.9793499999999999  0.47293  1.0000
  F   F26       1.0  0.30346  0.9422499999999999  0.43827  1.0000
  C   C146      1.0  0.3159  0.9914899999999998  0.5131199999999998  1.0000
  C   C147      1.0  0.3576500000000001  0.03062  0.54827  1.0000
  F   F27       1.0  0.32979  0.046730000000000015  0.58745  1.0000
  C   C148      1.0  0.42394  0.0586  0.54352  1.0000
  F   F28       1.0  0.45959  0.09876  0.5786  1.0000
  C   C149      1.0  0.57319  0.041419999999999915  0.4325799999999999  1.0000
  C   C150      1.0  0.63003  0.04399999999999994  0.49969999999999987  1.0000
  H   H109      1.0  0.74011  0.9472599999999998  0.4874399999999999  1.0000
  H   H110      1.0  0.75688  0.016049999999999884  0.53312  1.0000
  H   H111      1.0  0.67567  0.9484899999999998  0.4242599999999999  1.0000
  H   H112      1.0  0.75859  0.9825899999999997  0.41446  1.0000
  H   H113      1.0  0.64674  0.002290000000000005  0.3778  1.0000
  H   H114      1.0  0.65569  0.11682999999999992  0.4069599999999999  1.0000
  H   H115      1.0  0.74865  0.08123999999999997  0.40575  1.0000
  H   H116      1.0  0.72869  0.1720999999999999  0.47460999999999987  1.0000
  H   H117      1.0  0.8087100000000002  0.08454999999999993  0.47260999999999986  1.0000
  H   H118      1.0  0.7589  0.11917999999999995  0.52151  1.0000
  H   H119      1.0  0.58895  0.17363999999999988  0.48171999999999987  1.0000
  H   H120      1.0  0.63182  0.16620999999999994  0.52467  1.0000
  H   H121      1.0  0.50577  0.1376699999999998  0.5323799999999997  1.0000
  H   H122      1.0  0.46606000000000003  0.12246999999999988  0.4829199999999999  1.0000
  H   H123      1.0  0.54983  0.9961599999999998  0.42676  1.0000
  H   H124      1.0  0.53381  0.06226999999999991  0.4167099999999999  1.0000
  H   H125      1.0  0.6353  0.07029  0.5343  1.0000
  H   H126      1.0  0.60201  0.0003599999999999441  0.4943299999999999  1.0000
  C   C151      1.0  0.70383  0.90512  0.94812  1.0000
  C   C152      1.0  0.64182  0.9202799999999998  0.91892  1.0000
  C   C153      1.0  0.5925  0.8614299999999999  0.8969099999999998  1.0000
  C   C154      1.0  0.5329900000000001  0.8678799999999997  0.8654299999999998  1.0000
  C   C155      1.0  0.5752  0.8786199999999997  0.8310899999999998  1.0000
  C   C156      1.0  0.62158  0.93715  0.85187  1.0000
  C   C157      1.0  0.68063  0.9306899999999999  0.88332  1.0000
  C   C158      1.0  0.56695  0.9920799999999999  0.87494  1.0000
  C   C159      1.0  0.52352  0.98266  0.9098899999999998  1.0000
  C   C160      1.0  0.46876999999999996  0.03984000000000004  0.93082  1.0000
  C   C161      1.0  0.41167  0.03390999999999998  0.96059  1.0000
  C   C162      1.0  0.34232  0.003229999999999888  0.9452399999999997  1.0000
  F   F29       1.0  0.32298  0.9821399999999999  0.9039  1.0000
  C   C163      1.0  0.29212  0.9936099999999998  0.9722399999999998  1.0000
  F   F30       1.0  0.23679  0.95183  0.95505  1.0000
  C   C164      1.0  0.30372  0.02318  0.01589  1.0000
  C   C165      1.0  0.37206  0.055099999999999996  0.03134  1.0000
  F   F31       1.0  0.3871200000000001  0.08112  0.07323  1.0000
  C   C166      1.0  0.42615  0.05978  0.00397  1.0000
  F   F32       1.0  0.4917500000000001  0.09074999999999998  0.019979999999999994  1.0000
  C   C167      1.0  0.47788  0.9224999999999998  0.8887  1.0000
  C   C168      1.0  0.5835400000000001  0.97497  0.94196  1.0000
  H   H127      1.0  0.67028  0.8893299999999995  0.9679999999999997  1.0000
  H   H128      1.0  0.7354600000000001  0.8634299999999998  0.9260599999999999  1.0000
  H   H129      1.0  0.56149  0.85158  0.9207899999999998  1.0000
  H   H130      1.0  0.63067  0.8210099999999999  0.8794599999999998  1.0000
  H   H131      1.0  0.4992300000000002  0.8253299999999995  0.8505699999999998  1.0000
  H   H132      1.0  0.53306  0.88344  0.80818  1.0000
  H   H133      1.0  0.61427  0.8390699999999998  0.81318  1.0000
  H   H134      1.0  0.65208  0.9447  0.82708  1.0000
  H   H135      1.0  0.72366  0.8941099999999997  0.86641  1.0000
  H   H136      1.0  0.70938  0.9733499999999998  0.89716  1.0000
  H   H137      1.0  0.52529  0.9972399999999998  0.8518399999999998  1.0000
  H   H138      1.0  0.59966  0.03508999999999996  0.88878  1.0000
  H   H139      1.0  0.50341  0.08142  0.94749  1.0000
  H   H140      1.0  0.43585999999999997  0.049209999999999816  0.9063099999999997  1.0000
  H   H141      1.0  0.44576000000000005  0.9130699999999998  0.9123399999999998  1.0000
  H   H142      1.0  0.43524  0.92645  0.86581  1.0000
  H   H143      1.0  0.61309  0.018599999999999794  0.9591499999999997  1.0000
  H   H144      1.0  0.55246  0.96578  0.9659399999999998  1.0000
  C   C169      1.0  0.57416  0.5084199999999999  0.14895  1.0000
  C   C170      1.0  0.61317  0.44763  0.14677999999999994  1.0000
  C   C171      1.0  0.69899  0.4598399999999999  0.16086999999999996  1.0000
  C   C172      1.0  0.73923  0.40176  0.16075  1.0000
  C   C173      1.0  0.7364  0.35021999999999986  0.11607  1.0000
  C   C174      1.0  0.65179  0.3366  0.10209999999999997  1.0000
  C   C175      1.0  0.61105  0.3944199999999999  0.10204  1.0000
  C   C176      1.0  0.61032  0.31681  0.13273  1.0000
  C   C177      1.0  0.61231  0.3685  0.17802999999999994  1.0000
  C   C178      1.0  0.57037  0.34652  0.20785  1.0000
  C   C179      1.0  0.55979  0.39406  0.25274  1.0000
  C   C180      1.0  0.60994  0.39465999999999996  0.2850899999999999  1.0000
  F   F33       1.0  0.67363  0.35733  0.27601  1.0000
  C   C181      1.0  0.59276  0.43143  0.3272499999999999  1.0000
  F   F34       1.0  0.6398  0.4280499999999999  0.35773  1.0000
  C   C182      1.0  0.5259199999999999  0.46923999999999977  0.33789999999999987  1.0000
  C   C183      1.0  0.47794  0.4708799999999999  0.30541  1.0000
  F   F35       1.0  0.41154  0.50513  0.31421  1.0000
  C   C184      1.0  0.49382  0.43286999999999975  0.2634999999999999  1.0000
  F   F36       1.0  0.44184  0.43143  0.2336  1.0000
  C   C185      1.0  0.69794  0.38209  0.19151999999999994  1.0000
  C   C186      1.0  0.57229  0.42677  0.17724999999999994  1.0000
  H   H145      1.0  0.5445600000000002  0.5337299999999999  0.17945  1.0000
  H   H146      1.0  0.6191  0.5394699999999999  0.14751  1.0000
  H   H147      1.0  0.70256  0.4974299999999999  0.19291999999999995  1.0000
  H   H148      1.0  0.7300000000000002  0.47466999999999987  0.13935  1.0000
  H   H149      1.0  0.80035  0.41154999999999997  0.17077  1.0000
  H   H150      1.0  0.7664  0.30831  0.11547  1.0000
  H   H151      1.0  0.76669  0.36410999999999993  0.0939  1.0000
  H   H152      1.0  0.64982  0.2992099999999999  0.06993  1.0000
  H   H153      1.0  0.63958  0.40842  0.07971  1.0000
  H   H154      1.0  0.55077  0.38293999999999995  0.09077  1.0000
  H   H155      1.0  0.63868  0.27428  0.1321  1.0000
  H   H156      1.0  0.5496700000000001  0.3058699999999999  0.12187  1.0000
  H   H157      1.0  0.51263  0.3296899999999999  0.19434999999999994  1.0000
  H   H158      1.0  0.60207  0.30576999999999993  0.20814  1.0000
  H   H159      1.0  0.70182  0.41917  0.22369  1.0000
  H   H160      1.0  0.72778  0.3407399999999999  0.19197999999999996  1.0000
  H   H161      1.0  0.5109100000000001  0.4176799999999999  0.16738  1.0000
  H   H162      1.0  0.57394  0.4645299999999999  0.20923999999999995  1.0000
  C   C187      1.0  0.40961  0.51594  0.85471  1.0000
  C   C188      1.0  0.36922  0.46123999999999993  0.8195599999999997  1.0000
  C   C189      1.0  0.28856  0.48560999999999976  0.8126799999999997  1.0000
  C   C190      1.0  0.24423  0.4355499999999999  0.7773699999999998  1.0000
  C   C191      1.0  0.23373  0.38130999999999976  0.7890999999999998  1.0000
  C   C192      1.0  0.31318  0.35555  0.7951  1.0000
  C   C193      1.0  0.35837  0.40571  0.83062  1.0000
  C   C194      1.0  0.35827  0.3338099999999999  0.75389  1.0000
  C   C195      1.0  0.37017  0.38804  0.74175  1.0000
  C   C196      1.0  0.41498  0.36328  0.70004  1.0000
  C   C197      1.0  0.43451  0.4114299999999998  0.6850299999999998  1.0000
  C   C198      1.0  0.3862  0.4222  0.65587  1.0000
  F   F37       1.0  0.31694  0.39504999999999996  0.64463  1.0000
  C   C199      1.0  0.41209  0.4565199999999999  0.63521  1.0000
  F   F38       1.0  0.3687  0.46062000000000003  0.6037  1.0000
  C   C200      1.0  0.4861  0.48042  0.64354  1.0000
  C   C201      1.0  0.53094  0.47548999999999975  0.67581  1.0000
  F   F39       1.0  0.60369  0.4969899999999999  0.68337  1.0000
  C   C202      1.0  0.50597  0.4401899999999999  0.69592  1.0000
  F   F40       1.0  0.55467  0.42948999999999987  0.72313  1.0000
  C   C203      1.0  0.28994  0.4146299999999999  0.7364299999999998  1.0000
  C   C204      1.0  0.41507999999999995  0.43852999999999986  0.77799  1.0000
  H   H163      1.0  0.4363600000000001  0.5447299999999999  0.84087  1.0000
  H   H164      1.0  0.36642  0.5462199999999998  0.8775499999999998  1.0000
  H   H165      1.0  0.29478  0.5256699999999997  0.8049199999999997  1.0000
  H   H166      1.0  0.2547  0.50136  0.84211  1.0000
  H   H167      1.0  0.18686  0.45433999999999986  0.7732799999999997  1.0000
  H   H168      1.0  0.20034000000000002  0.3452099999999999  0.76408  1.0000
  H   H169      1.0  0.20074000000000003  0.3967399999999999  0.81856  1.0000
  H   H170      1.0  0.30540999999999996  0.3160599999999999  0.80317  1.0000
  H   H171      1.0  0.32700000000000007  0.42044999999999977  0.8606799999999998  1.0000
  H   H172      1.0  0.41542000000000007  0.38592999999999994  0.8344099999999998  1.0000
  H   H173      1.0  0.32591999999999993  0.29713999999999985  0.7285299999999998  1.0000
  H   H174      1.0  0.4149500000000001  0.3135  0.75759  1.0000
  H   H175      1.0  0.46903000000000006  0.33939999999999976  0.7032799999999998  1.0000
  H   H176      1.0  0.38095  0.32732  0.67519  1.0000
  H   H177      1.0  0.29671  0.4545099999999999  0.72859  1.0000
  H   H178      1.0  0.25682  0.37978999999999996  0.71042  1.0000
  H   H179      1.0  0.47275999999999996  0.42022999999999994  0.78231  1.0000
  H   H180      1.0  0.42433  0.47782999999999987  0.76987  1.0000
  C   C205      1.0  0.045520000000000005  0.03755999999999997  0.14368999999999996  1.0000
  C   C206      1.0  0.11037  0.0028699999999999256  0.15796  1.0000
  C   C207      1.0  0.16179  0.053609999999999915  0.19036999999999996  1.0000
  C   C208      1.0  0.22825999999999996  0.02577999999999992  0.20705  1.0000
  C   C209      1.0  0.27949  0.9845299999999999  0.17000999999999994  1.0000
  C   C210      1.0  0.23051  0.9330199999999997  0.13804999999999995  1.0000
  C   C211      1.0  0.16248  0.9603399999999999  0.12128  1.0000
  C   C212      1.0  0.19970999999999992  0.89547  0.16040999999999994  1.0000
  C   C213      1.0  0.14584  0.93535  0.19726999999999995  1.0000
  C   C214      1.0  0.11448000000000001  0.8920299999999999  0.21622999999999995  1.0000
  C   C215      1.0  0.09474999999999999  0.9196299999999998  0.2624599999999999  1.0000
  C   C216      1.0  0.15020999999999998  0.91761  0.2918399999999999  1.0000
  F   F41       1.0  0.22514999999999996  0.90328  0.28069  1.0000
  C   C217      1.0  0.12830000000000003  0.9259799999999998  0.33204  1.0000
  F   F42       1.0  0.18354000000000004  0.9223299999999998  0.35902  1.0000
  C   C218      1.0  0.05029  0.9360399999999999  0.34381  1.0000
  C   C219      1.0  0.9957000000000001  0.9429299999999998  0.31563  1.0000
  F   F43       1.0  0.92048  0.9553199999999995  0.3264899999999999  1.0000
  C   C220      1.0  0.0177  0.93438  0.27517999999999987  1.0000
  F   F44       1.0  0.9629600000000001  0.9366499999999998  0.24752  1.0000
  C   C221      1.0  0.19481  0.98817  0.22908  1.0000
  C   C222      1.0  0.07833000000000001  0.9642299999999999  0.18017999999999995  1.0000
  H   H181      1.0  0.01024  0.06578999999999997  0.17149999999999996  1.0000
  H   H182      1.0  0.07427  0.07125999999999999  0.13492  1.0000
  H   H183      1.0  0.12663999999999997  0.08570999999999997  0.21708999999999995  1.0000
  H   H184      1.0  0.18673  0.08184  0.17561  1.0000
  H   H185      1.0  0.26341000000000003  0.06320999999999999  0.22996  1.0000
  H   H186      1.0  0.32892  0.9649399999999999  0.18165999999999993  1.0000
  H   H187      1.0  0.30464  0.01181999999999994  0.15467  1.0000
  H   H188      1.0  0.26721000000000006  0.9028299999999998  0.11131999999999997  1.0000
  H   H189      1.0  0.18639  0.98671  0.10523999999999997  1.0000
  H   H190      1.0  0.12881  0.92307  0.09724999999999998  1.0000
  H   H191      1.0  0.24943  0.8768  0.17255999999999994  1.0000
  H   H192      1.0  0.16995  0.8551899999999998  0.1378  1.0000
  H   H193      1.0  0.06368999999999998  0.86758  0.19763  1.0000
  H   H194      1.0  0.15721  0.85422  0.21144  1.0000
  H   H195      1.0  0.15897000000000003  0.01899000000000006  0.25596  1.0000
  H   H196      1.0  0.24335  0.9699299999999996  0.24203999999999995  1.0000
  H   H197      1.0  0.0412  0.928  0.15783  1.0000
  H   H198      1.0  0.04116999999999999  0.99394  0.20671  1.0000
  C   C223      1.0  0.9740900000000001  0.06414999999999993  0.6411799999999999  1.0000
  C   C224      1.0  0.016969999999999933  0.10893999999999991  0.68071  1.0000
  C   C225      1.0  0.95708  0.15609999999999974  0.7097499999999998  1.0000
  C   C226      1.0  0.9969  0.20101999999999992  0.74988  1.0000
  C   C227      1.0  0.058990000000000015  0.23537999999999976  0.7379999999999998  1.0000
  C   C228      1.0  0.11923000000000002  0.1890399999999999  0.7098399999999998  1.0000
  C   C229      1.0  0.07995000000000001  0.14431999999999978  0.6695699999999998  1.0000
  C   C230      1.0  0.15672  0.15292  0.73319  1.0000
  C   C231      1.0  0.09553000000000002  0.11769999999999993  0.74591  1.0000
  C   C232      1.0  0.13968  0.08025  0.76786  1.0000
  C   C233      1.0  0.10247000000000002  0.06695999999999987  0.8023299999999998  1.0000
  C   C234      1.0  0.10365000000000003  0.11229999999999987  0.8436199999999998  1.0000
  F   F45       1.0  0.11849999999999998  0.1699799999999999  0.8505299999999998  1.0000
  C   C235      1.0  0.10103000000000001  0.09795000000000001  0.87836  1.0000
  F   F46       1.0  0.10562999999999988  0.14366999999999985  0.9174799999999997  1.0000
  C   C236      1.0  0.09745000000000005  0.03704999999999999  0.87288  1.0000
  C   C237      1.0  0.08819000000000002  0.99147  0.83178  1.0000
  F   F47       1.0  0.08254999999999992  0.9320799999999995  0.8253799999999998  1.0000
  C   C238      1.0  0.09099999999999998  0.006159999999999847  0.7967599999999998  1.0000
  F   F48       1.0  0.08971000000000001  0.96028  0.75754  1.0000
  C   C239      1.0  0.034510000000000006  0.1654099999999999  0.7737399999999998  1.0000
  C   C240      1.0  0.054770000000000006  0.07346  0.70501  1.0000
  H   H199      1.0  0.9522699999999998  0.025119999999999955  0.64666  1.0000
  H   H200      1.0  0.92223  0.08740999999999978  0.6347299999999998  1.0000
  H   H201      1.0  0.91073  0.13232999999999998  0.71809  1.0000
  H   H202      1.0  0.9289700000000001  0.1821499999999999  0.6931299999999998  1.0000
  H   H203      1.0  0.9534800000000001  0.23479999999999984  0.7701499999999998  1.0000
  H   H204      1.0  0.08742  0.26888999999999974  0.7667399999999998  1.0000
  H   H205      1.0  0.03213  0.26149  0.7211  1.0000
  H   H206      1.0  0.16436999999999996  0.21375999999999998  0.70152  1.0000
  H   H207      1.0  0.0539  0.1695999999999999  0.65192  1.0000
  H   H208      1.0  0.12503000000000003  0.11243999999999986  0.6493399999999998  1.0000
  H   H209      1.0  0.18718  0.1854599999999999  0.76157  1.0000
  H   H210      1.0  0.20088  0.12009999999999987  0.7127299999999998  1.0000
  H   H211      1.0  0.16201  0.03661999999999998  0.74313  1.0000
  H   H212      1.0  0.19334  0.10452999999999997  0.78257  1.0000
  H   H213      1.0  0.9891800000000001  0.14247999999999994  0.78345  1.0000
  H   H214      1.0  0.06176  0.19952999999999999  0.8022  1.0000
  H   H215      1.0  0.09700000000000003  0.03899999999999997  0.68417  1.0000
  H   H216      1.0  0.010070000000000025  0.04826  0.71328  1.0000
