data_image0
_chemical_formula_structural       C5NiC3H4N4H4C17NiC3H4N4H4C17NiC3H4N4H4C17NiC3H4N4H4C17NiC3H4N4H4C17NiC3H4N4H4C17NiC3H4N4H4C17NiC3H4N4H4C26OC3H18C14OC3H18C14OC3H18C14OC3H18C14OC3H18C14OC3H18C14OC3H18C14OC3H18C14OC3H18C14OC3H18C14OC3H18C14OC3H18C14OC3H18C14OC3H18C14OC3H18C14OC3H18
_chemical_formula_sum              "C432 Ni8 H352 N32 O16"
_cell_length_a       45.8255
_cell_length_b       42.8204
_cell_length_c       7.483399999999999
_cell_angle_alpha    86.0418
_cell_angle_beta     92.3239
_cell_angle_gamma    88.8911

_symmetry_space_group_name_H-M    'P 1'
_symmetry_Int_Tables_number       1

loop_
  _symmetry_equiv_pos_as_xyz
  'x,y,z'

loop_
  _atom_site_type_symbol
  _atom_site_label
  _atom_site_symmetry_multiplicity
  _atom_site_fract_x
  _atom_site_fract_y
  _atom_site_fract_z
  _atom_site_occupancy
  C   C1        1.0  0.50621  0.08923999999999999  0.20862999999999998  1.0000
  C   C2        1.0  0.49405000000000004  0.06197  0.15624999999999994  1.0000
  C   C3        1.0  0.46422  0.05856  0.14034  1.0000
  C   C4        1.0  0.45226  0.03039  0.10337  1.0000
  C   C5        1.0  0.42237  0.026049999999999997  0.09482999999999997  1.0000
  Ni  Ni1       1.0  0.5090000000000001  0.99819  0.060029999999999986  1.0000
  C   C6        1.0  0.44631000000000004  0.9824899999999999  0.056969999999999986  1.0000
  C   C7        1.0  0.41867000000000004  0.9954799999999998  0.0673  1.0000
  C   C8        1.0  0.56754  0.04537  0.0864999999999998  1.0000
  H   H1        1.0  0.46725  0.8902999999999999  0.9568099999999999  1.0000
  H   H2        1.0  0.5234  0.8817099999999999  0.9589799999999998  1.0000
  H   H3        1.0  0.6119  0.955  0.9555899999999998  1.0000
  H   H4        1.0  0.61751  0.015189999999999999  0.9648099999999997  1.0000
  N   N1        1.0  0.50358  0.9555299999999999  0.009339999999999996  1.0000
  N   N2        1.0  0.55006  0.99306  0.034189999999999714  1.0000
  N   N3        1.0  0.51469  0.04051  0.11710999999999981  1.0000
  N   N4        1.0  0.4676500000000001  0.0037399999999999994  0.07778  1.0000
  H   H5        1.0  0.5502400000000001  0.10377  0.22655  1.0000
  H   H6        1.0  0.49524  0.11027  0.24623  1.0000
  H   H7        1.0  0.4050000000000001  0.04317000000000001  0.10868999999999997  1.0000
  H   H8        1.0  0.39798  0.9840399999999999  0.05316999999999999  1.0000
  C   C9        1.0  0.47830000000000006  0.93959  0.99968  1.0000
  C   C10       1.0  0.48319000000000006  0.90837  0.9712499999999998  1.0000
  C   C11       1.0  0.51238  0.90389  0.9731699999999999  1.0000
  C   C12       1.0  0.52436  0.93275  0.99771  1.0000
  C   C13       1.0  0.55404  0.93693  0.012459999999999692  1.0000
  C   C14       1.0  0.56543  0.96637  0.009239999999999913  1.0000
  C   C15       1.0  0.59461  0.97177  0.9804199999999997  1.0000
  C   C16       1.0  0.59762  0.0029800000000000026  0.9868699999999998  1.0000
  C   C17       1.0  0.5708700000000001  0.015249999999999998  0.030169999999999805  1.0000
  C   C18       1.0  0.45080000000000003  0.95143  0.028789999999999993  1.0000
  C   C19       1.0  0.54026  0.055929999999999994  0.13744999999999985  1.0000
  C   C20       1.0  0.53531  0.0854  0.19916  1.0000
  C   C21       1.0  0.65953  0.7489  0.9722899999999998  1.0000
  C   C22       1.0  0.6866200000000001  0.7406899999999997  0.9111299999999998  1.0000
  C   C23       1.0  0.69224  0.71695  0.7949999999999998  1.0000
  C   C24       1.0  0.7203  0.703  0.80977  1.0000
  C   C25       1.0  0.7270300000000002  0.6715299999999998  0.7990099999999998  1.0000
  Ni  Ni2       1.0  0.74676  0.75887  0.9304499999999998  1.0000
  C   C26       1.0  0.7667000000000003  0.6966799999999999  0.8709999999999998  1.0000
  C   C27       1.0  0.7567200000000002  0.66773  0.8310999999999998  1.0000
  C   C28       1.0  0.7071100000000001  0.80077  0.1813499999999999  1.0000
  H   H9        1.0  0.84958  0.7299599999999999  0.7741199999999998  1.0000
  H   H10       1.0  0.8504200000000001  0.79038  0.8050699999999997  1.0000
  H   H11       1.0  0.77337  0.87154  0.99398  1.0000
  H   H12       1.0  0.72305  0.86509  0.14627999999999994  1.0000
  N   N5        1.0  0.78601  0.75988  0.86829  1.0000
  N   N6        1.0  0.74829  0.80037  0.9926999999999998  1.0000
  N   N7        1.0  0.70759  0.75747  0.9900799999999997  1.0000
  N   N8        1.0  0.7445200000000001  0.71789  0.8631199999999998  1.0000
  H   H13       1.0  0.64763  0.78435  0.15391  1.0000
  H   H14       1.0  0.63842  0.73987  0.9355699999999998  1.0000
  H   H15       1.0  0.71211  0.65271  0.78289  1.0000
  H   H16       1.0  0.76942  0.64627  0.82562  1.0000
  C   C29       1.0  0.8032600000000001  0.73474  0.8439  1.0000
  C   C30       1.0  0.83097  0.74418  0.8012199999999999  1.0000
  C   C31       1.0  0.83137  0.77593  0.8138799999999998  1.0000
  C   C32       1.0  0.80399  0.78461  0.86516  1.0000
  C   C33       1.0  0.79875  0.8105899999999999  0.9616299999999998  1.0000
  C   C34       1.0  0.7698800000000001  0.82075  0.9628199999999998  1.0000
  C   C35       1.0  0.7615  0.8501399999999999  0.009789999999999965  1.0000
  C   C36       1.0  0.7352200000000002  0.8468499999999998  0.08825999999999977  1.0000
  C   C37       1.0  0.7284800000000001  0.8157399999999999  0.08381999999999978  1.0000
  C   C38       1.0  0.79574  0.7042199999999998  0.9001499999999998  1.0000
  C   C39       1.0  0.69414  0.77548  0.10492999999999975  1.0000
  C   C40       1.0  0.6644100000000001  0.7708999999999999  0.09542999999999989  1.0000
  C   C41       1.0  0.010750000000000001  0.94267  0.9235699999999998  1.0000
  C   C42       1.0  0.01907  0.9573899999999999  0.7642799999999997  1.0000
  C   C43       1.0  0.047660000000000015  0.9624199999999999  0.7209599999999998  1.0000
  C   C44       1.0  0.053910000000000007  0.9917599999999999  0.6386699999999997  1.0000
  C   C45       1.0  0.08086000000000002  0.005789999999999963  0.6496299999999998  1.0000
  Ni  Ni3       1.0  0.9947000000000001  0.00199  0.4851899999999999  1.0000
  C   C46       1.0  0.04832000000000001  0.03779  0.5050799999999999  1.0000
  C   C47       1.0  0.07720999999999999  0.03502999999999999  0.5663499999999998  1.0000
  C   C48       1.0  0.94398  0.95863  0.6753199999999999  1.0000
  H   H17       1.0  0.006600000000000001  0.11055  0.17638999999999994  1.0000
  H   H18       1.0  0.9553100000000001  0.09247999999999999  0.059259999999999986  1.0000
  H   H19       1.0  0.8999400000000002  0.9865599999999999  0.14010999999999996  1.0000
  H   H20       1.0  0.8977100000000001  0.94801  0.42463  1.0000
  N   N9        1.0  0.9919400000000002  0.037579999999999995  0.31685999999999986  1.0000
  N   N10       1.0  0.95733  0.98991  0.4112899999999999  1.0000
  N   N11       1.0  0.99566  0.96874  0.6642099999999999  1.0000
  N   N12       1.0  0.03361000000000001  0.011559999999999999  0.5512499999999998  1.0000
  H   H21       1.0  0.9677600000000001  0.93301  0.022159999999999958  1.0000
  H   H22       1.0  0.02464  0.9344799999999999  0.038059999999999976  1.0000
  H   H23       1.0  0.10096  0.99688  0.71616  1.0000
  H   H24       1.0  0.09415000000000003  0.05213  0.5488899999999998  1.0000
  C   C49       1.0  0.00978  0.06258  0.3113499999999999  1.0000
  C   C50       1.0  0.99753  0.08762  0.20454999999999995  1.0000
  C   C51       1.0  0.97088  0.07831  0.14383999999999994  1.0000
  C   C52       1.0  0.96791  0.04789  0.21421999999999994  1.0000
  C   C53       1.0  0.94277  0.030850000000000006  0.18947999999999995  1.0000
  C   C54       1.0  0.9418500000000002  4.0000000000000335e-05  0.26129  1.0000
  C   C55       1.0  0.9174900000000001  0.98189  0.23847999999999997  1.0000
  C   C56       1.0  0.91594  0.9625399999999998  0.38946999999999987  1.0000
  C   C57       1.0  0.9402000000000001  0.9686999999999999  0.4956899999999999  1.0000
  C   C58       1.0  0.03676  0.06363  0.40258999999999995  1.0000
  C   C59       1.0  0.97223  0.95796  0.7529199999999998  1.0000
  C   C60       1.0  0.98093  0.9430899999999999  0.9173699999999998  1.0000
  C   C61       1.0  0.3348  0.27243  0.32966  1.0000
  C   C62       1.0  0.30645  0.28164  0.36265  1.0000
  C   C63       1.0  0.29775  0.31123  0.4114299999999999  1.0000
  C   C64       1.0  0.26885  0.31591  0.4593899999999999  1.0000
  C   C65       1.0  0.25933  0.34113  0.5478899999999998  1.0000
  Ni  Ni4       1.0  0.24832  0.25652  0.33761  1.0000
  C   C66       1.0  0.22319000000000003  0.30904  0.5060499999999998  1.0000
  C   C67       1.0  0.23101000000000002  0.33603999999999995  0.5864099999999998  1.0000
  C   C68       1.0  0.29772  0.20091  0.38809  1.0000
  H   H25       1.0  0.14086  0.2878  0.28291  1.0000
  H   H26       1.0  0.14627  0.24461  0.0645  1.0000
  H   H27       1.0  0.22803  0.15219  0.07315999999999998  1.0000
  H   H28       1.0  0.27995  0.14577  0.22875999999999994  1.0000
  N   N13       1.0  0.20766000000000004  0.25745  0.2919799999999999  1.0000
  N   N14       1.0  0.25040000000000007  0.21619  0.25178  1.0000
  N   N15       1.0  0.289  0.25649  0.37144  1.0000
  N   N16       1.0  0.24657000000000004  0.29601  0.43245999999999996  1.0000
  H   H29       1.0  0.35335000000000005  0.22553  0.3076299999999999  1.0000
  H   H30       1.0  0.35385000000000005  0.28674  0.31349999999999995  1.0000
  H   H31       1.0  0.27117  0.36146  0.5796099999999997  1.0000
  H   H32       1.0  0.21754000000000007  0.35185999999999995  0.6554699999999998  1.0000
  C   C69       1.0  0.18790000000000007  0.27754999999999996  0.3540699999999999  1.0000
  C   C70       1.0  0.16076  0.27435  0.26979  1.0000
  C   C71       1.0  0.16393  0.25222  0.14974  1.0000
  C   C72       1.0  0.19259  0.24118  0.16962  1.0000
  C   C73       1.0  0.20314  0.21433999999999997  0.09221  1.0000
  C   C74       1.0  0.23017  0.20125999999999997  0.15387999999999993  1.0000
  C   C75       1.0  0.23954000000000006  0.17071  0.13349  1.0000
  C   C76       1.0  0.26623  0.16671999999999998  0.22169999999999995  1.0000
  C   C77       1.0  0.27199  0.19467  0.29483  1.0000
  C   C78       1.0  0.19431  0.30036  0.47388999999999987  1.0000
  C   C79       1.0  0.30697  0.23141999999999996  0.3686099999999999  1.0000
  C   C80       1.0  0.3350000000000001  0.24035999999999996  0.3343799999999999  1.0000
  C   C81       1.0  0.33782000000000006  0.74066  0.03344999999999997  1.0000
  C   C82       1.0  0.30966  0.73299  0.07254000000000005  1.0000
  C   C83       1.0  0.30288999999999994  0.70803  0.18946999999999978  1.0000
  C   C84       1.0  0.28227  0.6880499999999999  0.12494999999999988  1.0000
  C   C85       1.0  0.28149  0.6564  0.17104000000000008  1.0000
  Ni  Ni5       1.0  0.25065  0.7388999999999998  0.9223399999999998  1.0000
  C   C86       1.0  0.23987000000000003  0.67388  0.0380100000000001  1.0000
  C   C87       1.0  0.25428000000000006  0.64733  0.11735000000000005  1.0000
  C   C88       1.0  0.29376  0.78939  0.71733  1.0000
  H   H33       1.0  0.1524  0.68669  0.8673699999999998  1.0000
  H   H34       1.0  0.14071  0.74524  0.7934699999999998  1.0000
  H   H35       1.0  0.20554000000000003  0.84199  0.66732  1.0000
  H   H36       1.0  0.26122  0.8454799999999999  0.59534  1.0000
  N   N17       1.0  0.21072  0.73033  0.88893  1.0000
  N   N18       1.0  0.24431  0.77915  0.8113699999999999  1.0000
  N   N19       1.0  0.2903200000000001  0.74745  0.9515499999999998  1.0000
  N   N20       1.0  0.25795000000000007  0.6983099999999999  0.0290999999999999  1.0000
  H   H37       1.0  0.35397  0.7707899999999999  0.81466  1.0000
  H   H38       1.0  0.35779  0.73043  0.09576000000000005  1.0000
  H   H39       1.0  0.29812  0.64179  0.2438399999999998  1.0000
  H   H40       1.0  0.24532  0.62448  0.14799999999999988  1.0000
  C   C89       1.0  0.19761000000000004  0.70248  0.9172099999999997  1.0000
  C   C90       1.0  0.16834999999999997  0.70498  0.86661  1.0000
  C   C91       1.0  0.16231  0.73599  0.82826  1.0000
  C   C92       1.0  0.18853000000000006  0.7512399999999999  0.8465299999999998  1.0000
  C   C93       1.0  0.19183  0.7835899999999998  0.83473  1.0000
  C   C94       1.0  0.21883  0.79558  0.794  1.0000
  C   C95       1.0  0.22241  0.82456  0.7063399999999999  1.0000
  C   C96       1.0  0.25114  0.82568  0.66238  1.0000
  C   C97       1.0  0.26416  0.79753  0.7285999999999998  1.0000
  C   C98       1.0  0.20976000000000003  0.67772  0.02716999999999969  1.0000
  C   C99       1.0  0.30606  0.76584  0.8396599999999997  1.0000
  C   C100      1.0  0.33563999999999994  0.7608899999999998  0.8825499999999997  1.0000
  C   C101      1.0  0.007640000000000314  0.61137  0.73869  1.0000
  C   C102      1.0  0.9926000000000003  0.58373  0.7262699999999997  1.0000
  C   C103      1.0  0.96562  0.5782399999999999  0.8018099999999998  1.0000
  C   C104      1.0  0.9494000000000001  0.55322  0.7467099999999999  1.0000
  C   C105      1.0  0.9192700000000003  0.55309  0.7284299999999999  1.0000
  Ni  Ni6       1.0  0.0002799999999999992  0.5188399999999999  0.6381999999999998  1.0000
  C   C106      1.0  0.9379700000000002  0.50852  0.64772  1.0000
  C   C107      1.0  0.9121600000000002  0.52544  0.6609099999999998  1.0000
  C   C108      1.0  0.06022  0.56062  0.5696099999999997  1.0000
  H   H41       1.0  0.95613  0.41038  0.68731  1.0000
  H   H42       1.0  0.01286  0.4010399999999999  0.69941  1.0000
  H   H43       1.0  0.08327  0.46862  0.35285999999999995  1.0000
  H   H44       1.0  0.08873000000000002  0.52871  0.28459  1.0000
  N   N21       1.0  0.9928200000000001  0.47557  0.6360099999999999  1.0000
  N   N22       1.0  0.038360000000000005  0.51136  0.5704599999999997  1.0000
  N   N23       1.0  0.00874  0.56202  0.64814  1.0000
  N   N24       1.0  0.9611200000000002  0.52642  0.6907199999999998  1.0000
  H   H45       1.0  0.05219  0.62286  0.6685099999999999  1.0000
  H   H46       1.0  0.0002999999999999661  0.63279  0.7936799999999998  1.0000
  H   H47       1.0  0.90349  0.57137  0.74555  1.0000
  H   H48       1.0  0.8900300000000001  0.51904  0.63097  1.0000
  C   C109      1.0  0.9669500000000001  0.46083  0.6391899999999998  1.0000
  C   C110      1.0  0.9717100000000001  0.42858  0.6678999999999998  1.0000
  C   C111      1.0  0.001239999999999998  0.42337  0.6815299999999997  1.0000
  C   C112      1.0  0.01336  0.4522999999999999  0.6584099999999999  1.0000
  C   C113      1.0  0.042870000000000005  0.4564299999999999  0.63711  1.0000
  C   C114      1.0  0.05043  0.48352  0.5417999999999997  1.0000
  C   C115      1.0  0.07184  0.48666999999999994  0.41796  1.0000
  C   C116      1.0  0.07442  0.5181199999999999  0.3812199999999999  1.0000
  C   C117      1.0  0.055380000000000006  0.5326799999999999  0.48992999999999987  1.0000
  C   C118      1.0  0.93966  0.47624  0.62014  1.0000
  C   C119      1.0  0.03513  0.57578  0.6247399999999997  1.0000
  C   C120      1.0  0.03461  0.6062699999999999  0.67455  1.0000
  C   C121      1.0  0.83741  0.21677999999999997  0.3407399999999999  1.0000
  C   C122      1.0  0.81476  0.21893999999999997  0.21065  1.0000
  C   C123      1.0  0.8097800000000002  0.19737  0.08127  1.0000
  C   C124      1.0  0.7854900000000001  0.20211999999999997  0.9637799999999999  1.0000
  C   C125      1.0  0.7786700000000001  0.18386999999999998  0.82278  1.0000
  Ni  Ni7       1.0  0.7606800000000001  0.25525  0.13284999999999994  1.0000
  C   C126      1.0  0.73955  0.20858  0.90519  1.0000
  C   C127      1.0  0.7492500000000001  0.18717999999999999  0.7895899999999999  1.0000
  C   C128      1.0  0.8115900000000001  0.29357  0.3475999999999999  1.0000
  H   H49       1.0  0.65524  0.22859  0.0608  1.0000
  H   H50       1.0  0.65455  0.28605  0.16406999999999994  1.0000
  H   H51       1.0  0.74411  0.37000999999999995  0.21254999999999993  1.0000
  H   H52       1.0  0.79723  0.35758  0.33282999999999996  1.0000
  N   N25       1.0  0.72032  0.26073  0.07307  1.0000
  N   N26       1.0  0.7609500000000002  0.2943  0.23857999999999993  1.0000
  N   N27       1.0  0.79944  0.24629999999999996  0.21645999999999996  1.0000
  N   N28       1.0  0.7619000000000001  0.21933  0.0031899999999999993  1.0000
  H   H53       1.0  0.8527700000000001  0.25085999999999997  0.52276  1.0000
  H   H54       1.0  0.85395  0.19878999999999997  0.3715999999999999  1.0000
  H   H55       1.0  0.79287  0.16875  0.7543099999999999  1.0000
  H   H56       1.0  0.73635  0.17382999999999998  0.69899  1.0000
  C   C129      1.0  0.7024600000000001  0.23668  0.039879999999999985  1.0000
  C   C130      1.0  0.67385  0.24356999999999998  0.07367  1.0000
  C   C131      1.0  0.6735700000000001  0.27375  0.12269999999999998  1.0000
  C   C132      1.0  0.70221  0.28379  0.12082  1.0000
  C   C133      1.0  0.71123  0.31382  0.15455999999999995  1.0000
  C   C134      1.0  0.74088  0.31808  0.20320999999999995  1.0000
  C   C135      1.0  0.75337  0.34674  0.23314999999999994  1.0000
  C   C136      1.0  0.7813600000000003  0.34063999999999994  0.2946199999999999  1.0000
  C   C137      1.0  0.78544  0.30876999999999993  0.29574  1.0000
  C   C138      1.0  0.71156  0.20962  0.9659199999999999  1.0000
  C   C139      1.0  0.8138700000000002  0.26165999999999995  0.34192  1.0000
  C   C140      1.0  0.8368200000000001  0.24394  0.4231499999999999  1.0000
  C   C141      1.0  0.47895000000000004  0.42391  0.058709999999999984  1.0000
  C   C142      1.0  0.49567  0.45056999999999997  0.06412999999999998  1.0000
  C   C143      1.0  0.52529  0.451  0.02543  1.0000
  C   C144      1.0  0.53908  0.47963  0.9985299999999999  1.0000
  C   C145      1.0  0.56376  0.48377  0.8992499999999999  1.0000
  Ni  Ni8       1.0  0.4918400000000001  0.51642  0.14517999999999995  1.0000
  C   C146      1.0  0.54569  0.5295199999999999  0.96428  1.0000
  C   C147      1.0  0.56732  0.51549  0.87225  1.0000
  C   C148      1.0  0.42724  0.48096  0.16024999999999978  1.0000
  H   H57       1.0  0.55074  0.61534  0.18735999999999994  1.0000
  H   H58       1.0  0.50775  0.6222899999999999  0.39625  1.0000
  H   H59       1.0  0.40254  0.57321  0.3692799999999998  1.0000
  H   H60       1.0  0.38295  0.52146  0.2612499999999997  1.0000
  N   N29       1.0  0.50591  0.55559  0.20546999999999996  1.0000
  N   N30       1.0  0.45483  0.52655  0.23592999999999997  1.0000
  N   N31       1.0  0.47884000000000004  0.4759899999999999  0.09590999999999997  1.0000
  N   N32       1.0  0.52809  0.5076899999999999  0.04226999999999999  1.0000
  H   H61       1.0  0.4323500000000001  0.41776  0.08623999999999997  1.0000
  H   H62       1.0  0.4859200000000001  0.40028  0.03650999999999999  1.0000
  H   H63       1.0  0.5768800000000001  0.46585999999999994  0.8432699999999999  1.0000
  H   H64       1.0  0.58442  0.5266999999999998  0.7983299999999999  1.0000
  C   C149      1.0  0.52979  0.57004  0.14214999999999994  1.0000
  C   C150      1.0  0.53456  0.5979399999999999  0.21974999999999995  1.0000
  C   C151      1.0  0.51231  0.6013499999999999  0.3310799999999999  1.0000
  C   C152      1.0  0.49399  0.57636  0.31152  1.0000
  C   C153      1.0  0.46439  0.5778299999999998  0.34847  1.0000
  C   C154      1.0  0.44622  0.55347  0.30744999999999995  1.0000
  C   C155      1.0  0.41617  0.55478  0.32421999999999973  1.0000
  C   C156      1.0  0.4057100000000001  0.52789  0.2658999999999998  1.0000
  C   C157      1.0  0.42952000000000007  0.51106  0.2135399999999998  1.0000
  C   C158      1.0  0.5442400000000001  0.5613399999999998  0.9937099999999999  1.0000
  C   C159      1.0  0.45152000000000003  0.4645099999999999  0.11016999999999987  1.0000
  C   C160      1.0  0.45097  0.43292999999999987  0.08315  1.0000
  C   C161      1.0  0.59466  0.06558  0.10757999999999977  1.0000
  C   C162      1.0  0.60996  0.07631  0.9353099999999998  1.0000
  C   C163      1.0  0.5938700000000001  0.08839000000000001  0.7778199999999997  1.0000
  C   C164      1.0  0.56097  0.08779  0.75697  1.0000
  C   C165      1.0  0.60865  0.10167999999999998  0.6328899999999997  1.0000
  C   C166      1.0  0.63875  0.10599000000000003  0.6422899999999998  1.0000
  C   C167      1.0  0.6521  0.12321999999999998  0.48387999999999987  1.0000
  C   C168      1.0  0.65548  0.09501999999999998  0.79866  1.0000
  C   C169      1.0  0.68812  0.10217  0.8159899999999998  1.0000
  C   C170      1.0  0.69471  0.12491999999999998  0.9578899999999999  1.0000
  C   C171      1.0  0.69045  0.15728  0.9154899999999999  1.0000
  C   C172      1.0  0.70067  0.17893  0.03472999999999998  1.0000
  C   C173      1.0  0.7114300000000001  0.16807  0.20663  1.0000
  C   C174      1.0  0.71643  0.13625  0.24946  1.0000
  O   O1        1.0  0.73052  0.12667  0.4137099999999999  1.0000
  C   C175      1.0  0.70917  0.11479  0.12213999999999997  1.0000
  C   C176      1.0  0.64121  0.07792  0.9397199999999998  1.0000
  C   C177      1.0  0.6590900000000001  0.06119  0.09469999999999998  1.0000
  H   H65       1.0  0.5911300000000002  0.0869  0.17814999999999995  1.0000
  H   H66       1.0  0.60923  0.05172  0.20559999999999998  1.0000
  H   H67       1.0  0.55241  0.10036  0.6302199999999997  1.0000
  H   H68       1.0  0.55353  0.06329  0.7537899999999997  1.0000
  H   H69       1.0  0.5510600000000001  0.09972999999999999  0.86661  1.0000
  H   H70       1.0  0.59617  0.11017  0.5123599999999997  1.0000
  H   H71       1.0  0.6359900000000002  0.12869  0.3703999999999998  1.0000
  H   H72       1.0  0.66989  0.10881999999999999  0.4333899999999999  1.0000
  H   H73       1.0  0.66078  0.14582  0.52395  1.0000
  H   H74       1.0  0.6965499999999999  0.11268999999999998  0.6896099999999997  1.0000
  H   H75       1.0  0.7014200000000003  0.08023  0.8396  1.0000
  H   H76       1.0  0.6824500000000001  0.16564  0.7822899999999999  1.0000
  H   H77       1.0  0.7195500000000001  0.18454999999999994  0.2991899999999999  1.0000
  H   H78       1.0  0.7345599999999999  0.10327999999999998  0.4297199999999999  1.0000
  H   H79       1.0  0.7156100000000001  0.09046  0.15011  1.0000
  H   H80       1.0  0.6822300000000001  0.05771  0.06741999999999997  1.0000
  H   H81       1.0  0.65706  0.07398  0.21750999999999995  1.0000
  H   H82       1.0  0.65199  0.03691  0.12116  1.0000
  C   C178      1.0  0.7079000000000002  0.8032499999999999  0.3849399999999999  1.0000
  C   C179      1.0  0.69212  0.83236  0.44471  1.0000
  C   C180      1.0  0.7081100000000002  0.8594999999999999  0.4828599999999999  1.0000
  C   C181      1.0  0.74072  0.85853  0.5235299999999998  1.0000
  C   C182      1.0  0.69336  0.88822  0.4915699999999999  1.0000
  C   C183      1.0  0.66299  0.8905799999999998  0.4746199999999999  1.0000
  C   C184      1.0  0.64864  0.9227399999999998  0.4699999999999999  1.0000
  C   C185      1.0  0.6465400000000001  0.86305  0.4656399999999999  1.0000
  C   C186      1.0  0.61341  0.86603  0.4490299999999999  1.0000
  C   C187      1.0  0.60333  0.8757999999999999  0.2601399999999999  1.0000
  C   C188      1.0  0.58448  0.90162  0.22295999999999994  1.0000
  C   C189      1.0  0.57401  0.9095099999999999  0.04654  1.0000
  C   C190      1.0  0.58177  0.8909499999999999  0.90827  1.0000
  C   C191      1.0  0.59992  0.8645899999999997  0.9468099999999999  1.0000
  O   O2        1.0  0.6053400000000001  0.84424  0.81477  1.0000
  C   C192      1.0  0.6113  0.8578099999999999  0.12100999999999998  1.0000
  C   C193      1.0  0.6612100000000001  0.8334  0.4597499999999999  1.0000
  C   C194      1.0  0.64402  0.8034199999999998  0.4854699999999999  1.0000
  H   H83       1.0  0.70089  0.78134  0.4557599999999999  1.0000
  H   H84       1.0  0.7311500000000001  0.80286  0.43166999999999994  1.0000
  H   H85       1.0  0.7454500000000001  0.84319  0.6462599999999997  1.0000
  H   H86       1.0  0.75311  0.84951  0.414  1.0000
  H   H87       1.0  0.74923  0.88205  0.5476699999999999  1.0000
  H   H88       1.0  0.7057400000000001  0.9092  0.50959  1.0000
  H   H89       1.0  0.6649800000000001  0.94141  0.48108000000000006  1.0000
  H   H90       1.0  0.6338100000000001  0.92432  0.5828699999999999  1.0000
  H   H91       1.0  0.6361400000000001  0.92773  0.34083999999999987  1.0000
  H   H92       1.0  0.6054100000000001  0.88282  0.5428700000000001  1.0000
  H   H93       1.0  0.60239  0.84406  0.48781999999999986  1.0000
  H   H94       1.0  0.57767  0.91515  0.33146  1.0000
  H   H95       1.0  0.5730000000000001  0.8964  0.7728099999999998  1.0000
  H   H96       1.0  0.61707  0.82482  0.86052  1.0000
  H   H97       1.0  0.62593  0.8379799999999998  0.14734  1.0000
  H   H98       1.0  0.6367600000000001  0.8007799999999999  0.62491  1.0000
  H   H99       1.0  0.62472  0.80374  0.3920499999999999  1.0000
  H   H100      1.0  0.65597  0.7815199999999999  0.4649099999999999  1.0000
  C   C195      1.0  0.8265  0.16599  0.09483999999999997  1.0000
  C   C196      1.0  0.84145  0.15633  0.9283699999999998  1.0000
  C   C197      1.0  0.8628500000000001  0.17561  0.8487599999999998  1.0000
  C   C198      1.0  0.8689500000000001  0.20809999999999998  0.9071999999999998  1.0000
  C   C199      1.0  0.87961  0.16422000000000006  0.7142099999999998  1.0000
  C   C200      1.0  0.87827  0.13295  0.67134  1.0000
  C   C201      1.0  0.89788  0.12209999999999999  0.5302499999999999  1.0000
  C   C202      1.0  0.8587  0.11255  0.7594899999999998  1.0000
  C   C203      1.0  0.8622600000000001  0.07703000000000002  0.7494799999999998  1.0000
  C   C204      1.0  0.87388  0.061999999999999986  0.9282900000000001  1.0000
  C   C205      1.0  0.90421  0.057289999999999994  0.9692599999999999  1.0000
  C   C206      1.0  0.9138100000000002  0.04699  0.14523  1.0000
  C   C207      1.0  0.89337  0.04529999999999999  0.2811799999999999  1.0000
  C   C208      1.0  0.86358  0.046379999999999984  0.23762  1.0000
  O   O3        1.0  0.8439200000000002  0.03974  0.37223  1.0000
  C   C209      1.0  0.85404  0.052969999999999996  0.059439999999999986  1.0000
  C   C210      1.0  0.83762  0.12558  0.8702999999999997  1.0000
  C   C211      1.0  0.81077  0.10741  0.9235199999999999  1.0000
  H   H101      1.0  0.8441000000000001  0.16454  0.19973  1.0000
  H   H102      1.0  0.81081  0.14864999999999998  0.1457  1.0000
  H   H103      1.0  0.8873500000000002  0.21903  0.8354499999999998  1.0000
  H   H104      1.0  0.8495300000000002  0.22376  0.8772799999999997  1.0000
  H   H105      1.0  0.87503  0.20682999999999996  0.052889999999999875  1.0000
  H   H106      1.0  0.8951  0.17958000000000002  0.64837  1.0000
  H   H107      1.0  0.90996  0.14173  0.46553999999999984  1.0000
  H   H108      1.0  0.88433  0.11176999999999998  0.42389  1.0000
  H   H109      1.0  0.9141900000000001  0.10451999999999999  0.5908499999999999  1.0000
  H   H110      1.0  0.8773000000000001  0.07048  0.64563  1.0000
  H   H111      1.0  0.8413300000000002  0.06666  0.7069999999999997  1.0000
  H   H112      1.0  0.9200200000000001  0.06058999999999999  0.8657299999999998  1.0000
  H   H113      1.0  0.9006700000000001  0.03875  0.4185399999999999  1.0000
  H   H114      1.0  0.8227200000000001  0.041139999999999954  0.3277899999999999  1.0000
  H   H115      1.0  0.83108  0.05148999999999999  0.024459999999999992  1.0000
  H   H116      1.0  0.81243  0.09887  0.06705  1.0000
  H   H117      1.0  0.7908600000000002  0.12249999999999998  0.9041199999999999  1.0000
  H   H118      1.0  0.8063400000000001  0.08758  0.8398399999999999  1.0000
  C   C212      1.0  0.30466  0.18242  0.5668199999999999  1.0000
  C   C213      1.0  0.32276  0.15233  0.55455  1.0000
  C   C214      1.0  0.30876999999999993  0.12296  0.56888  1.0000
  C   C215      1.0  0.27711  0.11960999999999997  0.6149799999999997  1.0000
  C   C216      1.0  0.32488  0.09543000000000003  0.5528599999999998  1.0000
  C   C217      1.0  0.35487  0.09545  0.5305300000000001  1.0000
  C   C218      1.0  0.37036  0.06411  0.5225199999999999  1.0000
  C   C219      1.0  0.36999000000000004  0.12398  0.5297199999999999  1.0000
  C   C220      1.0  0.4033  0.12283999999999999  0.52807  1.0000
  C   C221      1.0  0.41451  0.11690999999999997  0.3463199999999999  1.0000
  C   C222      1.0  0.43106000000000005  0.0897  0.32241999999999993  1.0000
  C   C223      1.0  0.44478  0.08611  0.16072  1.0000
  C   C224      1.0  0.44239000000000006  0.11002  0.023179999999999992  1.0000
  C   C225      1.0  0.42634  0.13729  0.04616  1.0000
  O   O4        1.0  0.42645  0.16169999999999998  0.9129999999999999  1.0000
  C   C226      1.0  0.41178  0.14038  0.20579999999999996  1.0000
  C   C227      1.0  0.35398000000000013  0.15257  0.5474199999999998  1.0000
  C   C228      1.0  0.37087  0.18170999999999995  0.5837699999999998  1.0000
  H   H119      1.0  0.31483  0.19714  0.6670999999999998  1.0000
  H   H120      1.0  0.2836  0.17764  0.6296599999999998  1.0000
  H   H121      1.0  0.27375  0.12806  0.74964  1.0000
  H   H122      1.0  0.26251  0.13291999999999998  0.5156199999999999  1.0000
  H   H123      1.0  0.27014000000000005  0.09492  0.61807  1.0000
  H   H124      1.0  0.31406  0.07319  0.56468  1.0000
  H   H125      1.0  0.35500000000000004  0.04449  0.5368900000000001  1.0000
  H   H126      1.0  0.38712  0.060389999999999985  0.6335399999999999  1.0000
  H   H127      1.0  0.38049000000000005  0.062490000000000004  0.39157000000000003  1.0000
  H   H128      1.0  0.41169000000000006  0.10473  0.63131  1.0000
  H   H129      1.0  0.41368  0.14427  0.57141  1.0000
  H   H130      1.0  0.43387000000000003  0.07166999999999998  0.4308499999999999  1.0000
  H   H131      1.0  0.45393000000000006  0.10796  0.9007499999999998  1.0000
  H   H132      1.0  0.41634  0.18147  0.9478699999999999  1.0000
  H   H133      1.0  0.39937  0.16159  0.22315999999999994  1.0000
  H   H134      1.0  0.38193000000000005  0.17797999999999997  0.71735  1.0000
  H   H135      1.0  0.38698  0.18700999999999998  0.4798499999999999  1.0000
  H   H136      1.0  0.35772  0.20311999999999994  0.59197  1.0000
  C   C229      1.0  0.07135000000000001  0.93822  0.7887299999999998  1.0000
  C   C230      1.0  0.07122000000000002  0.9077999999999998  0.6895299999999998  1.0000
  C   C231      1.0  0.08014  0.9086699999999999  0.50971  1.0000
  C   C232      1.0  0.08331000000000001  0.93901  0.3982399999999999  1.0000
  C   C233      1.0  0.08517  0.8807899999999999  0.42790999999999996  1.0000
  C   C234      1.0  0.08279  0.8515999999999998  0.51968  1.0000
  C   C235      1.0  0.08559000000000003  0.8224299999999998  0.41761  1.0000
  C   C236      1.0  0.07647  0.84994  0.70293  1.0000
  C   C237      1.0  0.08600000000000002  0.82023  0.81635  1.0000
  C   C238      1.0  0.11736  0.8230899999999998  0.88145  1.0000
  C   C239      1.0  0.13983  0.80574  0.8097899999999999  1.0000
  C   C240      1.0  0.16828  0.8052499999999999  0.8874899999999998  1.0000
  C   C241      1.0  0.17436  0.8241899999999999  0.03009999999999999  1.0000
  C   C242      1.0  0.15245000000000003  0.84323  0.09407999999999998  1.0000
  O   O5        1.0  0.15798000000000004  0.8618999999999999  0.23685  1.0000
  C   C243      1.0  0.12428  0.8429599999999999  0.016949999999999993  1.0000
  C   C244      1.0  0.06712  0.8777999999999999  0.7814299999999997  1.0000
  C   C245      1.0  0.04996000000000001  0.87547  0.95053  1.0000
  H   H137      1.0  0.06991  0.9338599999999999  0.9349299999999998  1.0000
  H   H138      1.0  0.09348999999999999  0.9476699999999999  0.7766599999999998  1.0000
  H   H139      1.0  0.06164  0.95077  0.3759999999999996  1.0000
  H   H140      1.0  0.09158000000000002  0.9351999999999999  0.26406999999999997  1.0000
  H   H141      1.0  0.09902000000000002  0.95434  0.46412999999999965  1.0000
  H   H142      1.0  0.09191000000000003  0.88188  0.2916099999999999  1.0000
  H   H143      1.0  0.08379000000000002  0.82797  0.2712399999999997  1.0000
  H   H144      1.0  0.06733  0.80651  0.44796  1.0000
  H   H145      1.0  0.10668000000000001  0.8098799999999999  0.4506  1.0000
  H   H146      1.0  0.08383000000000002  0.7991399999999999  0.73939  1.0000
  H   H147      1.0  0.07242000000000001  0.81439  0.9321200000000001  1.0000
  H   H148      1.0  0.13512  0.7927099999999999  0.6943399999999997  1.0000
  H   H149      1.0  0.19606000000000007  0.8237199999999999  0.09354  1.0000
  H   H150      1.0  0.17906000000000005  0.86083  0.28379  1.0000
  H   H151      1.0  0.10772000000000002  0.85831  0.06272999999999997  1.0000
  H   H152      1.0  0.04736  0.85147  0.009649999999999999  1.0000
  H   H153      1.0  0.05996  0.8889399999999997  0.05639  1.0000
  H   H154      1.0  0.027290000000000005  0.8840399999999998  0.9170299999999999  1.0000
  C   C246      1.0  0.31163  0.8041499999999998  0.5665799999999998  1.0000
  C   C247      1.0  0.31945  0.83917  0.5636099999999999  1.0000
  C   C248      1.0  0.31243  0.8593  0.40711999999999987  1.0000
  C   C249      1.0  0.29244  0.85006  0.2543899999999999  1.0000
  C   C250      1.0  0.32445000000000007  0.8891199999999999  0.3894599999999997  1.0000
  C   C251      1.0  0.34599000000000013  0.8985299999999998  0.5101399999999997  1.0000
  C   C252      1.0  0.35815000000000013  0.9307099999999999  0.47415999999999986  1.0000
  C   C253      1.0  0.3559300000000001  0.8777099999999999  0.6556799999999998  1.0000
  C   C254      1.0  0.38826999999999995  0.8778199999999999  0.7173399999999998  1.0000
  C   C255      1.0  0.39656  0.8915199999999999  0.8936599999999998  1.0000
  C   C256      1.0  0.41146  0.92007  0.89162  1.0000
  C   C257      1.0  0.42654000000000003  0.92906  0.04628999999999994  1.0000
  C   C258      1.0  0.42537000000000014  0.91042  0.20710999999999966  1.0000
  C   C259      1.0  0.41218  0.8813799999999998  0.20931999999999992  1.0000
  O   O6        1.0  0.41636000000000006  0.8606299999999999  0.36081999999999986  1.0000
  C   C260      1.0  0.3983100000000001  0.8719200000000001  0.05277999999999982  1.0000
  C   C261      1.0  0.33951  0.85034  0.6949099999999998  1.0000
  C   C262      1.0  0.34336  0.8343799999999998  0.8791499999999998  1.0000
  H   H155      1.0  0.33229  0.7907399999999999  0.5569699999999997  1.0000
  H   H156      1.0  0.29924  0.7987799999999999  0.4430599999999999  1.0000
  H   H157      1.0  0.30058  0.8283599999999998  0.19878999999999977  1.0000
  H   H158      1.0  0.26981  0.8470099999999999  0.29903  1.0000
  H   H159      1.0  0.29142  0.8681  0.14032999999999995  1.0000
  H   H160      1.0  0.31814  0.90489  0.27401000000000003  1.0000
  H   H161      1.0  0.33992  0.9483399999999997  0.46120999999999984  1.0000
  H   H162      1.0  0.36965  0.93164  0.34628999999999993  1.0000
  H   H163      1.0  0.37317  0.93749  0.58349  1.0000
  H   H164      1.0  0.40071  0.89009  0.6107699999999998  1.0000
  H   H165      1.0  0.39715  0.8534  0.72175  1.0000
  H   H166      1.0  0.41472  0.9332699999999999  0.7657399999999998  1.0000
  H   H167      1.0  0.43783  0.9165499999999999  0.32535  1.0000
  H   H168      1.0  0.4066  0.83978  0.3496999999999997  1.0000
  H   H169      1.0  0.39178  0.8480199999999999  0.05318  1.0000
  H   H170      1.0  0.34463  0.85227  0.97891  1.0000
  H   H171      1.0  0.32408000000000003  0.82128  0.91889  1.0000
  H   H172      1.0  0.36322  0.81912  0.8888799999999998  1.0000
  C   C263      1.0  0.18592  0.20049999999999998  0.9366599999999999  1.0000
  C   C264      1.0  0.17312999999999998  0.16756  0.9637399999999998  1.0000
  C   C265      1.0  0.18075000000000008  0.14411  0.84659  1.0000
  C   C266      1.0  0.20520000000000002  0.14776999999999998  0.7167099999999997  1.0000
  C   C267      1.0  0.16369  0.11740999999999997  0.8377399999999998  1.0000
  C   C268      1.0  0.13704  0.11497999999999998  0.9220099999999998  1.0000
  C   C269      1.0  0.1184  0.08708  0.88898  1.0000
  C   C270      1.0  0.12811  0.13873  0.031870000000000065  1.0000
  C   C271      1.0  0.09543000000000001  0.14425999999999997  0.05901999999999984  1.0000
  C   C272      1.0  0.0833  0.13144  0.23415999999999967  1.0000
  C   C273      1.0  0.06941  0.10227999999999998  0.24502999999999994  1.0000
  C   C274      1.0  0.053200000000000004  0.09316  0.39458  1.0000
  C   C275      1.0  0.05041  0.11327999999999999  0.53274  1.0000
  C   C276      1.0  0.06309  0.14265  0.52128  1.0000
  O   O7        1.0  0.058119999999999956  0.16314  0.6547699999999997  1.0000
  C   C277      1.0  0.07927  0.15169  0.37189  1.0000
  C   C278      1.0  0.14841  0.16237999999999997  0.07176999999999988  1.0000
  C   C279      1.0  0.14374000000000003  0.18082999999999996  0.2328099999999997  1.0000
  H   H173      1.0  0.16754000000000002  0.21605  0.8846999999999999  1.0000
  H   H174      1.0  0.20050000000000007  0.2022  0.8224899999999998  1.0000
  H   H175      1.0  0.1976  0.16343  0.5988499999999998  1.0000
  H   H176      1.0  0.22498000000000007  0.15783  0.7777999999999998  1.0000
  H   H177      1.0  0.2121  0.12488  0.6688899999999999  1.0000
  H   H178      1.0  0.16982  0.09957999999999999  0.74969  1.0000
  H   H179      1.0  0.12997  0.06971  0.812  1.0000
  H   H180      1.0  0.09808  0.09430999999999999  0.8102999999999997  1.0000
  H   H181      1.0  0.11308  0.07488  0.018599999999999728  1.0000
  H   H182      1.0  0.08226000000000001  0.13509  0.94763  1.0000
  H   H183      1.0  0.0904  0.16984  0.040550000000000086  1.0000
  H   H184      1.0  0.06937  0.08752  0.1333899999999999  1.0000
  H   H185      1.0  0.03731000000000001  0.10664999999999998  0.6459699999999998  1.0000
  H   H186      1.0  0.06793000000000005  0.184  0.6341199999999999  1.0000
  H   H187      1.0  0.0872  0.17528000000000002  0.35867  1.0000
  H   H188      1.0  0.13713  0.16491999999999998  0.3462199999999997  1.0000
  H   H189      1.0  0.16416000000000003  0.19065  0.28519  1.0000
  H   H190      1.0  0.12691000000000002  0.19955  0.20201  1.0000
  C   C280      1.0  0.1696  0.31736  0.55997  1.0000
  C   C281      1.0  0.16507  0.35265  0.5130799999999998  1.0000
  C   C282      1.0  0.17481  0.36857  0.35325  1.0000
  C   C283      1.0  0.18472  0.35216  0.19318999999999972  1.0000
  C   C284      1.0  0.17438  0.40130999999999994  0.3376399999999999  1.0000
  C   C285      1.0  0.16504  0.4190499999999999  0.4750999999999999  1.0000
  C   C286      1.0  0.16678  0.4542399999999999  0.4493399999999999  1.0000
  C   C287      1.0  0.15383  0.40381  0.6310899999999998  1.0000
  C   C288      1.0  0.14731000000000002  0.4223299999999999  0.7930599999999999  1.0000
  C   C289      1.0  0.11563000000000001  0.4229399999999999  0.8403099999999999  1.0000
  C   C290      1.0  0.0941  0.4341999999999999  0.7125999999999998  1.0000
  C   C291      1.0  0.06500000000000002  0.43879  0.7605499999999997  1.0000
  C   C292      1.0  0.05783  0.43051  0.9389499999999998  1.0000
  C   C293      1.0  0.07902  0.41795  0.06579  1.0000
  O   O8        1.0  0.07212  0.40982  0.24261999999999995  1.0000
  C   C294      1.0  0.10783000000000001  0.41458  0.015979999999999994  1.0000
  C   C295      1.0  0.15149  0.37064  0.6415499999999997  1.0000
  C   C296      1.0  0.13300000000000003  0.35502  0.7848999999999999  1.0000
  H   H191      1.0  0.14829  0.30605  0.5418499999999998  1.0000
  H   H192      1.0  0.17533  0.31361999999999995  0.70586  1.0000
  H   H193      1.0  0.18526000000000006  0.3684  0.07154999999999977  1.0000
  H   H194      1.0  0.20730000000000004  0.34271999999999997  0.2152999999999998  1.0000
  H   H195      1.0  0.16935000000000006  0.3336  0.16064999999999974  1.0000
  H   H196      1.0  0.18218  0.41331  0.21706999999999987  1.0000
  H   H197      1.0  0.17423  0.46199999999999997  0.31428999999999996  1.0000
  H   H198      1.0  0.18267  0.46294  0.5491499999999998  1.0000
  H   H199      1.0  0.14492000000000002  0.4651799999999999  0.4636599999999999  1.0000
  H   H200      1.0  0.15391  0.44703999999999994  0.7754399999999999  1.0000
  H   H201      1.0  0.16120000000000004  0.41237  0.9085699999999999  1.0000
  H   H202      1.0  0.1006  0.4396099999999999  0.57822  1.0000
  H   H203      1.0  0.03594000000000001  0.43483  0.9826099999999999  1.0000
  H   H204      1.0  0.05101  0.41451  0.26851  1.0000
  H   H205      1.0  0.12428  0.40601  0.11616999999999997  1.0000
  H   H206      1.0  0.14106  0.36045  0.9198899999999999  1.0000
  H   H207      1.0  0.11008  0.36363999999999996  0.7625999999999998  1.0000
  H   H208      1.0  0.13184000000000004  0.32929  0.78442  1.0000
  C   C297      1.0  0.31932  0.33801  0.4180099999999999  1.0000
  C   C298      1.0  0.33705000000000007  0.34056999999999993  0.59466  1.0000
  C   C299      1.0  0.36141  0.3202  0.6302299999999997  1.0000
  C   C300      1.0  0.35771  0.28732  0.70803  1.0000
  C   C301      1.0  0.38957000000000014  0.3325  0.6250999999999999  1.0000
  C   C302      1.0  0.39327  0.36506  0.6051699999999999  1.0000
  C   C303      1.0  0.4233700000000001  0.37766  0.5759799999999998  1.0000
  C   C304      1.0  0.36872  0.38506  0.6253399999999998  1.0000
  C   C305      1.0  0.37168000000000007  0.42029  0.6205699999999997  1.0000
  C   C306      1.0  0.37377000000000005  0.4338099999999999  0.43087  1.0000
  C   C307      1.0  0.39861  0.45001  0.37952  1.0000
  C   C308      1.0  0.40041  0.4636299999999999  0.20493999999999998  1.0000
  C   C309      1.0  0.3764900000000001  0.4624  0.08243999999999997  1.0000
  C   C310      1.0  0.3512500000000001  0.44652  0.13412  1.0000
  O   O9        1.0  0.32644  0.44627  0.019829999999999993  1.0000
  C   C311      1.0  0.3503200000000001  0.43164  0.30602  1.0000
  C   C312      1.0  0.34095  0.37145  0.6436499999999999  1.0000
  C   C313      1.0  0.31665  0.38793  0.7318  1.0000
  H   H209      1.0  0.33472  0.33679999999999993  0.3077099999999999  1.0000
  H   H210      1.0  0.3072500000000001  0.3604899999999999  0.37921999999999995  1.0000
  H   H211      1.0  0.3670400000000001  0.28527  0.8478199999999999  1.0000
  H   H212      1.0  0.33426  0.2814  0.7129299999999997  1.0000
  H   H213      1.0  0.36943  0.27021  0.6304399999999998  1.0000
  H   H214      1.0  0.40851  0.31678  0.63979  1.0000
  H   H215      1.0  0.43973000000000007  0.35852999999999996  0.5646599999999999  1.0000
  H   H216      1.0  0.43064  0.39142  0.68928  1.0000
  H   H217      1.0  0.42330000000000007  0.39255  0.44871000000000005  1.0000
  H   H218      1.0  0.39067  0.42640999999999996  0.70722  1.0000
  H   H219      1.0  0.35267000000000004  0.43197  0.67592  1.0000
  H   H220      1.0  0.41669  0.45224  0.47566999999999987  1.0000
  H   H221      1.0  0.37713000000000013  0.47425999999999996  0.9500499999999997  1.0000
  H   H222      1.0  0.32865  0.45828  0.8999399999999999  1.0000
  H   H223      1.0  0.33095  0.41912999999999995  0.34394999999999987  1.0000
  H   H224      1.0  0.32578000000000007  0.39957999999999994  0.8482099999999998  1.0000
  H   H225      1.0  0.30493  0.4053799999999999  0.63633  1.0000
  H   H226      1.0  0.30135  0.37091  0.79221  1.0000
  C   C314      1.0  0.8156200000000001  0.8110199999999999  0.1436299999999997  1.0000
  C   C315      1.0  0.84772  0.8203099999999999  0.13785  1.0000
  C   C316      1.0  0.87008  0.7967299999999999  0.16213999999999995  1.0000
  C   C317      1.0  0.8642800000000002  0.76327  0.22582999999999995  1.0000
  C   C318      1.0  0.8991  0.8045699999999999  0.13970999999999995  1.0000
  C   C319      1.0  0.90758  0.83566  0.12001999999999999  1.0000
  C   C320      1.0  0.93988  0.8414799999999999  0.10952  1.0000
  C   C321      1.0  0.8862900000000001  0.8602  0.12287999999999998  1.0000
  C   C322      1.0  0.8959900000000002  0.89337  0.15758  1.0000
  C   C323      1.0  0.89243  0.9175099999999999  0.00021999999999999998  1.0000
  C   C324      1.0  0.91565  0.92233  0.8848499999999999  1.0000
  C   C325      1.0  0.91753  0.95049  0.77838  1.0000
  C   C326      1.0  0.89387  0.9721199999999999  0.7703699999999998  1.0000
  C   C327      1.0  0.86935  0.9662799999999999  0.8721599999999999  1.0000
  O   O10       1.0  0.84583  0.98765  0.8673999999999997  1.0000
  C   C328      1.0  0.8694600000000001  0.93995  0.9927999999999999  1.0000
  C   C329      1.0  0.85605  0.8524199999999998  0.12560999999999997  1.0000
  C   C330      1.0  0.8333000000000002  0.8785  0.1273  1.0000
  H   H227      1.0  0.80399  0.8246  0.24076999999999968  1.0000
  H   H228      1.0  0.81355  0.7874499999999998  0.21185999999999997  1.0000
  H   H229      1.0  0.85663  0.76259  0.3647899999999999  1.0000
  H   H230      1.0  0.84764  0.7530699999999995  0.13902  1.0000
  H   H231      1.0  0.88418  0.74803  0.2268099999999997  1.0000
  H   H232      1.0  0.91572  0.7860799999999999  0.14901999999999996  1.0000
  H   H233      1.0  0.95275  0.81941  0.09982  1.0000
  H   H234      1.0  0.94822  0.8521399999999999  0.23190000000000008  1.0000
  H   H235      1.0  0.94413  0.85664  0.9882199999999999  1.0000
  H   H236      1.0  0.91902  0.89367  0.20760999999999993  1.0000
  H   H237      1.0  0.88458  0.9014199999999999  0.2743299999999999  1.0000
  H   H238      1.0  0.93319  0.9051399999999998  0.8865799999999998  1.0000
  H   H239      1.0  0.89481  0.9939399999999999  0.6883899999999997  1.0000
  H   H240      1.0  0.84799  0.00662  0.7804199999999999  1.0000
  H   H241      1.0  0.8523300000000003  0.9384999999999999  0.08758999999999997  1.0000
  H   H242      1.0  0.8385200000000003  0.8944799999999999  0.23329999999999995  1.0000
  H   H243      1.0  0.83115  0.89123  0.9931199999999998  1.0000
  H   H244      1.0  0.8117  0.87081  0.16377999999999995  1.0000
  C   C331      1.0  0.67033  0.71275  0.6360599999999997  1.0000
  C   C332      1.0  0.6663  0.68001  0.56563  1.0000
  C   C333      1.0  0.68856  0.66524  0.47423  1.0000
  C   C334      1.0  0.71321  0.6824799999999999  0.38563  1.0000
  C   C335      1.0  0.6879300000000002  0.63282  0.4645999999999996  1.0000
  C   C336      1.0  0.66376  0.61559  0.5196699999999997  1.0000
  C   C337      1.0  0.6662700000000001  0.58041  0.5200299999999997  1.0000
  C   C338      1.0  0.63714  0.63171  0.5512799999999998  1.0000
  C   C339      1.0  0.60801  0.61458  0.5195399999999998  1.0000
  C   C340      1.0  0.5833100000000001  0.6166099999999999  0.6500399999999997  1.0000
  C   C341      1.0  0.5792800000000001  0.59197  0.78341  1.0000
  C   C342      1.0  0.55151  0.58722  0.8569699999999999  1.0000
  C   C343      1.0  0.52877  0.60907  0.80653  1.0000
  C   C344      1.0  0.53325  0.63512  0.6910499999999998  1.0000
  O   O11       1.0  0.51027  0.6569299999999999  0.6522899999999999  1.0000
  C   C345      1.0  0.5596100000000002  0.63754  0.60427  1.0000
  C   C346      1.0  0.63861  0.6649899999999999  0.56574  1.0000
  C   C347      1.0  0.6113  0.68511  0.53389  1.0000
  H   H245      1.0  0.64911  0.72214  0.6742699999999998  1.0000
  H   H246      1.0  0.6763000000000001  0.7292799999999999  0.5235399999999998  1.0000
  H   H247      1.0  0.7113  0.68024  0.23862999999999987  1.0000
  H   H248      1.0  0.71327  0.7077899999999999  0.4065199999999999  1.0000
  H   H249      1.0  0.7345100000000001  0.67184  0.43553999999999987  1.0000
  H   H250      1.0  0.7065600000000001  0.6209  0.41269  1.0000
  H   H251      1.0  0.68947  0.5723199999999999  0.5184099999999997  1.0000
  H   H252      1.0  0.65462  0.57235  0.39932999999999996  1.0000
  H   H253      1.0  0.65706  0.56938  0.6435099999999999  1.0000
  H   H254      1.0  0.61183  0.58924  0.5060899999999997  1.0000
  H   H255      1.0  0.59928  0.6228  0.3833299999999999  1.0000
  H   H256      1.0  0.59745  0.57627  0.8236099999999997  1.0000
  H   H257      1.0  0.50723  0.60606  0.8594199999999999  1.0000
  H   H258      1.0  0.51567  0.67571  0.5707499999999998  1.0000
  H   H259      1.0  0.5604  0.65456  0.4918799999999999  1.0000
  H   H260      1.0  0.59935  0.67759  0.4134599999999999  1.0000
  H   H261      1.0  0.5978099999999998  0.68393  0.6537899999999998  1.0000
  H   H262      1.0  0.6157200000000002  0.70988  0.4941699999999999  1.0000
  C   C348      1.0  0.6899000000000001  0.34178  0.1103  1.0000
  C   C349      1.0  0.6639200000000002  0.3453399999999999  0.23187999999999995  1.0000
  C   C350      1.0  0.66934  0.35364  0.4105099999999999  1.0000
  C   C351      1.0  0.69934  0.35317  0.49984999999999996  1.0000
  C   C352      1.0  0.6464700000000001  0.36396999999999996  0.5094000000000001  1.0000
  C   C353      1.0  0.6177700000000002  0.36575  0.4410799999999999  1.0000
  C   C354      1.0  0.59499  0.37754999999999994  0.5605699999999999  1.0000
  C   C355      1.0  0.6107400000000001  0.35464  0.2712599999999999  1.0000
  C   C356      1.0  0.57861  0.34891999999999995  0.21936999999999998  1.0000
  C   C357      1.0  0.5645100000000001  0.37110999999999994  0.07166999999999997  1.0000
  C   C358      1.0  0.55733  0.40259999999999996  0.10094999999999997  1.0000
  C   C359      1.0  0.5395  0.4211199999999999  0.9754099999999999  1.0000
  C   C360      1.0  0.5299600000000001  0.40835  0.81601  1.0000
  C   C361      1.0  0.53601  0.37708  0.7877699999999997  1.0000
  O   O12       1.0  0.52368  0.36451  0.6354299999999998  1.0000
  C   C362      1.0  0.5532  0.3585499999999999  0.9153599999999997  1.0000
  C   C363      1.0  0.63406  0.34497  0.16366999999999995  1.0000
  C   C364      1.0  0.62641  0.33527999999999997  0.97653  1.0000
  H   H263      1.0  0.7012900000000002  0.36421  0.10729999999999994  1.0000
  H   H264      1.0  0.68317  0.34101  0.9677899999999999  1.0000
  H   H265      1.0  0.69887  0.35878  0.64249  1.0000
  H   H266      1.0  0.7095700000000001  0.32945  0.4996099999999999  1.0000
  H   H267      1.0  0.71267  0.37131999999999993  0.43263  1.0000
  H   H268      1.0  0.65101  0.37076999999999993  0.6440400000000001  1.0000
  H   H269      1.0  0.60468  0.39155  0.66664  1.0000
  H   H270      1.0  0.58409  0.35702  0.6228699999999999  1.0000
  H   H271      1.0  0.5788  0.39327  0.48596999999999996  1.0000
  H   H272      1.0  0.56452  0.3494  0.3358  1.0000
  H   H273      1.0  0.57671  0.32415999999999995  0.18581999999999996  1.0000
  H   H274      1.0  0.56363  0.41211999999999993  0.22568999999999995  1.0000
  H   H275      1.0  0.51549  0.42191  0.72072  1.0000
  H   H276      1.0  0.52796  0.34126  0.62999  1.0000
  H   H277      1.0  0.55709  0.33406  0.8942499999999998  1.0000
  H   H278      1.0  0.60765  0.31931  0.9759199999999998  1.0000
  H   H279      1.0  0.62079  0.35645999999999994  0.8897099999999998  1.0000
  H   H280      1.0  0.6435100000000001  0.32183  0.9137699999999997  1.0000
  C   C365      1.0  0.9122300000000002  0.45841  0.5646899999999998  1.0000
  C   C366      1.0  0.90264  0.43109  0.69159  1.0000
  C   C367      1.0  0.89248  0.43722999999999995  0.86285  1.0000
  C   C368      1.0  0.8982000000000002  0.4672999999999999  0.9498499999999999  1.0000
  C   C369      1.0  0.8756  0.41527  0.95488  1.0000
  C   C370      1.0  0.8693200000000001  0.38664  0.8868199999999999  1.0000
  C   C371      1.0  0.84584  0.36809999999999987  0.9778899999999999  1.0000
  C   C372      1.0  0.8847600000000002  0.37685  0.7396599999999999  1.0000
  C   C373      1.0  0.88978  0.34173999999999993  0.72118  1.0000
  C   C374      1.0  0.87875  0.32997  0.54614  1.0000
  C   C375      1.0  0.84884  0.32449999999999996  0.51446  1.0000
  C   C376      1.0  0.8396200000000001  0.31027  0.35892  1.0000
  C   C377      1.0  0.86001  0.30385  0.22987  1.0000
  C   C378      1.0  0.88972  0.30783  0.2645  1.0000
  O   O13       1.0  0.9103800000000001  0.29768  0.1482699999999999  1.0000
  C   C379      1.0  0.8990000000000001  0.32003  0.4240099999999999  1.0000
  C   C380      1.0  0.9003000000000001  0.39982  0.6345799999999998  1.0000
  C   C381      1.0  0.91549  0.38985  0.47023999999999994  1.0000
  H   H281      1.0  0.8928300000000001  0.47398  0.5429  1.0000
  H   H282      1.0  0.91506  0.452  0.4264499999999999  1.0000
  H   H283      1.0  0.8916600000000002  0.46629  0.09135999999999997  1.0000
  H   H284      1.0  0.92188  0.47188  0.9534699999999999  1.0000
  H   H285      1.0  0.88516  0.4865999999999999  0.8784999999999997  1.0000
  H   H286      1.0  0.8666  0.42073999999999995  0.08113  1.0000
  H   H287      1.0  0.82506  0.38208999999999993  0.9657399999999999  1.0000
  H   H288      1.0  0.85194  0.36411  0.12255999999999997  1.0000
  H   H289      1.0  0.8410000000000001  0.34565999999999997  0.9195899999999999  1.0000
  H   H290      1.0  0.8806600000000002  0.32697  0.8314299999999999  1.0000
  H   H291      1.0  0.91356  0.33682  0.74086  1.0000
  H   H292      1.0  0.83339  0.3288  0.6163499999999997  1.0000
  H   H293      1.0  0.85281  0.29299  0.10922000000000008  1.0000
  H   H294      1.0  0.90175  0.28549  0.04809999999999999  1.0000
  H   H295      1.0  0.92219  0.3213  0.45306999999999986  1.0000
  H   H296      1.0  0.8991500000000001  0.38304  0.3674  1.0000
  H   H297      1.0  0.92975  0.40725999999999996  0.4056199999999999  1.0000
  H   H298      1.0  0.93081  0.37026  0.51056  1.0000
  C   C382      1.0  0.81198  0.68925  0.06760000000000009  1.0000
  C   C383      1.0  0.82433  0.65594  0.06374999999999997  1.0000
  C   C384      1.0  0.80931  0.62984  0.1422  1.0000
  C   C385      1.0  0.77803  0.63106  0.19903999999999994  1.0000
  C   C386      1.0  0.82455  0.60133  0.18354  1.0000
  C   C387      1.0  0.8550600000000003  0.5997  0.18389999999999995  1.0000
  C   C388      1.0  0.87042  0.57026  0.26363  1.0000
  C   C389      1.0  0.87041  0.6265599999999999  0.12713  1.0000
  C   C390      1.0  0.89847  0.63419  0.22885999999999998  1.0000
  C   C391      1.0  0.9271700000000003  0.62235  0.16547999999999993  1.0000
  C   C392      1.0  0.93082  0.60718  0.00575  1.0000
  C   C393      1.0  0.95857  0.59452  0.9677899999999998  1.0000
  C   C394      1.0  0.98178  0.59742  0.09436999999999984  1.0000
  C   C395      1.0  0.97884  0.61589  0.23866999999999994  1.0000
  O   O14       1.0  0.0029100000000000003  0.62336  0.3443499999999999  1.0000
  C   C396      1.0  0.9516900000000003  0.62781  0.27536  1.0000
  C   C397      1.0  0.8547300000000001  0.65199  0.036959999999999986  1.0000
  C   C398      1.0  0.8713400000000001  0.67579  0.9262599999999999  1.0000
  H   H299      1.0  0.8299100000000001  0.70451  0.10884999999999988  1.0000
  H   H300      1.0  0.7978000000000001  0.69096  0.18332  1.0000
  H   H301      1.0  0.7775800000000002  0.6257399999999999  0.3462499999999999  1.0000
  H   H302      1.0  0.76677  0.65392  0.16992999999999997  1.0000
  H   H303      1.0  0.7652200000000001  0.61319  0.13116999999999998  1.0000
  H   H304      1.0  0.8128800000000002  0.58112  0.23628999999999994  1.0000
  H   H305      1.0  0.8616100000000002  0.54963  0.19897999999999993  1.0000
  H   H306      1.0  0.8667  0.56762  0.40942000000000006  1.0000
  H   H307      1.0  0.8942400000000003  0.57047  0.24443  1.0000
  H   H308      1.0  0.8965600000000001  0.62513  0.37077  1.0000
  H   H309      1.0  0.9001400000000003  0.6599499999999999  0.23705999999999994  1.0000
  H   H310      1.0  0.91246  0.60654  0.9131999999999998  1.0000
  H   H311      1.0  0.002950000000000008  0.58667  0.07570999999999993  1.0000
  H   H312      1.0  0.021470000000000003  0.6128399999999999  0.30879  1.0000
  H   H313      1.0  0.9496800000000002  0.6413699999999999  0.39156999999999986  1.0000
  H   H314      1.0  0.8937500000000002  0.66713  0.9028299999999999  1.0000
  H   H315      1.0  0.86014  0.6796  0.7922799999999998  1.0000
  H   H316      1.0  0.87351  0.6978799999999998  0.9942999999999999  1.0000
  C   C399      1.0  0.30574000000000007  0.71197  0.39116  1.0000
  C   C400      1.0  0.31965  0.6837499999999999  0.5036799999999998  1.0000
  C   C401      1.0  0.30189  0.65963  0.5747699999999999  1.0000
  C   C402      1.0  0.26932  0.6643299999999999  0.59296  1.0000
  C   C403      1.0  0.31492  0.6310299999999999  0.6383099999999998  1.0000
  C   C404      1.0  0.34535  0.6267199999999999  0.6503299999999999  1.0000
  C   C405      1.0  0.3573600000000001  0.5943  0.70746  1.0000
  C   C406      1.0  0.36371  0.6528  0.6175199999999997  1.0000
  C   C407      1.0  0.39655000000000007  0.6494599999999999  0.6706999999999997  1.0000
  C   C408      1.0  0.41626  0.64315  0.51757  1.0000
  C   C409      1.0  0.4325300000000001  0.6147699999999999  0.51723  1.0000
  C   C410      1.0  0.45059000000000005  0.60917  0.37354  1.0000
  C   C411      1.0  0.45343  0.63281  0.23630999999999994  1.0000
  C   C412      1.0  0.43949  0.6617  0.24281999999999995  1.0000
  O   O15       1.0  0.44481  0.68532  0.11076  1.0000
  C   C413      1.0  0.42046000000000006  0.66652  0.38035  1.0000
  C   C414      1.0  0.35024  0.682  0.54855  1.0000
  C   C415      1.0  0.36656  0.71241  0.53826  1.0000
  H   H317      1.0  0.3172  0.7339000000000001  0.4148199999999999  1.0000
  H   H318      1.0  0.28365  0.7173699999999998  0.4380199999999999  1.0000
  H   H319      1.0  0.26555  0.6829  0.6859999999999998  1.0000
  H   H320      1.0  0.25787  0.67163  0.4635899999999999  1.0000
  H   H321      1.0  0.25887000000000004  0.64274  0.6480099999999996  1.0000
  H   H322      1.0  0.30116  0.6118  0.6806699999999998  1.0000
  H   H323      1.0  0.34002  0.57648  0.7057800000000001  1.0000
  H   H324      1.0  0.36711000000000005  0.59351  0.8459099999999998  1.0000
  H   H325      1.0  0.37398000000000003  0.58738  0.61346  1.0000
  H   H326      1.0  0.4001800000000001  0.63066  0.77885  1.0000
  H   H327      1.0  0.40434  0.66998  0.7392199999999998  1.0000
  H   H328      1.0  0.43026  0.5967  0.6240899999999998  1.0000
  H   H329      1.0  0.4667200000000001  0.62874  0.1231599999999997  1.0000
  H   H330      1.0  0.4354100000000001  0.70625  0.13261  1.0000
  H   H331      1.0  0.40935000000000005  0.6887499999999999  0.37881  1.0000
  H   H332      1.0  0.38874  0.71134  0.60028  1.0000
  H   H333      1.0  0.36773  0.72142  0.39673  1.0000
  H   H334      1.0  0.35465  0.72983  0.6117599999999997  1.0000
  C   C416      1.0  0.19452000000000003  0.6681499999999999  0.20059999999999964  1.0000
  C   C417      1.0  0.16252  0.65987  0.18154999999999993  1.0000
  C   C418      1.0  0.14067000000000002  0.68079  0.23514999999999994  1.0000
  C   C419      1.0  0.14765999999999999  0.71279  0.2982199999999999  1.0000
  C   C420      1.0  0.11161000000000003  0.67178  0.23143999999999995  1.0000
  C   C421      1.0  0.10379  0.64151  0.19222  1.0000
  C   C422      1.0  0.07276  0.6324399999999999  0.22011999999999995  1.0000
  C   C423      1.0  0.12521  0.61986  0.14084999999999995  1.0000
  C   C424      1.0  0.11825  0.58502  0.13579  1.0000
  C   C425      1.0  0.11687000000000002  0.57268  0.9511899999999999  1.0000
  C   C426      1.0  0.091  0.57544  0.8433599999999998  1.0000
  C   C427      1.0  0.08963000000000002  0.56499  0.6673399999999998  1.0000
  C   C428      1.0  0.11599000000000001  0.5531699999999999  0.60375  1.0000
  C   C429      1.0  0.14031000000000002  0.5460799999999999  0.71828  1.0000
  O   O16       1.0  0.16414000000000004  0.52988  0.65474  1.0000
  C   C430      1.0  0.14008  0.55453  0.8946500000000001  1.0000
  C   C431      1.0  0.15443  0.63013  0.12333999999999998  1.0000
  C   C432      1.0  0.17676000000000003  0.60919  0.044229999999999985  1.0000
  H   H335      1.0  0.20578  0.64819  0.27882000000000007  1.0000
  H   H336      1.0  0.19769  0.6876  0.2893099999999999  1.0000
  H   H337      1.0  0.15994  0.71016  0.42955  1.0000
  H   H338      1.0  0.16111  0.7260099999999999  0.20070999999999994  1.0000
  H   H339      1.0  0.12767  0.7272  0.3144799999999998  1.0000
  H   H340      1.0  0.09499  0.68793  0.2715  1.0000
  H   H341      1.0  0.05859  0.65298  0.24378999999999995  1.0000
  H   H342      1.0  0.07236000000000001  0.61589  0.3406200000000001  1.0000
  H   H343      1.0  0.06338  0.62153  0.10121999999999998  1.0000
  H   H344      1.0  0.09751000000000003  0.57943  0.19987999999999995  1.0000
  H   H345      1.0  0.13503  0.57157  0.22144999999999995  1.0000
  H   H346      1.0  0.07167  0.58355  0.9046899999999999  1.0000
  H   H347      1.0  0.11797  0.54733  0.46888999999999986  1.0000
  H   H348      1.0  0.18039000000000005  0.52474  0.74879  1.0000
  H   H349      1.0  0.15836000000000003  0.54765  0.98559  1.0000
  H   H350      1.0  0.16948000000000002  0.60527  0.9049099999999999  1.0000
  H   H351      1.0  0.19846000000000003  0.61926  0.03105000000000002  1.0000
  H   H352      1.0  0.18006  0.587  0.12828999999999996  1.0000
