data_image0
_chemical_formula_structural       EuOCO6COC2EuOCO6COC2EuOCO6COC2EuOCO6COC2EuOCO6COC2EuOCO6COC2EuOCO6COC2EuOCO6COC7FCFC2FCFC7H12C5FCFC2FCFC7H12C5FCFC2FCFC7H12C5FCFC2FCFC7H12C5FCFC2FCFC7H12C5FCFC2FCFC7H12C5FCFC2FCFC7H12C5FCFC2FCFC7H12C5FCFC2FCFC7H12C5FCFC2FCFC7H12C5FCFC2FCFC7H12C5FCFC2FCFC7H12C5FCFC2FCFC7H12C5FCFC2FCFC7H12C5FCFC2FCFC7H12C5FCFC2FCFC7H12
_chemical_formula_sum              "Eu8 O64 C288 F64 H192"
_cell_length_a       32.3864
_cell_length_b       36.1253
_cell_length_c       33.2378
_cell_angle_alpha    90.6418
_cell_angle_beta     87.6857
_cell_angle_gamma    83.9583

_symmetry_space_group_name_H-M    'P 1'
_symmetry_Int_Tables_number       1

loop_
  _symmetry_equiv_pos_as_xyz
  'x,y,z'

loop_
  _atom_site_type_symbol
  _atom_site_label
  _atom_site_symmetry_multiplicity
  _atom_site_fract_x
  _atom_site_fract_y
  _atom_site_fract_z
  _atom_site_occupancy
  Eu  Eu1       1.0  0.13573999999999997  0.62983  0.09513999999999997  1.0000
  O   O1        1.0  0.08942000000000001  0.69659  0.14353  1.0000
  C   C1        1.0  0.07808  0.5818  0.051689999999999986  1.0000
  O   O2        1.0  0.1654  0.68025  0.03459  1.0000
  O   O3        1.0  0.18267999999999998  0.67238  0.09888999999999998  1.0000
  O   O4        1.0  0.17248  0.55726  0.05448  1.0000
  O   O5        1.0  0.08960999999999998  0.60229  0.02562  1.0000
  O   O6        1.0  0.08899  0.5872399999999999  0.09114  1.0000
  O   O7        1.0  0.11481000000000001  0.63873  0.16106  1.0000
  C   C2        1.0  0.08787999999999999  0.67106  0.16701  1.0000
  O   O8        1.0  0.18373  0.58328  0.11429  1.0000
  C   C3        1.0  0.18253  0.55246  0.08911  1.0000
  C   C4        1.0  0.18784  0.68813  0.061239999999999996  1.0000
  Eu  Eu2       1.0  0.37235  0.87777  0.87702  1.0000
  O   O9        1.0  0.43604999999999994  0.83949  0.8124799999999998  1.0000
  C   C5        1.0  0.45635  0.89821  0.8977599999999998  1.0000
  O   O10       1.0  0.35722  0.90007  0.7939899999999999  1.0000
  O   O11       1.0  0.31184000000000006  0.89072  0.84495  1.0000
  O   O12       1.0  0.37933000000000006  0.8803  0.9706099999999999  1.0000
  O   O13       1.0  0.46013999999999994  0.90768  0.86285  1.0000
  O   O14       1.0  0.43473999999999996  0.86779  0.90646  1.0000
  O   O15       1.0  0.38017999999999996  0.82087  0.84618  1.0000
  C   C6        1.0  0.40830000000000005  0.8191899999999999  0.8133899999999997  1.0000
  O   O16       1.0  0.33935  0.85058  0.92952  1.0000
  C   C7        1.0  0.35969999999999996  0.85376  0.9652699999999999  1.0000
  C   C8        1.0  0.32143  0.90487  0.8073099999999998  1.0000
  Eu  Eu3       1.0  0.13268000000000002  0.1407  0.6025899999999997  1.0000
  O   O17       1.0  0.06303000000000002  0.20205  0.5862399999999999  1.0000
  C   C9        1.0  0.09988  0.07829999999999998  0.55484  1.0000
  O   O18       1.0  0.18540000000000004  0.18803  0.5439199999999997  1.0000
  O   O19       1.0  0.16803  0.19142  0.61052  1.0000
  O   O20       1.0  0.17581  0.062  0.6290999999999998  1.0000
  O   O21       1.0  0.13012999999999994  0.08545  0.53455  1.0000
  O   O22       1.0  0.09464  0.09191  0.59419  1.0000
  O   O23       1.0  0.07984999999999999  0.17026  0.64213  1.0000
  C   C10       1.0  0.05928  0.2002  0.62276  1.0000
  O   O24       1.0  0.157  0.11703999999999999  0.66143  1.0000
  C   C11       1.0  0.16725  0.07863  0.66093  1.0000
  C   C12       1.0  0.17724  0.2076  0.5738599999999998  1.0000
  Eu  Eu4       1.0  0.8894099999999999  0.9008599999999999  0.38942  1.0000
  O   O25       1.0  0.9440600000000001  0.87925  0.31167  1.0000
  C   C13       1.0  0.94567  0.9029900000000001  0.46463  1.0000
  O   O26       1.0  0.81075  0.9457399999999999  0.36475  1.0000
  O   O27       1.0  0.86405  0.91543  0.3278699999999999  1.0000
  O   O28       1.0  0.81332  0.9109300000000001  0.45114  1.0000
  O   O29       1.0  0.9738399999999999  0.88506  0.48137  1.0000
  O   O30       1.0  0.9134500000000001  0.88415  0.4510099999999999  1.0000
  O   O31       1.0  0.92372  0.84648  0.36503  1.0000
  C   C14       1.0  0.94392  0.84908  0.3276499999999999  1.0000
  O   O32       1.0  0.83447  0.86814  0.4029  1.0000
  C   C15       1.0  0.81647  0.87834  0.4405199999999999  1.0000
  C   C16       1.0  0.82667  0.93822  0.33143  1.0000
  Eu  Eu5       1.0  0.87648  0.37492  0.88291  1.0000
  O   O33       1.0  0.9495  0.39341  0.83191  1.0000
  C   C17       1.0  0.9409  0.40813  0.9322  1.0000
  O   O34       1.0  0.85524  0.41908999999999996  0.80358  1.0000
  O   O35       1.0  0.82126  0.38038  0.84257  1.0000
  O   O36       1.0  0.87879  0.32893  0.9703899999999999  1.0000
  O   O37       1.0  0.94526  0.42824  0.90355  1.0000
  O   O38       1.0  0.9296900000000001  0.37239  0.92592  1.0000
  O   O39       1.0  0.9157  0.34224  0.83275  1.0000
  C   C18       1.0  0.9397200000000001  0.36682  0.81318  1.0000
  O   O40       1.0  0.8521999999999997  0.32269  0.90917  1.0000
  C   C19       1.0  0.84843  0.3251  0.95097  1.0000
  C   C20       1.0  0.8221500000000002  0.41098  0.8177  1.0000
  Eu  Eu6       1.0  0.60873  0.12125  0.1001  1.0000
  O   O41       1.0  0.5857  0.19366  0.15438999999999994  1.0000
  C   C21       1.0  0.55901  0.05894  0.07161999999999999  1.0000
  O   O42       1.0  0.66859  0.13915  0.03326999999999999  1.0000
  O   O43       1.0  0.64952  0.16839  0.09229999999999997  1.0000
  O   O44       1.0  0.64811  0.06484  0.16583  1.0000
  O   O45       1.0  0.58021  0.06505  0.04177999999999999  1.0000
  O   O46       1.0  0.56742  0.07451  0.10840999999999998  1.0000
  O   O47       1.0  0.60148  0.13289  0.16767999999999994  1.0000
  C   C22       1.0  0.57875  0.16729  0.17523  1.0000
  O   O48       1.0  0.66776  0.08091  0.10286  1.0000
  C   C23       1.0  0.67536  0.06344  0.13935  1.0000
  C   C24       1.0  0.67139  0.16584  0.05532999999999998  1.0000
  Eu  Eu7       1.0  0.64588  0.63405  0.5923199999999997  1.0000
  O   O49       1.0  0.57939  0.7003  0.58872  1.0000
  C   C25       1.0  0.59057  0.59017  0.54165  1.0000
  O   O50       1.0  0.68053  0.69578  0.54349  1.0000
  O   O51       1.0  0.68103  0.68254  0.60956  1.0000
  O   O52       1.0  0.70445  0.56153  0.60012  1.0000
  O   O53       1.0  0.58889  0.62086  0.5266  1.0000
  O   O54       1.0  0.6118900000000002  0.58415  0.57679  1.0000
  O   O55       1.0  0.59206  0.65601  0.6351299999999998  1.0000
  C   C26       1.0  0.57001  0.68824  0.62155  1.0000
  O   O56       1.0  0.6739  0.60361  0.6457  1.0000
  C   C27       1.0  0.6986199999999999  0.57084  0.63541  1.0000
  C   C28       1.0  0.69642  0.69946  0.57571  1.0000
  Eu  Eu8       1.0  0.36164  0.40793  0.36722  1.0000
  O   O57       1.0  0.41422  0.38048  0.29117  1.0000
  C   C29       1.0  0.42024  0.44052  0.42483999999999994  1.0000
  O   O58       1.0  0.30095999999999995  0.4662200000000001  0.3319199999999999  1.0000
  O   O59       1.0  0.32349  0.40787  0.31103  1.0000
  O   O60       1.0  0.31921  0.41377  0.4513  1.0000
  O   O61       1.0  0.39947  0.46989999999999993  0.4188599999999999  1.0000
  O   O62       1.0  0.40247000000000005  0.4073  0.4214499999999999  1.0000
  O   O63       1.0  0.39728  0.35235  0.3488099999999999  1.0000
  C   C30       1.0  0.4170599999999999  0.35221  0.31096  1.0000
  O   O64       1.0  0.31521  0.37386  0.39961999999999986  1.0000
  C   C31       1.0  0.30582  0.38557  0.4392099999999999  1.0000
  C   C32       1.0  0.30175  0.44259  0.30536999999999986  1.0000
  C   C33       1.0  0.94453  0.42287  0.97322  1.0000
  C   C34       1.0  0.97232  0.44911000000000006  0.98045  1.0000
  C   C35       1.0  0.9727799999999999  0.46628  0.01835  1.0000
  C   C36       1.0  0.0014899999999999928  0.49482  0.025509999999999994  1.0000
  C   C37       1.0  0.0034900000000000087  0.52491  0.9992199999999999  1.0000
  F   F1        1.0  0.9795199999999998  0.52808  0.96659  1.0000
  C   C38       1.0  0.02912  0.55275  0.007089999999999998  1.0000
  F   F2        1.0  0.029560000000000017  0.58173  0.9814499999999999  1.0000
  C   C39       1.0  0.05279  0.55135  0.04177  1.0000
  C   C40       1.0  0.05159000000000002  0.5206699999999999  0.06743  1.0000
  F   F3        1.0  0.07534  0.51736  0.1002  1.0000
  C   C41       1.0  0.026249999999999996  0.49271000000000004  0.05934  1.0000
  F   F4        1.0  0.026380000000000074  0.4632  0.0843  1.0000
  C   C42       1.0  0.94468  0.45733  0.04914  1.0000
  C   C43       1.0  0.91569  0.43146  0.04243  1.0000
  C   C44       1.0  0.88198  0.42332  0.07431  1.0000
  C   C45       1.0  0.88297  0.44664999999999994  0.11354  1.0000
  C   C46       1.0  0.83859  0.43239  0.056969999999999986  1.0000
  C   C47       1.0  0.88805  0.38181  0.08538  1.0000
  C   C48       1.0  0.9169600000000001  0.41383  0.004229999999999734  1.0000
  H   H1        1.0  0.9935699999999998  0.45627  0.9564699999999998  1.0000
  H   H2        1.0  0.94519  0.47165  0.07777999999999997  1.0000
  H   H3        1.0  0.91298  0.44025  0.12835999999999995  1.0000
  H   H4        1.0  0.85782  0.44043  0.13539  1.0000
  H   H5        1.0  0.87817  0.47690999999999995  0.1072  1.0000
  H   H6        1.0  0.83371  0.41321  0.031719999999999964  1.0000
  H   H7        1.0  0.81358  0.42958  0.08029  1.0000
  H   H8        1.0  0.8349  0.46138999999999997  0.04576  1.0000
  H   H9        1.0  0.9193199999999998  0.37469  0.09751  1.0000
  H   H10       1.0  0.88513  0.36354  0.0588  1.0000
  H   H11       1.0  0.86429  0.37538  0.1086  1.0000
  H   H12       1.0  0.8949  0.39434  0.9977599999999999  1.0000
  C   C49       1.0  0.52408  0.03587  0.06883999999999997  1.0000
  C   C50       1.0  0.52038  0.013559999999999997  0.03465999999999999  1.0000
  C   C51       1.0  0.48738000000000004  0.99166  0.03240999999999999  1.0000
  C   C52       1.0  0.48412999999999995  0.96722  0.9969699999999999  1.0000
  C   C53       1.0  0.48400999999999994  0.92864  0.00169  1.0000
  F   F5        1.0  0.49010999999999993  0.9131400000000001  0.03828  1.0000
  C   C54       1.0  0.4771899999999998  0.90581  0.96887  1.0000
  F   F6        1.0  0.47733  0.86864  0.97442  1.0000
  C   C55       1.0  0.47011000000000003  0.9212599999999999  0.9307899999999998  1.0000
  C   C56       1.0  0.47233  0.95974  0.92573  1.0000
  F   F7        1.0  0.46563000000000004  0.9757799999999999  0.88948  1.0000
  C   C57       1.0  0.47914  0.9824999999999999  0.9586199999999998  1.0000
  F   F8        1.0  0.4786  0.01978999999999999  0.9534599999999998  1.0000
  C   C58       1.0  0.45685000000000003  0.9932299999999998  0.06374  1.0000
  C   C59       1.0  0.45882  0.01649  0.09790999999999998  1.0000
  C   C60       1.0  0.42489  0.02  0.13218  1.0000
  C   C61       1.0  0.3864600000000001  0.9998400000000001  0.12246  1.0000
  C   C62       1.0  0.44337  0.00289  0.17065  1.0000
  C   C63       1.0  0.40931  0.0615  0.14029  1.0000
  C   C64       1.0  0.49365  0.03678  0.10031999999999999  1.0000
  H   H13       1.0  0.5435599999999998  0.01258  0.0101  1.0000
  H   H14       1.0  0.43163000000000007  0.97623  0.06061  1.0000
  H   H15       1.0  0.37284  0.01031  0.09400999999999997  1.0000
  H   H16       1.0  0.3619  0.00481  0.14686  1.0000
  H   H17       1.0  0.39466  0.96922  0.11978  1.0000
  H   H18       1.0  0.47106  0.01632  0.17918  1.0000
  H   H19       1.0  0.42012  0.00629  0.19632  1.0000
  H   H20       1.0  0.45309000000000005  0.9726699999999999  0.16581  1.0000
  H   H21       1.0  0.39808  0.07479  0.11216999999999998  1.0000
  H   H22       1.0  0.43404  0.07727  0.1519  1.0000
  H   H23       1.0  0.38325  0.06441  0.16332  1.0000
  H   H24       1.0  0.49681999999999993  0.05405  0.12656  1.0000
  C   C65       1.0  0.9499999999999998  0.36364  0.76955  1.0000
  C   C66       1.0  0.96291  0.32927  0.75064  1.0000
  C   C67       1.0  0.9740400000000002  0.32756  0.7092299999999998  1.0000
  C   C68       1.0  0.9923  0.29212  0.68926  1.0000
  C   C69       1.0  0.97937  0.28163  0.65117  1.0000
  F   F9        1.0  0.94668  0.30124  0.63414  1.0000
  C   C70       1.0  0.0003800000000000048  0.25115  0.6299599999999997  1.0000
  F   F10       1.0  0.9877400000000001  0.24244999999999997  0.59289  1.0000
  C   C71       1.0  0.03443999999999999  0.23020999999999997  0.64654  1.0000
  C   C72       1.0  0.04591  0.23934  0.68552  1.0000
  F   F11       1.0  0.07899000000000002  0.22007  0.7023199999999999  1.0000
  C   C73       1.0  0.02526  0.27012  0.70654  1.0000
  F   F12       1.0  0.039510000000000024  0.27988  0.7425999999999998  1.0000
  C   C74       1.0  0.97006  0.36047  0.68687  1.0000
  C   C75       1.0  0.95651  0.3953  0.70502  1.0000
  C   C76       1.0  0.95173  0.43048  0.67892  1.0000
  C   C77       1.0  0.9932900000000001  0.43528  0.6560599999999999  1.0000
  C   C78       1.0  0.9179  0.42631  0.64832  1.0000
  C   C79       1.0  0.9388200000000001  0.46665  0.70377  1.0000
  C   C80       1.0  0.9471799999999999  0.39627  0.74682  1.0000
  H   H25       1.0  0.9654199999999997  0.30413999999999997  0.7682899999999999  1.0000
  H   H26       1.0  0.9783000000000001  0.35899  0.65508  1.0000
  H   H27       1.0  0.018809999999999997  0.43541  0.67742  1.0000
  H   H28       1.0  0.9911600000000002  0.46195  0.63952  1.0000
  H   H29       1.0  0.001779999999999898  0.4127  0.6334099999999998  1.0000
  H   H30       1.0  0.88793  0.42225  0.6642899999999998  1.0000
  H   H31       1.0  0.9130700000000004  0.45155  0.6295799999999998  1.0000
  H   H32       1.0  0.92656  0.40209  0.62772  1.0000
  H   H33       1.0  0.96202  0.47092000000000006  0.72666  1.0000
  H   H34       1.0  0.90773  0.4658999999999999  0.71899  1.0000
  H   H35       1.0  0.9367799999999998  0.4913299999999999  0.6839999999999998  1.0000
  H   H36       1.0  0.93683  0.42221  0.7623599999999998  1.0000
  C   C81       1.0  0.73245  0.7208499999999999  0.5789799999999998  1.0000
  C   C82       1.0  0.74003  0.74825  0.55103  1.0000
  C   C83       1.0  0.77485  0.76769  0.55407  1.0000
  C   C84       1.0  0.7836100000000001  0.79548  0.52384  1.0000
  C   C85       1.0  0.76229  0.83133  0.52599  1.0000
  F   F13       1.0  0.73236  0.84033  0.55528  1.0000
  C   C86       1.0  0.77238  0.85832  0.49848999999999993  1.0000
  F   F14       1.0  0.75164  0.89297  0.50155  1.0000
  C   C87       1.0  0.80358  0.8495299999999999  0.46811999999999987  1.0000
  C   C88       1.0  0.82419  0.81318  0.46561999999999987  1.0000
  F   F15       1.0  0.85505  0.8038  0.43730999999999987  1.0000
  C   C89       1.0  0.81444  0.78648  0.49349999999999994  1.0000
  F   F16       1.0  0.83537  0.75186  0.49121  1.0000
  C   C90       1.0  0.8023  0.75991  0.58511  1.0000
  C   C91       1.0  0.7957800000000002  0.73202  0.61345  1.0000
  C   C92       1.0  0.8264600000000001  0.72112  0.6467099999999998  1.0000
  C   C93       1.0  0.861  0.74746  0.64939  1.0000
  C   C94       1.0  0.8029600000000001  0.72219  0.6881999999999998  1.0000
  C   C95       1.0  0.84755  0.68139  0.6379  1.0000
  C   C96       1.0  0.7603400000000001  0.71279  0.60973  1.0000
  H   H37       1.0  0.71908  0.75438  0.52679  1.0000
  H   H38       1.0  0.8288100000000002  0.77566  0.58617  1.0000
  H   H39       1.0  0.8808299999999999  0.74609  0.62122  1.0000
  H   H40       1.0  0.8817300000000001  0.73938  0.67439  1.0000
  H   H41       1.0  0.84725  0.77664  0.65515  1.0000
  H   H42       1.0  0.78095  0.70065  0.69028  1.0000
  H   H43       1.0  0.8249899999999999  0.71672  0.71277  1.0000
  H   H44       1.0  0.78521  0.74993  0.6937699999999998  1.0000
  H   H45       1.0  0.86437  0.68008  0.608  1.0000
  H   H46       1.0  0.82443  0.6607699999999999  0.63777  1.0000
  H   H47       1.0  0.87032  0.67289  0.66109  1.0000
  H   H48       1.0  0.75483  0.69064  0.63025  1.0000
  C   C97       1.0  0.19059000000000004  0.51435  0.10482999999999998  1.0000
  C   C98       1.0  0.21101000000000003  0.50825  0.14093  1.0000
  C   C99       1.0  0.21659  0.47249  0.15712  1.0000
  C   C100      1.0  0.23895999999999998  0.46569999999999995  0.1949  1.0000
  C   C101      1.0  0.22716999999999998  0.48712  0.22987  1.0000
  F   F17       1.0  0.19503  0.51446  0.22965999999999998  1.0000
  C   C102      1.0  0.24756  0.47979000000000005  0.26573999999999987  1.0000
  F   F18       1.0  0.2347  0.50059  0.29907  1.0000
  C   C103      1.0  0.28014  0.45076  0.2674  1.0000
  C   C104      1.0  0.29217  0.42966  0.23218  1.0000
  F   F19       1.0  0.32431  0.40229  0.23199  1.0000
  C   C105      1.0  0.27185999999999994  0.43712  0.19635  1.0000
  F   F20       1.0  0.28498  0.41683  0.16272  1.0000
  C   C106      1.0  0.20068999999999998  0.44289  0.13731  1.0000
  C   C107      1.0  0.17984  0.44808  0.101  1.0000
  C   C108      1.0  0.16223000000000004  0.41469  0.08085  1.0000
  C   C109      1.0  0.19793  0.38368  0.07103  1.0000
  C   C110      1.0  0.12971  0.39958  0.10982  1.0000
  C   C111      1.0  0.14068  0.42474  0.04108999999999999  1.0000
  C   C112      1.0  0.17566  0.48424000000000006  0.08484  1.0000
  H   H49       1.0  0.22305  0.53122  0.15624  1.0000
  H   H50       1.0  0.20429  0.41567  0.15077  1.0000
  H   H51       1.0  0.22247  0.3946  0.05157999999999999  1.0000
  H   H52       1.0  0.18638  0.35993  0.05494  1.0000
  H   H53       1.0  0.21234999999999998  0.37256  0.09876  1.0000
  H   H54       1.0  0.10422999999999999  0.42181  0.11788999999999997  1.0000
  H   H55       1.0  0.11589  0.37602  0.09559  1.0000
  H   H56       1.0  0.14371  0.38917  0.13802  1.0000
  H   H57       1.0  0.16295  0.43481  0.018469999999999993  1.0000
  H   H58       1.0  0.11392  0.44638000000000005  0.04638999999999999  1.0000
  H   H59       1.0  0.12837  0.39997  0.02778  1.0000
  H   H60       1.0  0.15984  0.48976  0.05720999999999998  1.0000
  C   C113      1.0  0.78318  0.43421  0.81007  1.0000
  C   C114      1.0  0.77909  0.45557999999999993  0.7752699999999998  1.0000
  C   C115      1.0  0.7423  0.4785  0.76954  1.0000
  C   C116      1.0  0.73778  0.50208  0.73383  1.0000
  C   C117      1.0  0.73657  0.48608  0.69529  1.0000
  F   F21       1.0  0.74327  0.4485799999999999  0.6899999999999997  1.0000
  C   C118      1.0  0.72581  0.50852  0.66245  1.0000
  F   F22       1.0  0.72245  0.49206999999999995  0.62596  1.0000
  C   C119      1.0  0.71616  0.54726  0.66794  1.0000
  C   C120      1.0  0.72026  0.56327  0.7062199999999997  1.0000
  F   F23       1.0  0.71338  0.60068  0.71238  1.0000
  C   C121      1.0  0.73076  0.54084  0.7388599999999997  1.0000
  F   F24       1.0  0.73302  0.55687  0.77576  1.0000
  C   C122      1.0  0.70953  0.48015  0.79858  1.0000
  C   C123      1.0  0.71308  0.45949999999999996  0.83423  1.0000
  C   C124      1.0  0.67909  0.46319  0.86833  1.0000
  C   C125      1.0  0.63809  0.48527  0.85597  1.0000
  C   C126      1.0  0.66863  0.42421  0.8814399999999998  1.0000
  C   C127      1.0  0.69529  0.48383000000000004  0.90437  1.0000
  C   C128      1.0  0.75043  0.43647  0.83924  1.0000
  H   H61       1.0  0.80449  0.45477  0.7529199999999998  1.0000
  H   H62       1.0  0.6817400000000001  0.4983  0.79294  1.0000
  H   H63       1.0  0.64266  0.51463  0.84908  1.0000
  H   H64       1.0  0.61401  0.4861  0.88086  1.0000
  H   H65       1.0  0.62581  0.47201999999999994  0.8292399999999998  1.0000
  H   H66       1.0  0.69512  0.40834  0.89584  1.0000
  H   H67       1.0  0.64202  0.42647  0.90386  1.0000
  H   H68       1.0  0.66018  0.4079  0.85502  1.0000
  H   H69       1.0  0.69855  0.51329  0.89677  1.0000
  H   H70       1.0  0.72631  0.47095000000000004  0.91261  1.0000
  H   H71       1.0  0.67368  0.48348  0.9311699999999998  1.0000
  H   H72       1.0  0.75485  0.42107000000000006  0.86671  1.0000
  C   C129      1.0  0.35956  0.82425  0.99556  1.0000
  C   C130      1.0  0.32415  0.80574  0.0028199999999998226  1.0000
  C   C131      1.0  0.32504000000000005  0.77608  0.0298  1.0000
  C   C132      1.0  0.28762  0.75633  0.0378  1.0000
  C   C133      1.0  0.26643  0.74241  0.0058  1.0000
  F   F25       1.0  0.27913  0.74774  0.96706  1.0000
  C   C134      1.0  0.23323000000000002  0.72125  0.01336  1.0000
  F   F26       1.0  0.21449000000000001  0.70749  0.9814599999999999  1.0000
  C   C135      1.0  0.22072  0.71321  0.05321  1.0000
  C   C136      1.0  0.24117999999999998  0.72818  0.08521999999999999  1.0000
  F   F27       1.0  0.22939  0.72222  0.12407  1.0000
  C   C137      1.0  0.2742  0.7495299999999999  0.07758  1.0000
  F   F28       1.0  0.29312  0.76362  0.1092  1.0000
  C   C138      1.0  0.36223  0.76422  0.048449999999999986  1.0000
  C   C139      1.0  0.39857  0.78209  0.04128  1.0000
  C   C140      1.0  0.44050999999999996  0.76865  0.05955999999999999  1.0000
  C   C141      1.0  0.43847  0.73392  0.08613999999999997  1.0000
  C   C142      1.0  0.47358  0.75835  0.025309999999999944  1.0000
  C   C143      1.0  0.45458  0.80001  0.08599  1.0000
  C   C144      1.0  0.39606  0.81283  0.015369999999999884  1.0000
  H   H73       1.0  0.29578  0.81474  0.9878699999999999  1.0000
  H   H74       1.0  0.36238  0.74037  0.06776  1.0000
  H   H75       1.0  0.41579  0.73984  0.11197  1.0000
  H   H76       1.0  0.4692  0.72523  0.09874  1.0000
  H   H77       1.0  0.4297099999999999  0.71  0.06824  1.0000
  H   H78       1.0  0.48016000000000003  0.78304  0.007549999999999724  1.0000
  H   H79       1.0  0.50342  0.74646  0.03762999999999982  1.0000
  H   H80       1.0  0.46288000000000007  0.73739  0.0044800000000000395  1.0000
  H   H81       1.0  0.4307099999999999  0.80843  0.11023999999999998  1.0000
  H   H82       1.0  0.45979999999999993  0.82495  0.06803000000000002  1.0000
  H   H83       1.0  0.4842699999999999  0.79059  0.10022999999999997  1.0000
  H   H84       1.0  0.42323  0.82717  0.009130000000000082  1.0000
  C   C145      1.0  0.16748  0.05867  0.69946  1.0000
  C   C146      1.0  0.19481  0.02653  0.70529  1.0000
  C   C147      1.0  0.19631  0.00974  0.74323  1.0000
  C   C148      1.0  0.22809  0.9785  0.7520799999999997  1.0000
  C   C149      1.0  0.27044  0.9817299999999999  0.74375  1.0000
  F   F29       1.0  0.28250999999999993  0.01104  0.72272  1.0000
  C   C150      1.0  0.30088  0.9565  0.75992  1.0000
  F   F30       1.0  0.3414199999999999  0.96196  0.7533399999999998  1.0000
  C   C151      1.0  0.28953  0.92779  0.7851399999999997  1.0000
  C   C152      1.0  0.24724  0.92308  0.79118  1.0000
  F   F31       1.0  0.23525  0.8948999999999999  0.81408  1.0000
  C   C153      1.0  0.21681  0.9479199999999999  0.7743999999999998  1.0000
  F   F32       1.0  0.17616  0.94291  0.7812299999999998  1.0000
  C   C154      1.0  0.16952  0.02488  0.77486  1.0000
  C   C155      1.0  0.14067999999999997  0.05625999999999999  0.76938  1.0000
  C   C156      1.0  0.11038000000000002  0.07298  0.8034699999999998  1.0000
  C   C157      1.0  0.11410999999999999  0.05105  0.84317  1.0000
  C   C158      1.0  0.11928000000000001  0.11329999999999998  0.81261  1.0000
  C   C159      1.0  0.06525000000000002  0.07287  0.7901399999999998  1.0000
  C   C160      1.0  0.14056  0.07303  0.73131  1.0000
  H   H85       1.0  0.21578999999999995  0.01543  0.68086  1.0000
  H   H86       1.0  0.17258  0.012349999999999998  0.80407  1.0000
  H   H87       1.0  0.10801999999999998  0.02164  0.83836  1.0000
  H   H88       1.0  0.09115  0.06348  0.86661  1.0000
  H   H89       1.0  0.1455  0.05167  0.8553599999999998  1.0000
  H   H90       1.0  0.11442  0.13135999999999995  0.78606  1.0000
  H   H91       1.0  0.09841999999999998  0.12577  0.8376899999999998  1.0000
  H   H92       1.0  0.15198000000000003  0.11372999999999998  0.8214299999999998  1.0000
  H   H93       1.0  0.05904  0.04413  0.78192  1.0000
  H   H94       1.0  0.059120000000000006  0.09086  0.76374  1.0000
  H   H95       1.0  0.04265  0.0834  0.81477  1.0000
  H   H96       1.0  0.11922  0.09751  0.72621  1.0000
  C   C161      1.0  0.05686999999999999  0.67372  0.20095999999999997  1.0000
  C   C162      1.0  0.042629999999999994  0.7082  0.21894  1.0000
  C   C163      1.0  0.012190000000000001  0.7106  0.25034  1.0000
  C   C164      1.0  0.9974099999999999  0.747  0.26989  1.0000
  C   C165      1.0  0.98461  0.77812  0.24664  1.0000
  F   F33       1.0  0.98594  0.77548  0.20582  1.0000
  C   C166      1.0  0.9684099999999997  0.81178  0.2652899999999999  1.0000
  F   F34       1.0  0.95487  0.84079  0.24191  1.0000
  C   C167      1.0  0.9643399999999999  0.81482  0.30755  1.0000
  C   C168      1.0  0.9781799999999999  0.78394  0.33075  1.0000
  F   F35       1.0  0.9759299999999999  0.78609  0.37162  1.0000
  C   C169      1.0  0.9947499999999999  0.7505  0.31214  1.0000
  F   F36       1.0  0.008409999999999999  0.72151  0.33552  1.0000
  C   C170      1.0  0.99545  0.67817  0.2631699999999999  1.0000
  C   C171      1.0  0.009499999999999996  0.64296  0.24585999999999997  1.0000
  C   C172      1.0  0.9923200000000001  0.6067  0.25975  1.0000
  C   C173      1.0  0.9574199999999999  0.61329  0.29307  1.0000
  C   C174      1.0  0.97412  0.58748  0.22373  1.0000
  C   C175      1.0  0.02792  0.58038  0.2766499999999999  1.0000
  C   C176      1.0  0.04077000000000001  0.64142  0.21488  1.0000
  H   H97       1.0  0.055899999999999984  0.73304  0.20908  1.0000
  H   H98       1.0  0.97126  0.6811  0.28667  1.0000
  H   H99       1.0  0.9689  0.62625  0.3203699999999999  1.0000
  H   H100      1.0  0.94605  0.58654  0.30232  1.0000
  H   H101      1.0  0.93045  0.63141  0.28207  1.0000
  H   H102      1.0  0.9983300000000002  0.57864  0.19998  1.0000
  H   H103      1.0  0.96004  0.56211  0.23352999999999993  1.0000
  H   H104      1.0  0.9496  0.60668  0.21014  1.0000
  H   H105      1.0  0.041920000000000006  0.59417  0.30205  1.0000
  H   H106      1.0  0.052819999999999985  0.57235  0.2532899999999999  1.0000
  H   H107      1.0  0.016319999999999998  0.55434  0.28785  1.0000
  H   H108      1.0  0.05218999999999999  0.61497  0.20079  1.0000
  C   C177      1.0  0.17529000000000003  0.24849999999999997  0.57135  1.0000
  C   C178      1.0  0.20296  0.26579  0.54607  1.0000
  C   C179      1.0  0.1998  0.30482  0.54377  1.0000
  C   C180      1.0  0.22904999999999998  0.3238  0.51753  1.0000
  C   C181      1.0  0.23639  0.3133  0.47682  1.0000
  F   F37       1.0  0.2178099999999998  0.28477  0.46103  1.0000
  C   C182      1.0  0.26156  0.33305  0.45151  1.0000
  F   F38       1.0  0.26704  0.32222  0.4122599999999999  1.0000
  C   C183      1.0  0.27986  0.364  0.46633  1.0000
  C   C184      1.0  0.27287  0.37407  0.50735  1.0000
  F   F39       1.0  0.28989000000000004  0.40345  0.5232799999999997  1.0000
  C   C185      1.0  0.24800999999999995  0.3541  0.53261  1.0000
  F   F40       1.0  0.2426  0.36436  0.57206  1.0000
  C   C186      1.0  0.16803  0.32628  0.56623  1.0000
  C   C187      1.0  0.13956  0.30955  0.59157  1.0000
  C   C188      1.0  0.10281999999999998  0.33224  0.6145799999999998  1.0000
  C   C189      1.0  0.10434999999999998  0.37485  0.61227  1.0000
  C   C190      1.0  0.06212000000000001  0.32301  0.59619  1.0000
  C   C191      1.0  0.10254999999999999  0.32221  0.65966  1.0000
  C   C192      1.0  0.14405999999999997  0.27036  0.59378  1.0000
  H   H109      1.0  0.22738000000000003  0.24899  0.52893  1.0000
  H   H110      1.0  0.16536  0.3561  0.56266  1.0000
  H   H111      1.0  0.13379  0.3828  0.62424  1.0000
  H   H112      1.0  0.07823000000000001  0.3899  0.63056  1.0000
  H   H113      1.0  0.10149  0.38467  0.58086  1.0000
  H   H114      1.0  0.05938  0.29271  0.5968  1.0000
  H   H115      1.0  0.03473999999999999  0.33756  0.61295  1.0000
  H   H116      1.0  0.06112  0.33183  0.56429  1.0000
  H   H117      1.0  0.13181  0.3288  0.67315  1.0000
  H   H118      1.0  0.09956  0.29232  0.66432  1.0000
  H   H119      1.0  0.07595  0.33814  0.67652  1.0000
  H   H120      1.0  0.12224  0.2564  0.6120299999999997  1.0000
  C   C193      1.0  0.545  0.17131  0.20676999999999995  1.0000
  C   C194      1.0  0.52902  0.20661  0.22162999999999997  1.0000
  C   C195      1.0  0.49533999999999995  0.21053  0.24965  1.0000
  C   C196      1.0  0.47824000000000005  0.24785999999999997  0.26513  1.0000
  C   C197      1.0  0.46631  0.27664  0.23847999999999994  1.0000
  F   F41       1.0  0.47115  0.27088  0.19805  1.0000
  C   C198      1.0  0.44759999999999994  0.31109  0.25322  1.0000
  F   F42       1.0  0.43523  0.33779  0.22655  1.0000
  C   C199      1.0  0.44035  0.3173  0.29495  1.0000
  C   C200      1.0  0.4539099999999999  0.28889  0.32157  1.0000
  F   F43       1.0  0.44942  0.29428  0.36207999999999996  1.0000
  C   C201      1.0  0.47259  0.25456  0.30679  1.0000
  F   F44       1.0  0.48544999999999994  0.22783  0.33328  1.0000
  C   C202      1.0  0.47725  0.17882  0.2625299999999999  1.0000
  C   C203      1.0  0.49224  0.14294  0.24783  1.0000
  C   C204      1.0  0.47009000000000006  0.10912  0.26155  1.0000
  C   C205      1.0  0.47259999999999996  0.10501  0.3076  1.0000
  C   C206      1.0  0.42399  0.11481  0.25030999999999987  1.0000
  C   C207      1.0  0.48957999999999996  0.07213  0.24166  1.0000
  C   C208      1.0  0.52682  0.13977  0.22012  1.0000
  H   H121      1.0  0.54282  0.23112  0.2115  1.0000
  H   H122      1.0  0.45066  0.18243  0.28353  1.0000
  H   H123      1.0  0.5056  0.10155  0.31621  1.0000
  H   H124      1.0  0.4576599999999999  0.08023  0.31791  1.0000
  H   H125      1.0  0.45652  0.12971  0.32402  1.0000
  H   H126      1.0  0.4216  0.12042  0.21761  1.0000
  H   H127      1.0  0.40821  0.08957  0.2571699999999999  1.0000
  H   H128      1.0  0.40661  0.13851  0.2674  1.0000
  H   H129      1.0  0.52275  0.06624  0.2491  1.0000
  H   H130      1.0  0.48721  0.07328  0.20844  1.0000
  H   H131      1.0  0.47322  0.04837  0.25254  1.0000
  H   H132      1.0  0.53935  0.11305  0.20757  1.0000
  C   C209      1.0  0.4034400000000001  0.79345  0.77956  1.0000
  C   C210      1.0  0.43739  0.78038  0.75401  1.0000
  C   C211      1.0  0.43199  0.7569199999999999  0.7212499999999997  1.0000
  C   C212      1.0  0.46817999999999976  0.74115  0.69587  1.0000
  C   C213      1.0  0.49968000000000007  0.71744  0.71284  1.0000
  F   F45       1.0  0.49768000000000007  0.7098  0.75274  1.0000
  C   C214      1.0  0.53286  0.70059  0.6887099999999998  1.0000
  F   F46       1.0  0.56264  0.6778  0.70639  1.0000
  C   C215      1.0  0.53535  0.70733  0.64703  1.0000
  C   C216      1.0  0.50397  0.73171  0.63021  1.0000
  F   F47       1.0  0.50499  0.73883  0.5901799999999998  1.0000
  C   C217      1.0  0.47052999999999995  0.74825  0.6544399999999998  1.0000
  F   F48       1.0  0.44046  0.77132  0.63752  1.0000
  C   C218      1.0  0.39233  0.74691  0.71366  1.0000
  C   C219      1.0  0.35761999999999994  0.75919  0.73934  1.0000
  C   C220      1.0  0.31377  0.74765  0.73295  1.0000
  C   C221      1.0  0.31174  0.72275  0.69501  1.0000
  C   C222      1.0  0.2998399999999999  0.7256  0.76972  1.0000
  C   C223      1.0  0.28284000000000004  0.78275  0.72822  1.0000
  C   C224      1.0  0.3641  0.78238  0.77246  1.0000
  H   H133      1.0  0.46812  0.78795  0.7598499999999998  1.0000
  H   H134      1.0  0.38948  0.72878  0.68809  1.0000
  H   H135      1.0  0.32065  0.73758  0.66739  1.0000
  H   H136      1.0  0.2797  0.71514  0.69149  1.0000
  H   H137      1.0  0.33248  0.69638  0.6972099999999998  1.0000
  H   H138      1.0  0.29721  0.74298  0.79766  1.0000
  H   H139      1.0  0.26892  0.7157799999999997  0.76525  1.0000
  H   H140      1.0  0.32256  0.7009  0.7743899999999998  1.0000
  H   H141      1.0  0.29303  0.79953  0.70257  1.0000
  H   H142      1.0  0.28008  0.80064  0.75575  1.0000
  H   H143      1.0  0.25127  0.77501  0.7224799999999998  1.0000
  H   H144      1.0  0.33821  0.79242  0.79268  1.0000
  C   C225      1.0  0.46454  0.43979  0.43379  1.0000
  C   C226      1.0  0.4792699999999999  0.46935  0.45454  1.0000
  C   C227      1.0  0.52171  0.46888  0.4615299999999999  1.0000
  C   C228      1.0  0.53741  0.50018  0.48330999999999996  1.0000
  C   C229      1.0  0.56251  0.49333999999999995  0.5164799999999998  1.0000
  F   F49       1.0  0.57083  0.45821000000000006  0.53029  1.0000
  C   C230      1.0  0.57908  0.5226  0.53589  1.0000
  F   F50       1.0  0.60365  0.5145199999999999  0.5674299999999998  1.0000
  C   C231      1.0  0.57103  0.55944  0.52239  1.0000
  C   C232      1.0  0.545  0.56627  0.48966  1.0000
  F   F51       1.0  0.53572  0.60131  0.47596  1.0000
  C   C233      1.0  0.52842  0.53692  0.47036  1.0000
  F   F52       1.0  0.50464  0.5443  0.4381  1.0000
  C   C234      1.0  0.5495999999999998  0.43886  0.4469499999999999  1.0000
  C   C235      1.0  0.53567  0.40896  0.4253299999999999  1.0000
  C   C236      1.0  0.5655999999999998  0.37639  0.40715  1.0000
  C   C237      1.0  0.61149  0.37878  0.41734  1.0000
  C   C238      1.0  0.55304  0.33912  0.42345  1.0000
  C   C239      1.0  0.56323  0.37632  0.3608299999999999  1.0000
  C   C240      1.0  0.49265  0.4099  0.4194999999999999  1.0000
  H   H145      1.0  0.4577  0.49250999999999995  0.46571  1.0000
  H   H146      1.0  0.58221  0.43987  0.452  1.0000
  H   H147      1.0  0.6231  0.40421  0.40448999999999996  1.0000
  H   H148      1.0  0.6317799999999999  0.35445  0.40441  1.0000
  H   H149      1.0  0.61507  0.37884  0.45047  1.0000
  H   H150      1.0  0.52182  0.33365  0.4137499999999999  1.0000
  H   H151      1.0  0.57537  0.31546  0.41211  1.0000
  H   H152      1.0  0.55266  0.33931  0.4569  1.0000
  H   H153      1.0  0.57099  0.40338  0.34860999999999986  1.0000
  H   H154      1.0  0.5317199999999999  0.37161  0.35125  1.0000
  H   H155      1.0  0.58551  0.35383  0.3469099999999999  1.0000
  H   H156      1.0  0.48090999999999995  0.38781  0.40251  1.0000
  C   C241      1.0  0.94468  0.9440699999999999  0.46261999999999986  1.0000
  C   C242      1.0  0.9764199999999996  0.96198  0.47962  1.0000
  C   C243      1.0  0.97379  0.0008099999999999771  0.4819399999999999  1.0000
  C   C244      1.0  0.006529999999999927  0.0193  0.5014199999999999  1.0000
  C   C245      1.0  0.04745  0.015259999999999998  0.48513999999999996  1.0000
  F   F53       1.0  0.05741999999999999  0.99409  0.4514299999999999  1.0000
  C   C246      1.0  0.07807  0.03394  0.5027199999999998  1.0000
  F   F54       1.0  0.11719000000000002  0.029760000000000005  0.48583  1.0000
  C   C247      1.0  0.06834  0.05664999999999999  0.53733  1.0000
  C   C248      1.0  0.027399999999999997  0.059899999999999995  0.55403  1.0000
  F   F55       1.0  0.016489999999999894  0.08177  0.58702  1.0000
  C   C249      1.0  0.9967799999999999  0.04158  0.53606  1.0000
  F   F56       1.0  0.95747  0.045610000000000005  0.55252  1.0000
  C   C250      1.0  0.93956  0.02216  0.46649  1.0000
  C   C251      1.0  0.90764  0.00511  0.4481  1.0000
  C   C252      1.0  0.87039  0.02781  0.42927  1.0000
  C   C253      1.0  0.86999  0.07034  0.43592  1.0000
  C   C254      1.0  0.87238  0.02007  0.38346  1.0000
  C   C255      1.0  0.8291399999999998  0.01647  0.4479  1.0000
  C   C256      1.0  0.9108300000000001  0.96575  0.44667  1.0000
  H   H157      1.0  0.002690000000000074  0.94581  0.4924  1.0000
  H   H158      1.0  0.93883  0.05208  0.46877999999999986  1.0000
  H   H159      1.0  0.86867  0.07747  0.4686099999999999  1.0000
  H   H160      1.0  0.84234  0.08555  0.4225199999999999  1.0000
  H   H161      1.0  0.89794  0.08071  0.42132  1.0000
  H   H162      1.0  0.8718200000000002  0.9900200000000001  0.3766  1.0000
  H   H163      1.0  0.84561  0.03558  0.36897999999999986  1.0000
  H   H164      1.0  0.90149  0.02889  0.36955  1.0000
  H   H165      1.0  0.82793  0.0206599999999999  0.48113  1.0000
  H   H166      1.0  0.82517  0.98694  0.44127  1.0000
  H   H167      1.0  0.80211  0.03352  0.4355599999999999  1.0000
  H   H168      1.0  0.8865099999999999  0.95192  0.4336599999999999  1.0000
  C   C257      1.0  0.71684  0.04312  0.14513  1.0000
  C   C258      1.0  0.72617  0.02436  0.18097  1.0000
  C   C259      1.0  0.76593  0.005789999999999962  0.18581  1.0000
  C   C260      1.0  0.77694  0.98695  0.22392  1.0000
  C   C261      1.0  0.79726  0.95052  0.22301  1.0000
  F   F57       1.0  0.80259  0.93067  0.18789  1.0000
  C   C262      1.0  0.8126100000000002  0.9343599999999999  0.25815  1.0000
  F   F58       1.0  0.83262  0.89938  0.25605  1.0000
  C   C263      1.0  0.8073  0.9540600000000001  0.29503999999999997  1.0000
  C   C264      1.0  0.7851  0.98975  0.2963399999999999  1.0000
  F   F59       1.0  0.7796  0.009609999999999896  0.33141  1.0000
  C   C265      1.0  0.77042  0.0061999999999999824  0.26101999999999986  1.0000
  F   F60       1.0  0.75191  0.041729999999999996  0.26278  1.0000
  C   C266      1.0  0.79632  0.00593  0.15451  1.0000
  C   C267      1.0  0.78778  0.02424  0.11805999999999997  1.0000
  C   C268      1.0  0.82059  0.02514  0.0832  1.0000
  C   C269      1.0  0.8622199999999998  0.0018000000000000002  0.09134  1.0000
  C   C270      1.0  0.80401  0.00936  0.044299999999999985  1.0000
  C   C271      1.0  0.82968  0.06575  0.07647  1.0000
  C   C272      1.0  0.74776  0.042989999999999993  0.11424  1.0000
  H   H169      1.0  0.70265  0.0241  0.20504999999999995  1.0000
  H   H170      1.0  0.82685  0.9921200000000001  0.15956  1.0000
  H   H171      1.0  0.87707  0.01302  0.11777  1.0000
  H   H172      1.0  0.88454  0.00238  0.0651  1.0000
  H   H173      1.0  0.85732  0.97221  0.09661  1.0000
  H   H174      1.0  0.77632  0.026899999999999924  0.03408  1.0000
  H   H175      1.0  0.82801  0.00812  0.01931  1.0000
  H   H176      1.0  0.79537  0.9807499999999999  0.049279999999999984  1.0000
  H   H177      1.0  0.84024  0.07788  0.10466999999999997  1.0000
  H   H178      1.0  0.80164  0.0834  0.06712999999999997  1.0000
  H   H179      1.0  0.85438  0.06715  0.05248999999999999  1.0000
  H   H180      1.0  0.7407  0.0579  0.08692  1.0000
  C   C273      1.0  0.80762  0.32503  0.97176  1.0000
  C   C274      1.0  0.79291  0.29157  0.9835899999999999  1.0000
  C   C275      1.0  0.75513  0.29212  0.00579  1.0000
  C   C276      1.0  0.73875  0.25725  0.01878  1.0000
  C   C277      1.0  0.72723  0.25272  0.059459999999999985  1.0000
  F   F61       1.0  0.73558  0.27804  0.08768999999999998  1.0000
  C   C278      1.0  0.70654  0.22241  0.0714  1.0000
  F   F62       1.0  0.69566  0.21944  0.11101  1.0000
  C   C279      1.0  0.6968699999999998  0.19588999999999998  0.04284  1.0000
  C   C280      1.0  0.71023  0.19954  0.002259999999999999  1.0000
  F   F63       1.0  0.70163  0.17466  0.97367  1.0000
  C   C281      1.0  0.73102  0.22998999999999997  0.9904  1.0000
  F   F64       1.0  0.74158  0.23385999999999998  0.9508299999999997  1.0000
  C   C282      1.0  0.73207  0.32631  0.01566  1.0000
  C   C283      1.0  0.74545  0.36032  0.00293999999999972  1.0000
  C   C284      1.0  0.71794  0.39696  0.013339999999999907  1.0000
  C   C285      1.0  0.67431  0.3952699999999999  0.9966299999999999  1.0000
  C   C286      1.0  0.7138699999999999  0.40255  0.05949  1.0000
  C   C287      1.0  0.73564  0.43147  0.9952299999999998  1.0000
  C   C288      1.0  0.78394  0.35904  0.9809999999999999  1.0000
  H   H181      1.0  0.81115  0.2653  0.9762499999999998  1.0000
  H   H182      1.0  0.70305  0.32617  0.03296  1.0000
  H   H183      1.0  0.6768399999999998  0.389  0.9638199999999999  1.0000
  H   H184      1.0  0.65471  0.42221  0.0015599999999999995  1.0000
  H   H185      1.0  0.65757  0.37354  0.01146  1.0000
  H   H186      1.0  0.74502  0.40279  0.07220999999999998  1.0000
  H   H187      1.0  0.69521  0.42937  0.06767  1.0000
  H   H188      1.0  0.69825  0.38001  0.07415  1.0000
  H   H189      1.0  0.73936  0.42835  0.9620299999999998  1.0000
  H   H190      1.0  0.76614  0.43548  0.007629999999999803  1.0000
  H   H191      1.0  0.71448  0.45719000000000004  0.0022699999999999942  1.0000
  H   H192      1.0  0.79626  0.38417  0.97094  1.0000
