data_image0
_chemical_formula_structural       Pr3I12Cu12O18N9CHCHC2HCHC2HCHC2HCHC2HCHC2HCHC2HCHC2HCHC2HCHC2HCHC2HCHC2HCHC2HCHC2HCHC2HCHC2HCHC2HCHC2HCHCPr3I12Cu12O18N9CHCHC2HCHC2HCHC2HCHC2HCHC2HCHC2HCHC2HCHC2HCHC2HCHC2HCHC2HCHC2HCHC2HCHC2HCHC2HCHC2HCHC2HCHCPr3I12Cu12O18N9CHCHC2HCHC2HCHC2HCHC2HCHC2HCHC2HCHC2HCHC2HCHC2HCHC2HCHC2HCHC2HCHC2HCHC2HCHC2HCHC2HCHC2HCHCPr3I12Cu12O18N9CHCHC2HCHC2HCHC2HCHC2HCHC2HCHC2HCHC2HCHC2HCHC2HCHC2HCHC2HCHC2HCHC2HCHC2HCHC2HCHC2HCHC2HCHC
_chemical_formula_sum              "Pr12 I48 Cu48 O72 N36 C216 H144"
_cell_length_a       15.095
_cell_length_b       25.0532
_cell_length_c       29.758799999999997
_cell_angle_alpha    90.0
_cell_angle_beta     107.936
_cell_angle_gamma    90.0

_symmetry_space_group_name_H-M    'P 1'
_symmetry_Int_Tables_number       1

loop_
  _symmetry_equiv_pos_as_xyz
  'x,y,z'

loop_
  _atom_site_type_symbol
  _atom_site_label
  _atom_site_symmetry_multiplicity
  _atom_site_fract_x
  _atom_site_fract_y
  _atom_site_fract_z
  _atom_site_occupancy
  Pr  Pr1       1.0  0.041509999999999915  0.59997  0.46472999999999987  1.0000
  Pr  Pr2       1.0  0.95673  0.7591  0.50388  1.0000
  Pr  Pr3       1.0  0.03357999999999995  0.92362  0.4850899999999999  1.0000
  I   I1        1.0  0.32773  0.56718  0.81614  1.0000
  I   I2        1.0  0.52221  0.6448199999999997  0.73936  1.0000
  I   I3        1.0  0.48761  0.7117999999999998  0.87306  1.0000
  I   I4        1.0  0.2593699999999999  0.7188599999999998  0.7303399999999999  1.0000
  I   I5        1.0  0.4977800000000001  0.8116099999999998  0.75989  1.0000
  I   I6        1.0  0.6841999999999999  0.74907  0.6720499999999998  1.0000
  I   I7        1.0  0.74218  0.60336  0.26497  1.0000
  I   I8        1.0  0.5035199999999997  0.8919099999999999  0.6279499999999998  1.0000
  I   I9        1.0  0.48719  0.9789  0.74946  1.0000
  I   I10       1.0  0.30404  0.9113499999999999  0.83579  1.0000
  I   I11       1.0  0.47135  0.44514  0.38098  1.0000
  I   I12       1.0  0.22654999999999995  0.055469999999999985  0.7467799999999999  1.0000
  Cu  Cu1       1.0  0.34893  0.62282  0.7423  1.0000
  Cu  Cu2       1.0  0.4828  0.6231799999999998  0.81973  1.0000
  Cu  Cu3       1.0  0.3228700000000002  0.6705599999999999  0.81434  1.0000
  Cu  Cu4       1.0  0.43604  0.71875  0.77916  1.0000
  Cu  Cu5       1.0  0.53122  0.7957899999999998  0.67644  1.0000
  Cu  Cu6       1.0  0.66925  0.7017699999999999  0.25279  1.0000
  Cu  Cu7       1.0  0.6764899999999998  0.85354  0.6783499999999998  1.0000
  Cu  Cu8       1.0  0.5639  0.8942799999999997  0.72018  1.0000
  Cu  Cu9       1.0  0.31834  0.9610599999999998  0.75718  1.0000
  Cu  Cu10      1.0  0.45986  0.5395099999999999  0.3340599999999999  1.0000
  Cu  Cu11      1.0  0.70255  0.5162899999999999  0.66576  1.0000
  Cu  Cu12      1.0  0.59286  0.5564399999999999  0.71173  1.0000
  O   O1        1.0  0.12300000000000004  0.52979  0.51706  1.0000
  O   O2        1.0  0.0646  0.4716599999999999  0.55718  1.0000
  O   O3        1.0  0.17930000000000004  0.64484  0.51968  1.0000
  O   O4        1.0  0.10219999999999996  0.7166399999999999  0.5308  1.0000
  O   O5        1.0  0.9881  0.6080199999999999  0.53502  1.0000
  O   O6        1.0  0.9267  0.6853699999999998  0.549  1.0000
  O   O7        1.0  0.8987  0.653  0.4426399999999999  1.0000
  O   O8        1.0  0.8106  0.7171599999999999  0.4555899999999999  1.0000
  O   O9        1.0  0.0756  0.68105  0.42942  1.0000
  O   O10       1.0  0.014299999999999997  0.7603899999999998  0.43629  1.0000
  O   O11       1.0  0.024099999999999955  0.79634  0.5852  1.0000
  O   O12       1.0  0.0806  0.8443699999999998  0.53817  1.0000
  O   O13       1.0  0.9073  0.8447899999999999  0.4558  1.0000
  O   O14       1.0  0.9553  0.88924  0.40357  1.0000
  O   O15       1.0  0.19520000000000007  0.9543  0.52925  1.0000
  O   O16       1.0  0.0973  0.014  0.54019  1.0000
  O   O17       1.0  0.03499999999999992  0.07113999999999998  0.4519799999999999  1.0000
  O   O18       1.0  0.07910000000000005  0.9898199999999998  0.43660999999999994  1.0000
  N   N1        1.0  0.2832999999999999  0.5790199999999999  0.6853299999999998  1.0000
  N   N2        1.0  0.4217000000000001  0.75409  0.6363099999999999  1.0000
  N   N3        1.0  0.7834999999999999  0.5534199999999999  0.6312499999999999  1.0000
  N   N4        1.0  0.5728  0.58352  0.3686699999999999  1.0000
  N   N5        1.0  0.2325  0.7981  0.3441  1.0000
  N   N6        1.0  0.2489999999999999  0.9139  0.7022399999999998  1.0000
  N   N7        1.0  0.7373  0.7549  0.30240999999999996  1.0000
  N   N8        1.0  0.4114  0.07825  0.64067  1.0000
  N   N9        1.0  0.2413  0.11279999999999997  0.3554  1.0000
  C   C1        1.0  0.2999  0.5894999999999999  0.6445  1.0000
  H   H1        1.0  0.3494  0.6130999999999999  0.6449  1.0000
  C   C2        1.0  0.2485  0.5675  0.60184  1.0000
  H   H2        1.0  0.2632999999999999  0.5753999999999999  0.5737999999999998  1.0000
  C   C3        1.0  0.17510000000000006  0.5339  0.6007  1.0000
  C   C4        1.0  0.1596  0.5212  0.6429  1.0000
  H   H3        1.0  0.1118  0.4967  0.6435  1.0000
  C   C5        1.0  0.21400000000000005  0.5444  0.684  1.0000
  H   H4        1.0  0.2023  0.5356999999999998  0.7128  1.0000
  C   C6        1.0  0.11590000000000006  0.5102  0.55448  1.0000
  C   C7        1.0  0.42709999999999987  0.7142  0.6068999999999998  1.0000
  H   H5        1.0  0.4869  0.7011999999999998  0.6081  1.0000
  C   C8        1.0  0.3496  0.6916  0.575  1.0000
  H   H6        1.0  0.3562  0.6639  0.5544  1.0000
  C   C9        1.0  0.26189999999999986  0.7098999999999998  0.5734899999999998  1.0000
  C   C10       1.0  0.2561  0.749  0.6052  1.0000
  H   H7        1.0  0.1971  0.7614999999999997  0.606  1.0000
  C   C11       1.0  0.3369  0.7697  0.6358  1.0000
  H   H8        1.0  0.33199999999999996  0.7964  0.6575999999999999  1.0000
  C   C12       1.0  0.1745  0.6882999999999999  0.53846  1.0000
  C   C13       1.0  0.8401999999999998  0.5269999999999999  0.6121999999999999  1.0000
  H   H9        1.0  0.846  0.48949999999999994  0.6164999999999998  1.0000
  C   C14       1.0  0.891  0.5518  0.5865  1.0000
  H   H10       1.0  0.9296999999999999  0.5314999999999999  0.5730999999999998  1.0000
  C   C15       1.0  0.8844000000000001  0.6067  0.58066  1.0000
  C   C16       1.0  0.8281  0.6345  0.6017  1.0000
  H   H11       1.0  0.8235999999999999  0.6721999999999998  0.5992999999999998  1.0000
  C   C17       1.0  0.7787  0.6064999999999999  0.6260999999999999  1.0000
  H   H12       1.0  0.7395  0.6258999999999999  0.6398  1.0000
  C   C18       1.0  0.9380000000000001  0.6353999999999999  0.55247  1.0000
  C   C19       1.0  0.6576  0.5668999999999998  0.3688  1.0000
  H   H13       1.0  0.6619  0.5346999999999998  0.3527  1.0000
  C   C20       1.0  0.7389999999999999  0.5939999999999999  0.3910999999999999  1.0000
  H   H14       1.0  0.7975000000000001  0.5803999999999999  0.3907  1.0000
  C   C21       1.0  0.734  0.6413  0.414  1.0000
  C   C22       1.0  0.6469  0.6595999999999999  0.4134  1.0000
  H   H15       1.0  0.6408  0.6921  0.4286999999999999  1.0000
  C   C23       1.0  0.5691  0.63  0.39029999999999987  1.0000
  H   H16       1.0  0.5098  0.6431999999999998  0.38979999999999987  1.0000
  C   C24       1.0  0.8212999999999999  0.6727999999999997  0.4392  1.0000
  C   C25       1.0  0.2337  0.7452999999999997  0.3523  1.0000
  H   H17       1.0  0.2743  0.7233  0.3416  1.0000
  C   C26       1.0  0.17809999999999995  0.722  0.37569999999999987  1.0000
  H   H18       1.0  0.1808  0.6846  0.3813  1.0000
  C   C27       1.0  0.1184  0.7535999999999998  0.391  1.0000
  C   C28       1.0  0.11089999999999997  0.8065  0.37875  1.0000
  H   H19       1.0  0.06600000000000006  0.8285999999999999  0.386  1.0000
  C   C29       1.0  0.1695  0.8270999999999997  0.3557  1.0000
  H   H20       1.0  0.1646  0.8638999999999998  0.3478  1.0000
  C   C30       1.0  0.0644  0.7293999999999998  0.42119  1.0000
  C   C31       1.0  0.1762  0.8835  0.7032999999999999  1.0000
  H   H21       1.0  0.1632  0.8802999999999997  0.7324  1.0000
  C   C32       1.0  0.11969999999999986  0.8567  0.6648999999999998  1.0000
  H   H22       1.0  0.06910000000000005  0.8358  0.6676  1.0000
  C   C33       1.0  0.13770000000000004  0.8609  0.622  1.0000
  C   C34       1.0  0.21429999999999988  0.8899  0.6204999999999998  1.0000
  H   H23       1.0  0.2305  0.8918999999999999  0.5922  1.0000
  C   C35       1.0  0.2675999999999999  0.9161999999999999  0.6608999999999998  1.0000
  H   H24       1.0  0.3195  0.9366999999999998  0.6592  1.0000
  C   C36       1.0  0.0763  0.8321999999999999  0.5789  1.0000
  C   C37       1.0  0.7167  0.7618  0.3423  1.0000
  H   H25       1.0  0.6642  0.7434999999999999  0.346  1.0000
  C   C38       1.0  0.7674999999999998  0.7942  0.3788899999999999  1.0000
  H   H26       1.0  0.7501  0.7981  0.4068  1.0000
  C   C39       1.0  0.8439999999999999  0.8208999999999997  0.37392999999999993  1.0000
  C   C40       1.0  0.8627  0.8166999999999998  0.3315  1.0000
  H   H27       1.0  0.9117  0.8367999999999998  0.3259999999999999  1.0000
  C   C41       1.0  0.8095  0.7831  0.2974  1.0000
  H   H28       1.0  0.8244  0.7795999999999997  0.2687  1.0000
  C   C42       1.0  0.9064  0.8540999999999997  0.4133399999999999  1.0000
  C   C43       1.0  0.4202999999999999  0.0476  0.6052999999999997  1.0000
  H   H29       1.0  0.4799  0.0446  0.601  1.0000
  C   C44       1.0  0.3469  0.0202  0.5749  1.0000
  H   H30       1.0  0.3559  0.9983999999999997  0.5505  1.0000
  C   C45       1.0  0.2595  0.0253  0.5808  1.0000
  C   C46       1.0  0.2504000000000001  0.0548  0.6176  1.0000
  H   H31       1.0  0.1917  0.057699999999999994  0.6230999999999999  1.0000
  C   C47       1.0  0.3278  0.08059999999999999  0.64706  1.0000
  H   H32       1.0  0.3211  0.10079999999999997  0.6728  1.0000
  C   C48       1.0  0.1785  0.9959  0.54752  1.0000
  C   C49       1.0  0.1799  0.1399  0.369  1.0000
  H   H33       1.0  0.1725  0.1768  0.3614  1.0000
  C   C50       1.0  0.12570000000000006  0.11769999999999999  0.3937  1.0000
  H   H34       1.0  0.08379999999999994  0.1395  0.4036999999999999  1.0000
  C   C51       1.0  0.1318  0.06459999999999999  0.4039  1.0000
  C   C52       1.0  0.19579999999999995  0.0355  0.3895999999999999  1.0000
  H   H35       1.0  0.20210000000000006  0.9981999999999999  0.3956  1.0000
  C   C53       1.0  0.2505  0.06059999999999999  0.3667  1.0000
  H   H36       1.0  0.2965  0.0404  0.3584  1.0000
  C   C54       1.0  0.07699999999999994  0.039199999999999985  0.43269999999999986  1.0000
  Pr  Pr4       1.0  0.95849  0.09996999999999998  0.03527  1.0000
  Pr  Pr5       1.0  0.04327000000000002  0.2591  0.99612  1.0000
  Pr  Pr6       1.0  0.96642  0.4236199999999999  0.01491  1.0000
  I   I13       1.0  0.67227  0.06718  0.6838599999999999  1.0000
  I   I14       1.0  0.47779  0.14482  0.76064  1.0000
  I   I15       1.0  0.51239  0.2118  0.6269399999999999  1.0000
  I   I16       1.0  0.74063  0.21885999999999994  0.76966  1.0000
  I   I17       1.0  0.5022199999999999  0.31160999999999994  0.7401099999999998  1.0000
  I   I18       1.0  0.3158  0.24906999999999999  0.82795  1.0000
  I   I19       1.0  0.2578199999999999  0.10335999999999997  0.23503  1.0000
  I   I20       1.0  0.49648  0.39191  0.87204  1.0000
  I   I21       1.0  0.5128099999999998  0.47889999999999994  0.7505399999999999  1.0000
  I   I22       1.0  0.6959599999999998  0.41135  0.6642099999999997  1.0000
  I   I23       1.0  0.52865  0.9451399999999999  0.11902  1.0000
  I   I24       1.0  0.77345  0.55547  0.75322  1.0000
  Cu  Cu13      1.0  0.6510699999999998  0.12281999999999997  0.7576999999999998  1.0000
  Cu  Cu14      1.0  0.5172  0.12317999999999997  0.68027  1.0000
  Cu  Cu15      1.0  0.67713  0.17056  0.68566  1.0000
  Cu  Cu16      1.0  0.56396  0.21874999999999994  0.72084  1.0000
  Cu  Cu17      1.0  0.46878  0.29579  0.82356  1.0000
  Cu  Cu18      1.0  0.33074999999999993  0.20177  0.24720999999999996  1.0000
  Cu  Cu19      1.0  0.32351  0.3535399999999999  0.82165  1.0000
  Cu  Cu20      1.0  0.43609999999999993  0.39427999999999996  0.7798199999999997  1.0000
  Cu  Cu21      1.0  0.68166  0.4610599999999999  0.74282  1.0000
  Cu  Cu22      1.0  0.5401400000000002  0.03951  0.16594  1.0000
  Cu  Cu23      1.0  0.29745  0.01629  0.83424  1.0000
  Cu  Cu24      1.0  0.4071399999999999  0.05643999999999999  0.7882699999999998  1.0000
  O   O19       1.0  0.877  0.02979  0.98294  1.0000
  O   O20       1.0  0.9353999999999998  0.9716599999999997  0.9428199999999998  1.0000
  O   O21       1.0  0.8207  0.14484  0.9803199999999997  1.0000
  O   O22       1.0  0.8978  0.21664  0.9692  1.0000
  O   O23       1.0  0.0119  0.10801999999999999  0.96498  1.0000
  O   O24       1.0  0.07330000000000002  0.18537  0.951  1.0000
  O   O25       1.0  0.10130000000000002  0.153  0.05736  1.0000
  O   O26       1.0  0.1894  0.21716  0.04441  1.0000
  O   O27       1.0  0.9244  0.18105  0.07058  1.0000
  O   O28       1.0  0.9857  0.26038999999999995  0.06371  1.0000
  O   O29       1.0  0.9759  0.29634  0.9147999999999997  1.0000
  O   O30       1.0  0.9194  0.34436999999999995  0.96183  1.0000
  O   O31       1.0  0.09270000000000002  0.3447899999999999  0.0442  1.0000
  O   O32       1.0  0.04469999999999998  0.3892399999999999  0.09642999999999997  1.0000
  O   O33       1.0  0.8048  0.4543  0.97075  1.0000
  O   O34       1.0  0.9026999999999997  0.514  0.9598099999999998  1.0000
  O   O35       1.0  0.965  0.5711399999999999  0.04802  1.0000
  O   O36       1.0  0.9209  0.48982  0.06339  1.0000
  N   N10       1.0  0.7167  0.07902  0.81467  1.0000
  N   N11       1.0  0.5783  0.25409  0.86369  1.0000
  N   N12       1.0  0.2165  0.05342  0.86875  1.0000
  N   N13       1.0  0.4272  0.08351999999999997  0.13133  1.0000
  N   N14       1.0  0.7675  0.2980999999999999  0.1559  1.0000
  N   N15       1.0  0.751  0.41389999999999993  0.79776  1.0000
  N   N16       1.0  0.2627  0.2549  0.19759  1.0000
  N   N17       1.0  0.5885999999999999  0.57825  0.8593299999999998  1.0000
  N   N18       1.0  0.7587  0.6127999999999999  0.14459999999999995  1.0000
  C   C55       1.0  0.7001  0.08949999999999997  0.8555  1.0000
  H   H37       1.0  0.6506  0.11309999999999998  0.8550999999999997  1.0000
  C   C56       1.0  0.7515  0.0675  0.89816  1.0000
  H   H38       1.0  0.7367  0.07539999999999998  0.9262  1.0000
  C   C57       1.0  0.8249  0.0339  0.8993  1.0000
  C   C58       1.0  0.8404  0.0212  0.8570999999999998  1.0000
  H   H39       1.0  0.8882  0.9967  0.8565  1.0000
  C   C59       1.0  0.786  0.04439999999999999  0.8159999999999997  1.0000
  H   H40       1.0  0.7976999999999997  0.035699999999999996  0.7871999999999998  1.0000
  C   C60       1.0  0.8840999999999999  0.0102  0.9455199999999998  1.0000
  C   C61       1.0  0.5729  0.21419999999999997  0.8931  1.0000
  H   H41       1.0  0.5130999999999998  0.2012  0.8918999999999998  1.0000
  C   C62       1.0  0.6503999999999999  0.1916  0.9249999999999998  1.0000
  H   H42       1.0  0.6437999999999999  0.1639  0.9455999999999998  1.0000
  C   C63       1.0  0.7381000000000002  0.20989999999999995  0.92651  1.0000
  C   C64       1.0  0.7439  0.24899999999999997  0.8947999999999999  1.0000
  H   H43       1.0  0.8029  0.2615  0.894  1.0000
  C   C65       1.0  0.6631  0.2697  0.8642  1.0000
  H   H44       1.0  0.668  0.2964  0.8424  1.0000
  C   C66       1.0  0.8254999999999999  0.1883  0.96154  1.0000
  C   C67       1.0  0.15980000000000003  0.027  0.8878  1.0000
  H   H45       1.0  0.1539999999999999  0.9895  0.8835  1.0000
  C   C68       1.0  0.10899999999999996  0.0518  0.9135  1.0000
  H   H46       1.0  0.07030000000000008  0.03149999999999999  0.9269  1.0000
  C   C69       1.0  0.11560000000000013  0.1067  0.91934  1.0000
  C   C70       1.0  0.17190000000000008  0.13449999999999998  0.8983  1.0000
  H   H47       1.0  0.1763999999999999  0.1722  0.9007  1.0000
  C   C71       1.0  0.2213000000000001  0.1065  0.8739  1.0000
  H   H48       1.0  0.2605000000000001  0.1259  0.8602  1.0000
  C   C72       1.0  0.0620000000000001  0.1354  0.94753  1.0000
  C   C73       1.0  0.3424  0.0669  0.1312  1.0000
  H   H49       1.0  0.3381  0.0347  0.1473  1.0000
  C   C74       1.0  0.261  0.09399999999999997  0.1089  1.0000
  H   H50       1.0  0.20250000000000004  0.08039999999999997  0.1093  1.0000
  C   C75       1.0  0.266  0.14129999999999998  0.086  1.0000
  C   C76       1.0  0.3531  0.1596  0.0866  1.0000
  H   H51       1.0  0.3592  0.19209999999999997  0.0713  1.0000
  C   C77       1.0  0.43089999999999995  0.13  0.10969999999999998  1.0000
  H   H52       1.0  0.4902  0.14319999999999997  0.11019999999999998  1.0000
  C   C78       1.0  0.1787  0.17279999999999995  0.0608  1.0000
  C   C79       1.0  0.7663  0.24529999999999996  0.1477  1.0000
  H   H53       1.0  0.7257000000000001  0.22329999999999994  0.1584  1.0000
  C   C80       1.0  0.8219  0.22199999999999998  0.1243  1.0000
  H   H54       1.0  0.8192  0.1846  0.1187  1.0000
  C   C81       1.0  0.8815999999999999  0.25359999999999994  0.10899999999999997  1.0000
  C   C82       1.0  0.8891  0.3065  0.12125  1.0000
  H   H55       1.0  0.934  0.3286  0.114  1.0000
  C   C83       1.0  0.8305  0.3271  0.1443  1.0000
  H   H56       1.0  0.8354  0.3639  0.1522  1.0000
  C   C84       1.0  0.9356  0.22939999999999997  0.07880999999999998  1.0000
  C   C85       1.0  0.8238  0.3834999999999999  0.7967  1.0000
  H   H57       1.0  0.8367999999999999  0.3802999999999999  0.7675999999999998  1.0000
  C   C86       1.0  0.8803000000000002  0.35669999999999996  0.8351  1.0000
  H   H58       1.0  0.9309  0.33579999999999993  0.8324  1.0000
  C   C87       1.0  0.8623  0.36089999999999994  0.8779999999999998  1.0000
  C   C88       1.0  0.7857  0.38989999999999997  0.8795  1.0000
  H   H59       1.0  0.7694999999999997  0.3918999999999999  0.9077999999999998  1.0000
  C   C89       1.0  0.7324  0.4162  0.8391  1.0000
  H   H60       1.0  0.6804999999999999  0.43669999999999987  0.8407999999999999  1.0000
  C   C90       1.0  0.9237000000000001  0.3321999999999999  0.9211  1.0000
  C   C91       1.0  0.2833  0.2618  0.1577  1.0000
  H   H61       1.0  0.3358  0.24349999999999994  0.154  1.0000
  C   C92       1.0  0.2325  0.2942  0.12110999999999997  1.0000
  H   H62       1.0  0.2499  0.2980999999999999  0.0932  1.0000
  C   C93       1.0  0.156  0.3208999999999999  0.12607  1.0000
  C   C94       1.0  0.1373  0.3167  0.1685  1.0000
  H   H63       1.0  0.0883  0.3367999999999999  0.174  1.0000
  C   C95       1.0  0.19049999999999997  0.28309999999999996  0.20259999999999995  1.0000
  H   H64       1.0  0.1756  0.27959999999999996  0.2313  1.0000
  C   C96       1.0  0.0936  0.3540999999999999  0.08666  1.0000
  C   C97       1.0  0.5797  0.5476  0.8947  1.0000
  H   H65       1.0  0.5201  0.5445999999999999  0.899  1.0000
  C   C98       1.0  0.6531  0.5201999999999999  0.9251  1.0000
  H   H66       1.0  0.6441000000000001  0.49839999999999995  0.9494999999999999  1.0000
  C   C99       1.0  0.7405  0.5253  0.9192  1.0000
  C   C100      1.0  0.7496  0.5547999999999998  0.8824  1.0000
  H   H67       1.0  0.8083  0.5576999999999999  0.8769  1.0000
  C   C101      1.0  0.6721999999999999  0.5806  0.8529399999999999  1.0000
  H   H68       1.0  0.6788999999999998  0.6007999999999999  0.8271999999999999  1.0000
  C   C102      1.0  0.8215  0.49589999999999995  0.95248  1.0000
  C   C103      1.0  0.8201  0.6399  0.131  1.0000
  H   H69       1.0  0.8275000000000001  0.6768  0.1386  1.0000
  C   C104      1.0  0.8743  0.6177  0.10629999999999999  1.0000
  H   H70       1.0  0.9162  0.6394999999999998  0.0963  1.0000
  C   C105      1.0  0.8682  0.5646  0.0961  1.0000
  C   C106      1.0  0.8042  0.5355  0.1104  1.0000
  H   H71       1.0  0.7979000000000003  0.49819999999999987  0.10439999999999998  1.0000
  C   C107      1.0  0.7495  0.5606  0.1333  1.0000
  H   H72       1.0  0.7035  0.5403999999999999  0.1416  1.0000
  C   C108      1.0  0.923  0.5392  0.0673  1.0000
  Pr  Pr7       1.0  0.95849  0.4000299999999999  0.53527  1.0000
  Pr  Pr8       1.0  0.04327000000000002  0.24089999999999998  0.49612  1.0000
  Pr  Pr9       1.0  0.96642  0.07638  0.51491  1.0000
  I   I25       1.0  0.67227  0.4328199999999999  0.18386  1.0000
  I   I26       1.0  0.47779  0.35518  0.26064  1.0000
  I   I27       1.0  0.51239  0.28819999999999996  0.12694  1.0000
  I   I28       1.0  0.74063  0.28114  0.26966  1.0000
  I   I29       1.0  0.50222  0.18839  0.24011  1.0000
  I   I30       1.0  0.31579999999999997  0.25093  0.32794999999999996  1.0000
  I   I31       1.0  0.2578199999999998  0.39663999999999994  0.7350299999999999  1.0000
  I   I32       1.0  0.49648  0.10809  0.37204  1.0000
  I   I33       1.0  0.5128099999999998  0.021099999999999997  0.25054  1.0000
  I   I34       1.0  0.6959599999999999  0.08864999999999999  0.16420999999999994  1.0000
  I   I35       1.0  0.52865  0.5548599999999999  0.61902  1.0000
  I   I36       1.0  0.77345  0.94452  0.25322  1.0000
  Cu  Cu25      1.0  0.65107  0.3771799999999999  0.2577  1.0000
  Cu  Cu26      1.0  0.5172  0.37682  0.18027  1.0000
  Cu  Cu27      1.0  0.67713  0.3294399999999999  0.18565999999999994  1.0000
  Cu  Cu28      1.0  0.56396  0.28125  0.22083999999999995  1.0000
  Cu  Cu29      1.0  0.46878000000000003  0.20420999999999995  0.32356  1.0000
  Cu  Cu30      1.0  0.33075  0.29822999999999994  0.74721  1.0000
  Cu  Cu31      1.0  0.32351  0.14646  0.32165  1.0000
  Cu  Cu32      1.0  0.4361  0.10571999999999998  0.27982  1.0000
  Cu  Cu33      1.0  0.6816600000000002  0.03894  0.24282  1.0000
  Cu  Cu34      1.0  0.5401400000000002  0.46048999999999995  0.66594  1.0000
  Cu  Cu35      1.0  0.29745  0.48371  0.33424  1.0000
  Cu  Cu36      1.0  0.40714  0.44355999999999995  0.28827  1.0000
  O   O37       1.0  0.877  0.47020999999999996  0.48293999999999987  1.0000
  O   O38       1.0  0.9353999999999999  0.52834  0.44282  1.0000
  O   O39       1.0  0.8207  0.3551599999999999  0.4803199999999999  1.0000
  O   O40       1.0  0.8978  0.28335999999999995  0.4692  1.0000
  O   O41       1.0  0.0119  0.3919799999999999  0.46498  1.0000
  O   O42       1.0  0.07329999999999999  0.31463  0.451  1.0000
  O   O43       1.0  0.10129999999999999  0.34699999999999986  0.55736  1.0000
  O   O44       1.0  0.18940000000000007  0.28284  0.54441  1.0000
  O   O45       1.0  0.9244  0.31894999999999996  0.57058  1.0000
  O   O46       1.0  0.9856999999999999  0.23961  0.56371  1.0000
  O   O47       1.0  0.9759000000000001  0.20365999999999995  0.4147999999999999  1.0000
  O   O48       1.0  0.9194  0.15562999999999996  0.46183  1.0000
  O   O49       1.0  0.09270000000000002  0.15521  0.5442  1.0000
  O   O50       1.0  0.044700000000000024  0.11076  0.59643  1.0000
  O   O51       1.0  0.8048  0.0457  0.47075  1.0000
  O   O52       1.0  0.9027  0.9859999999999998  0.45980999999999994  1.0000
  O   O53       1.0  0.965  0.9288599999999999  0.54802  1.0000
  O   O54       1.0  0.9209  0.010179999999999996  0.56339  1.0000
  N   N19       1.0  0.7167  0.4209799999999999  0.3146699999999999  1.0000
  N   N20       1.0  0.5783  0.24590999999999996  0.36369  1.0000
  N   N21       1.0  0.2165  0.44658  0.36875  1.0000
  N   N22       1.0  0.4271999999999999  0.4164799999999999  0.6313299999999998  1.0000
  N   N23       1.0  0.7675  0.2019  0.6558999999999999  1.0000
  N   N24       1.0  0.7509999999999999  0.0861  0.29775999999999997  1.0000
  N   N25       1.0  0.2627  0.24509999999999996  0.69759  1.0000
  N   N26       1.0  0.5886  0.9217499999999997  0.35933  1.0000
  N   N27       1.0  0.7587  0.8871999999999999  0.6446  1.0000
  C   C109      1.0  0.7001  0.4105  0.35549999999999987  1.0000
  H   H73       1.0  0.6506  0.3869  0.3551  1.0000
  C   C110      1.0  0.7515  0.4324999999999999  0.39815999999999996  1.0000
  H   H74       1.0  0.7367  0.4246  0.42619999999999997  1.0000
  C   C111      1.0  0.8249  0.4660999999999999  0.3993  1.0000
  C   C112      1.0  0.8404  0.4787999999999999  0.3571  1.0000
  H   H75       1.0  0.8881999999999999  0.5032999999999999  0.3564999999999999  1.0000
  C   C113      1.0  0.786  0.45559999999999995  0.316  1.0000
  H   H76       1.0  0.7977  0.4642999999999999  0.28719999999999996  1.0000
  C   C114      1.0  0.8840999999999999  0.4897999999999999  0.44551999999999997  1.0000
  C   C115      1.0  0.5729  0.2858  0.3930999999999999  1.0000
  H   H77       1.0  0.5131  0.29879999999999995  0.39189999999999997  1.0000
  C   C116      1.0  0.6504  0.30839999999999995  0.425  1.0000
  H   H78       1.0  0.6437999999999999  0.3360999999999999  0.4455999999999999  1.0000
  C   C117      1.0  0.7381000000000002  0.2901  0.42650999999999994  1.0000
  C   C118      1.0  0.7439  0.251  0.3948  1.0000
  H   H79       1.0  0.8029  0.23849999999999993  0.394  1.0000
  C   C119      1.0  0.6631  0.23029999999999998  0.3642  1.0000
  H   H80       1.0  0.668  0.20359999999999998  0.34239999999999987  1.0000
  C   C120      1.0  0.8254999999999999  0.3116999999999999  0.4615399999999999  1.0000
  C   C121      1.0  0.15979999999999997  0.473  0.38779999999999987  1.0000
  H   H81       1.0  0.154  0.5105  0.3835  1.0000
  C   C122      1.0  0.10900000000000001  0.44819999999999993  0.4135  1.0000
  H   H82       1.0  0.07029999999999992  0.4685  0.4268999999999999  1.0000
  C   C123      1.0  0.11559999999999998  0.39329999999999987  0.41934  1.0000
  C   C124      1.0  0.17190000000000003  0.36549999999999994  0.3983  1.0000
  H   H83       1.0  0.17639999999999995  0.3278  0.4006999999999999  1.0000
  C   C125      1.0  0.2213  0.3935  0.3739  1.0000
  H   H84       1.0  0.2605000000000001  0.3741  0.3602  1.0000
  C   C126      1.0  0.061999999999999944  0.3646  0.4475299999999999  1.0000
  C   C127      1.0  0.3424  0.4331  0.6312  1.0000
  H   H85       1.0  0.3381  0.4652999999999999  0.6472999999999999  1.0000
  C   C128      1.0  0.2609999999999999  0.406  0.6088999999999998  1.0000
  H   H86       1.0  0.2025000000000001  0.4196  0.6093  1.0000
  C   C129      1.0  0.26599999999999996  0.3586999999999999  0.5859999999999999  1.0000
  C   C130      1.0  0.3531  0.3403999999999999  0.5866  1.0000
  H   H87       1.0  0.3592  0.3079  0.5713  1.0000
  C   C131      1.0  0.4309  0.3699999999999999  0.6097  1.0000
  H   H88       1.0  0.49019999999999997  0.3568  0.6101999999999999  1.0000
  C   C132      1.0  0.1787  0.3271999999999999  0.5608  1.0000
  C   C133      1.0  0.7663  0.2547  0.6477  1.0000
  H   H89       1.0  0.7257000000000001  0.2767  0.6584  1.0000
  C   C134      1.0  0.8219  0.27799999999999997  0.6243  1.0000
  H   H90       1.0  0.8192  0.3153999999999999  0.6187  1.0000
  C   C135      1.0  0.8816  0.2464  0.609  1.0000
  C   C136      1.0  0.8891  0.19349999999999995  0.62125  1.0000
  H   H91       1.0  0.934  0.17139999999999994  0.614  1.0000
  C   C137      1.0  0.8305  0.1729  0.6443  1.0000
  H   H92       1.0  0.8354  0.1361  0.6522  1.0000
  C   C138      1.0  0.9356  0.2706  0.57881  1.0000
  C   C139      1.0  0.8238  0.1165  0.2967  1.0000
  H   H93       1.0  0.8368  0.11969999999999997  0.2676  1.0000
  C   C140      1.0  0.8802999999999999  0.1433  0.3350999999999999  1.0000
  H   H94       1.0  0.9309  0.16419999999999996  0.3324  1.0000
  C   C141      1.0  0.8623  0.1391  0.37799999999999995  1.0000
  C   C142      1.0  0.7857  0.11009999999999998  0.3794999999999999  1.0000
  H   H95       1.0  0.7695  0.1081  0.4078  1.0000
  C   C143      1.0  0.7324  0.0838  0.3391  1.0000
  H   H96       1.0  0.6805  0.06329999999999998  0.3408  1.0000
  C   C144      1.0  0.9237  0.1678  0.42109999999999986  1.0000
  C   C145      1.0  0.2833  0.23819999999999994  0.6577  1.0000
  H   H97       1.0  0.3358  0.2565  0.654  1.0000
  C   C146      1.0  0.2324999999999999  0.2058  0.6211099999999998  1.0000
  H   H98       1.0  0.24989999999999998  0.2019  0.5932  1.0000
  C   C147      1.0  0.15599999999999994  0.1791  0.62607  1.0000
  C   C148      1.0  0.13729999999999995  0.1833  0.6684999999999999  1.0000
  H   H99       1.0  0.0883  0.1632  0.674  1.0000
  C   C149      1.0  0.19050000000000006  0.2169  0.7026  1.0000
  H   H100      1.0  0.17559999999999998  0.22039999999999998  0.7313  1.0000
  C   C150      1.0  0.09360000000000002  0.1459  0.58666  1.0000
  C   C151      1.0  0.5797  0.9524  0.3947  1.0000
  H   H101      1.0  0.5201  0.9553999999999998  0.399  1.0000
  C   C152      1.0  0.6531  0.9797999999999999  0.4251  1.0000
  H   H102      1.0  0.6441000000000001  0.0015999999999999996  0.4495  1.0000
  C   C153      1.0  0.7405  0.9747  0.4192  1.0000
  C   C154      1.0  0.7496  0.9451999999999999  0.3824  1.0000
  H   H103      1.0  0.8083  0.9423  0.3769  1.0000
  C   C155      1.0  0.6722  0.9193999999999998  0.35294  1.0000
  H   H104      1.0  0.6789  0.8991999999999999  0.3272  1.0000
  C   C156      1.0  0.8215  0.0041  0.4524799999999999  1.0000
  C   C157      1.0  0.8201  0.8601  0.631  1.0000
  H   H105      1.0  0.8275000000000001  0.8232  0.6386  1.0000
  C   C158      1.0  0.8742999999999997  0.8822999999999998  0.6062999999999997  1.0000
  H   H106      1.0  0.9161999999999999  0.8604999999999998  0.5962999999999998  1.0000
  C   C159      1.0  0.8682  0.9354  0.5961  1.0000
  C   C160      1.0  0.8042  0.9644999999999998  0.6104  1.0000
  H   H107      1.0  0.7979000000000003  0.0017999999999999995  0.6044  1.0000
  C   C161      1.0  0.7495  0.9393999999999998  0.6333  1.0000
  H   H108      1.0  0.7035  0.9595999999999998  0.6416  1.0000
  C   C162      1.0  0.923  0.9608  0.5673  1.0000
  Pr  Pr10      1.0  0.04150999999999986  0.9000299999999998  0.9647299999999998  1.0000
  Pr  Pr11      1.0  0.95673  0.7409  0.0038799999999999998  1.0000
  Pr  Pr12      1.0  0.03357999999999998  0.57638  0.98509  1.0000
  I   I37       1.0  0.32773  0.93282  0.31614  1.0000
  I   I38       1.0  0.52221  0.8551799999999998  0.23936  1.0000
  I   I39       1.0  0.48761  0.7881999999999998  0.37306  1.0000
  I   I40       1.0  0.25937  0.7811399999999998  0.23034  1.0000
  I   I41       1.0  0.49778000000000006  0.6883899999999998  0.25989  1.0000
  I   I42       1.0  0.6842  0.75093  0.17205  1.0000
  I   I43       1.0  0.74218  0.8966399999999998  0.76497  1.0000
  I   I44       1.0  0.50352  0.6080899999999999  0.12795  1.0000
  I   I45       1.0  0.48718999999999996  0.5211  0.24945999999999993  1.0000
  I   I46       1.0  0.3040399999999999  0.5886499999999999  0.3357899999999999  1.0000
  I   I47       1.0  0.47135000000000005  0.05486  0.8809799999999999  1.0000
  I   I48       1.0  0.22655  0.44451999999999997  0.24678  1.0000
  Cu  Cu37      1.0  0.34893  0.87718  0.2423  1.0000
  Cu  Cu38      1.0  0.4828  0.8768199999999999  0.31972999999999996  1.0000
  Cu  Cu39      1.0  0.32287  0.8294399999999997  0.31434  1.0000
  Cu  Cu40      1.0  0.43604  0.78125  0.27916  1.0000
  Cu  Cu41      1.0  0.53122  0.7042099999999999  0.17643999999999996  1.0000
  Cu  Cu42      1.0  0.6692499999999999  0.7982299999999998  0.7527899999999997  1.0000
  Cu  Cu43      1.0  0.67649  0.64646  0.17835  1.0000
  Cu  Cu44      1.0  0.5639  0.6057199999999999  0.22018  1.0000
  Cu  Cu45      1.0  0.31834  0.53894  0.25718  1.0000
  Cu  Cu46      1.0  0.4598599999999999  0.9604899999999997  0.8340599999999998  1.0000
  Cu  Cu47      1.0  0.70255  0.9837099999999999  0.16576  1.0000
  Cu  Cu48      1.0  0.59286  0.9435599999999997  0.21173  1.0000
  O   O55       1.0  0.12300000000000003  0.97021  0.01706  1.0000
  O   O56       1.0  0.0646  0.028339999999999994  0.05718  1.0000
  O   O57       1.0  0.1793  0.85516  0.01968  1.0000
  O   O58       1.0  0.10219999999999999  0.7833599999999997  0.030799999999999998  1.0000
  O   O59       1.0  0.9881  0.8919799999999999  0.03502  1.0000
  O   O60       1.0  0.9267  0.8146299999999999  0.049  1.0000
  O   O61       1.0  0.8987  0.847  0.94264  1.0000
  O   O62       1.0  0.8106  0.7828399999999998  0.95559  1.0000
  O   O63       1.0  0.07559999999999997  0.81895  0.92942  1.0000
  O   O64       1.0  0.014299999999999967  0.7396099999999999  0.9362899999999998  1.0000
  O   O65       1.0  0.0241  0.70366  0.0852  1.0000
  O   O66       1.0  0.0806  0.6556299999999998  0.03817  1.0000
  O   O67       1.0  0.9072999999999998  0.6552099999999997  0.9557999999999999  1.0000
  O   O68       1.0  0.9552999999999998  0.61076  0.9035699999999998  1.0000
  O   O69       1.0  0.1952  0.5456999999999999  0.02925  1.0000
  O   O70       1.0  0.0973  0.48599999999999993  0.04019  1.0000
  O   O71       1.0  0.03500000000000004  0.42886  0.95198  1.0000
  O   O72       1.0  0.07909999999999986  0.51018  0.9366099999999998  1.0000
  N   N28       1.0  0.2833  0.9209799999999999  0.18533  1.0000
  N   N29       1.0  0.42170000000000013  0.74591  0.13631  1.0000
  N   N30       1.0  0.7835  0.94658  0.13125  1.0000
  N   N31       1.0  0.5728  0.91648  0.86867  1.0000
  N   N32       1.0  0.2325  0.7019  0.8441  1.0000
  N   N33       1.0  0.249  0.5861  0.20224  1.0000
  N   N34       1.0  0.7373  0.7451  0.8024099999999997  1.0000
  N   N35       1.0  0.4114  0.4217499999999999  0.14067  1.0000
  N   N36       1.0  0.24129999999999985  0.3872  0.8553999999999998  1.0000
  C   C163      1.0  0.2999  0.9104999999999998  0.1445  1.0000
  H   H109      1.0  0.3494  0.8868999999999999  0.1449  1.0000
  C   C164      1.0  0.2485  0.9324999999999998  0.10184  1.0000
  H   H110      1.0  0.2633  0.9245999999999999  0.0738  1.0000
  C   C165      1.0  0.17510000000000006  0.9661  0.1007  1.0000
  C   C166      1.0  0.1596  0.9787999999999998  0.1429  1.0000
  H   H111      1.0  0.1118  0.0032999999999999995  0.1435  1.0000
  C   C167      1.0  0.214  0.9555999999999998  0.184  1.0000
  H   H112      1.0  0.20230000000000004  0.9642999999999998  0.2128  1.0000
  C   C168      1.0  0.1159  0.9898  0.054479999999999994  1.0000
  C   C169      1.0  0.4271  0.7858  0.1069  1.0000
  H   H113      1.0  0.4869  0.7987999999999998  0.1081  1.0000
  C   C170      1.0  0.3496  0.8084  0.075  1.0000
  H   H114      1.0  0.3562  0.8361  0.05439999999999998  1.0000
  C   C171      1.0  0.2619  0.7900999999999999  0.07348999999999999  1.0000
  C   C172      1.0  0.2561  0.751  0.1052  1.0000
  H   H115      1.0  0.1971  0.7384999999999999  0.106  1.0000
  C   C173      1.0  0.3369  0.7302999999999997  0.1358  1.0000
  H   H116      1.0  0.332  0.7036  0.15759999999999996  1.0000
  C   C174      1.0  0.1745  0.8116999999999998  0.03846  1.0000
  C   C175      1.0  0.8402  0.9729999999999998  0.1122  1.0000
  H   H117      1.0  0.846  0.0105  0.11649999999999998  1.0000
  C   C176      1.0  0.891  0.9482  0.0865  1.0000
  H   H118      1.0  0.9297  0.9684999999999998  0.0731  1.0000
  C   C177      1.0  0.8844  0.8933  0.08066  1.0000
  C   C178      1.0  0.8281  0.8654999999999998  0.1017  1.0000
  H   H119      1.0  0.8236  0.8277999999999999  0.0993  1.0000
  C   C179      1.0  0.7787  0.8934999999999997  0.1261  1.0000
  H   H120      1.0  0.7395  0.8740999999999999  0.1398  1.0000
  C   C180      1.0  0.938  0.8645999999999999  0.05247  1.0000
  C   C181      1.0  0.6576  0.9331  0.8688  1.0000
  H   H121      1.0  0.6619  0.9652999999999999  0.8527  1.0000
  C   C182      1.0  0.739  0.9059999999999998  0.8911  1.0000
  H   H122      1.0  0.7975  0.9195999999999999  0.8907  1.0000
  C   C183      1.0  0.734  0.8587  0.914  1.0000
  C   C184      1.0  0.6468999999999999  0.8403999999999998  0.9133999999999998  1.0000
  H   H123      1.0  0.6407999999999999  0.8079  0.9286999999999997  1.0000
  C   C185      1.0  0.5691  0.8699999999999998  0.8903  1.0000
  H   H124      1.0  0.5098000000000003  0.8567999999999999  0.8898  1.0000
  C   C186      1.0  0.8212999999999999  0.8271999999999999  0.9391999999999999  1.0000
  C   C187      1.0  0.2337  0.7546999999999999  0.8523  1.0000
  H   H125      1.0  0.27429999999999993  0.7767  0.8416  1.0000
  C   C188      1.0  0.1781  0.778  0.8757  1.0000
  H   H126      1.0  0.1807999999999998  0.8154  0.8812999999999998  1.0000
  C   C189      1.0  0.11840000000000012  0.7463999999999997  0.891  1.0000
  C   C190      1.0  0.11089999999999992  0.6935  0.8787499999999999  1.0000
  H   H127      1.0  0.066  0.6713999999999998  0.886  1.0000
  C   C191      1.0  0.16949999999999996  0.6729  0.8556999999999999  1.0000
  H   H128      1.0  0.16459999999999983  0.6360999999999999  0.8477999999999998  1.0000
  C   C192      1.0  0.0644  0.7705999999999998  0.92119  1.0000
  C   C193      1.0  0.1762  0.6165  0.2033  1.0000
  H   H129      1.0  0.16319999999999998  0.6197  0.23239999999999997  1.0000
  C   C194      1.0  0.1197  0.6433  0.16489999999999994  1.0000
  H   H130      1.0  0.06909999999999998  0.6642  0.1676  1.0000
  C   C195      1.0  0.13769999999999996  0.6391  0.12199999999999998  1.0000
  C   C196      1.0  0.2143  0.6101  0.1205  1.0000
  H   H131      1.0  0.2305  0.6081  0.0922  1.0000
  C   C197      1.0  0.2676  0.5837999999999999  0.1609  1.0000
  H   H132      1.0  0.3195  0.5633  0.1592  1.0000
  C   C198      1.0  0.0763  0.6677999999999997  0.0789  1.0000
  C   C199      1.0  0.7167  0.7382  0.8423  1.0000
  H   H133      1.0  0.6642  0.7564999999999997  0.846  1.0000
  C   C200      1.0  0.7675  0.7058  0.87889  1.0000
  H   H134      1.0  0.7500999999999999  0.7019  0.9067999999999998  1.0000
  C   C201      1.0  0.8439999999999999  0.6790999999999999  0.8739299999999998  1.0000
  C   C202      1.0  0.8627  0.6832999999999999  0.8315  1.0000
  H   H135      1.0  0.9117  0.6631999999999999  0.8259999999999997  1.0000
  C   C203      1.0  0.8095  0.7169  0.7973999999999999  1.0000
  H   H136      1.0  0.8244  0.7203999999999999  0.7687  1.0000
  C   C204      1.0  0.9064  0.6458999999999999  0.91334  1.0000
  C   C205      1.0  0.42029999999999995  0.4523999999999999  0.1053  1.0000
  H   H137      1.0  0.4799  0.4554  0.10099999999999999  1.0000
  C   C206      1.0  0.3469  0.4797999999999999  0.0749  1.0000
  H   H138      1.0  0.3559  0.5015999999999999  0.050499999999999996  1.0000
  C   C207      1.0  0.2595  0.47469999999999996  0.0808  1.0000
  C   C208      1.0  0.2504000000000001  0.4451999999999999  0.1176  1.0000
  H   H139      1.0  0.1917  0.4423  0.1231  1.0000
  C   C209      1.0  0.3278  0.4193999999999999  0.14705999999999994  1.0000
  H   H140      1.0  0.3211  0.3992  0.1728  1.0000
  C   C210      1.0  0.1785  0.5041  0.04752  1.0000
  C   C211      1.0  0.17989999999999984  0.36009999999999986  0.8689999999999998  1.0000
  H   H141      1.0  0.17249999999999982  0.3232  0.8613999999999998  1.0000
  C   C212      1.0  0.12570000000000012  0.38229999999999986  0.8937  1.0000
  H   H142      1.0  0.08379999999999992  0.3604999999999999  0.9037  1.0000
  C   C213      1.0  0.1318000000000001  0.4353999999999999  0.9039  1.0000
  C   C214      1.0  0.1957999999999998  0.46449999999999997  0.8895999999999997  1.0000
  H   H143      1.0  0.20210000000000014  0.5018  0.8956  1.0000
  C   C215      1.0  0.25049999999999983  0.43939999999999996  0.8666999999999998  1.0000
  H   H144      1.0  0.29649999999999976  0.4596  0.8583999999999998  1.0000
  C   C216      1.0  0.07699999999999979  0.4607999999999999  0.9326999999999998  1.0000
