data_image0
_chemical_formula_structural       PrCu5I5O8NCHCHC2HCHCNCHCHC2HCHCNCHCHC2HCHCNCHCHC2HCHCNCHCHC2HCHO2CPrCu5I5O8NCHCHC2HCHCNCHCHC2HCHCNCHCHC2HCHCNCHCHC2HCHCNCHCHC2HCHO2CPrCu5I5O8NCHCHC2HCHCNCHCHC2HCHCNCHCHC2HCHCNCHCHC2HCHCNCHCHC2HCHO2CPrCu5I5O8NCHCHC2HCHCNCHCHC2HCHCNCHCHC2HCHCNCHCHC2HCHCNCHCHC2HCHO2CPrCu5I5O8NCHCHC2HCHCNCHCHC2HCHCNCHCHC2HCHCNCHCHC2HCHCNCHCHC2HCHO2CPrCu5I5O8NCHCHC2HCHCNCHCHC2HCHCNCHCHC2HCHCNCHCHC2HCHCNCHCHC2HCHO2CPrCu5I5O8NCHCHC2HCHCNCHCHC2HCHCNCHCHC2HCHCNCHCHC2HCHCNCHCHC2HCHO2CPrCu5I5O8NCHCHC2HCHCNCHCHC2HCHCNCHCHC2HCHCNCHCHC2HCHCNCHCHC2HCHO2CCu2I2PrCu2I2PrCu2I2PrCu2I2PrK4
_chemical_formula_sum              "Pr12 Cu48 I48 O80 N40 C240 H160 K4"
_cell_length_a       30.332
_cell_length_b       46.354
_cell_length_c       18.13
_cell_angle_alpha    90.0
_cell_angle_beta     116.729
_cell_angle_gamma    90.0

_symmetry_space_group_name_H-M    'P 1'
_symmetry_Int_Tables_number       1

loop_
  _symmetry_equiv_pos_as_xyz
  'x,y,z'

loop_
  _atom_site_type_symbol
  _atom_site_label
  _atom_site_symmetry_multiplicity
  _atom_site_fract_x
  _atom_site_fract_y
  _atom_site_fract_z
  _atom_site_occupancy
  Pr  Pr1       1.0  0.9275300000000002  0.82788  0.76702  1.0000
  Cu  Cu1       1.0  0.69395  0.84907  0.0869  1.0000
  Cu  Cu2       1.0  0.7664  0.8195699999999998  0.0888  1.0000
  Cu  Cu3       1.0  0.74506  0.81331  0.2092  1.0000
  Cu  Cu4       1.0  0.6829200000000002  0.7932799999999999  0.0691  1.0000
  Cu  Cu5       1.0  0.14489999999999997  0.97192  0.8052  1.0000
  I   I1        1.0  0.21909  0.047969999999999985  0.7777  1.0000
  I   I2        1.0  0.6757300000000003  0.82639  0.94319  1.0000
  I   I3        1.0  0.7714100000000003  0.76705  0.14805  1.0000
  I   I4        1.0  0.7874100000000003  0.86323  0.18995  1.0000
  I   I5        1.0  0.6505300000000003  0.81931  0.16905  1.0000
  O   O1        1.0  0.9095  0.8463  0.8854  1.0000
  O   O2        1.0  0.8613000000000002  0.8133  0.8074  1.0000
  O   O3        1.0  0.9885000000000005  0.8053  0.9004  1.0000
  O   O4        1.0  0.009099999999999992  0.8027999999999997  0.7983  1.0000
  O   O5        1.0  0.8485  0.8228  0.6358  1.0000
  O   O6        1.0  0.9143000000000004  0.8114999999999999  0.6238  1.0000
  O   O7        1.0  0.994  0.8653  0.8476  1.0000
  O   O8        1.0  0.9783  0.8603999999999998  0.7157  1.0000
  N   N1        1.0  0.809  0.8207  0.0306  1.0000
  C   C1        1.0  0.8441000000000002  0.842  0.0453  1.0000
  H   H1        1.0  0.8529  0.8547  0.0908  1.0000
  C   C2        1.0  0.8663000000000004  0.8448  0.9932  1.0000
  H   H2        1.0  0.8903  0.8593999999999999  0.0032  1.0000
  C   C3        1.0  0.8534000000000004  0.8262  0.9265000000000002  1.0000
  C   C4        1.0  0.8182  0.8048  0.9119  1.0000
  H   H3        1.0  0.8094  0.7921  0.8663  1.0000
  C   C5        1.0  0.796  0.8020999999999999  0.9639  1.0000
  H   H4        1.0  0.772  0.7874999999999998  0.9539  1.0000
  C   C6        1.0  0.8749000000000005  0.8287  0.8661000000000002  1.0000
  N   N2        1.0  0.1332  0.7383  0.0133  1.0000
  C   C7        1.0  0.1019  0.7487  0.0446  1.0000
  H   H5        1.0  0.10600000000000002  0.7423999999999998  0.0971  1.0000
  C   C8        1.0  0.06480000000000001  0.7682  0.9990000000000001  1.0000
  H   H6        1.0  0.04350000000000001  0.7752  0.0204  1.0000
  C   C9        1.0  0.05890000000000001  0.7773999999999998  0.9221  1.0000
  C   C10       1.0  0.09019999999999999  0.7671  0.8908  1.0000
  H   H7        1.0  0.08610000000000005  0.7732999999999999  0.8383  1.0000
  C   C11       1.0  0.1273000000000001  0.7475  0.9364000000000002  1.0000
  H   H8        1.0  0.1486  0.7405  0.915  1.0000
  C   C12       1.0  0.015299999999999994  0.7978  0.868  1.0000
  N   N3        1.0  0.78  0.8091  0.331  1.0000
  C   C13       1.0  0.7596  0.8193999999999998  0.3809  1.0000
  H   H9        1.0  0.7259000000000002  0.8250999999999997  0.3569  1.0000
  C   C14       1.0  0.7884000000000002  0.8213  0.4658  1.0000
  H   H10       1.0  0.7744  0.8283999999999998  0.49989999999999996  1.0000
  C   C15       1.0  0.8377000000000002  0.8129999999999997  0.5009  1.0000
  C   C16       1.0  0.8581000000000002  0.8027  0.4511  1.0000
  H   H11       1.0  0.8918000000000003  0.797  0.4751  1.0000
  C   C17       1.0  0.8293000000000003  0.8006999999999997  0.3661  1.0000
  H   H12       1.0  0.8432000000000002  0.7937  0.33210000000000006  1.0000
  C   C18       1.0  0.8676000000000003  0.8161999999999998  0.5899  1.0000
  N   N4        1.0  0.10810000000000004  0.9363999999999999  0.812  1.0000
  C   C19       1.0  0.09540000000000004  0.9323  0.876  1.0000
  H   H13       1.0  0.10980000000000001  0.944  0.924  1.0000
  C   C20       1.0  0.0617  0.9108999999999998  0.8698  1.0000
  H   H14       1.0  0.0531  0.9080999999999998  0.9135  1.0000
  C   C21       1.0  0.040700000000000056  0.8937  0.7996  1.0000
  C   C22       1.0  0.053400000000000114  0.8979  0.7356000000000003  1.0000
  H   H15       1.0  0.03900000000000002  0.8861  0.6876  1.0000
  C   C23       1.0  0.08710000000000005  0.9192  0.7418  1.0000
  H   H16       1.0  0.09570000000000005  0.9220999999999999  0.698  1.0000
  C   C24       1.0  0.0003999999999999945  0.8713999999999997  0.788  1.0000
  N   N5        1.0  0.6581000000000002  0.8861  0.0636  1.0000
  C   C25       1.0  0.6647  0.9031  0.1309  1.0000
  H   H17       1.0  0.6897000000000002  0.8984  0.1844  1.0000
  C   C26       1.0  0.6346000000000003  0.9269999999999999  0.1199  1.0000
  H   H18       1.0  0.6391000000000002  0.9385999999999999  0.166  1.0000
  C   C27       1.0  0.598  0.9338  0.042  1.0000
  C   C28       1.0  0.5914000000000003  0.9168  0.9743  1.0000
  H   H19       1.0  0.5663  0.9214999999999999  0.9208000000000002  1.0000
  C   C29       1.0  0.6214  0.8928999999999999  0.9853  1.0000
  H   H20       1.0  0.6169000000000002  0.8813  0.9393  1.0000
  O   O9        1.0  0.5387  0.9679  0.953  1.0000
  O   O10       1.0  0.5648  0.9695  0.096  1.0000
  C   C30       1.0  0.5663  0.9576999999999999  0.03  1.0000
  Pr  Pr2       1.0  0.42753000000000013  0.32788  0.76702  1.0000
  Cu  Cu6       1.0  0.19395  0.3490699999999999  0.0869  1.0000
  Cu  Cu7       1.0  0.2664  0.31957  0.0888  1.0000
  Cu  Cu8       1.0  0.24506000000000006  0.31331  0.2092  1.0000
  Cu  Cu9       1.0  0.18292  0.29328  0.0691  1.0000
  Cu  Cu10      1.0  0.6449  0.47191999999999995  0.8052  1.0000
  I   I6        1.0  0.71909  0.54797  0.7777  1.0000
  I   I7        1.0  0.17573  0.32639  0.94319  1.0000
  I   I8        1.0  0.27141000000000004  0.26704999999999995  0.14805  1.0000
  I   I9        1.0  0.2874100000000001  0.3632299999999999  0.18995  1.0000
  I   I10       1.0  0.15053  0.3193099999999999  0.16905  1.0000
  O   O11       1.0  0.4095000000000001  0.34629999999999994  0.8854  1.0000
  O   O12       1.0  0.3613000000000001  0.31329999999999997  0.8074  1.0000
  O   O13       1.0  0.4885000000000001  0.30529999999999996  0.9004  1.0000
  O   O14       1.0  0.5091000000000001  0.30279999999999996  0.7983  1.0000
  O   O15       1.0  0.3485  0.3227999999999999  0.6358  1.0000
  O   O16       1.0  0.4143  0.3115  0.6238  1.0000
  O   O17       1.0  0.494  0.3653  0.8476  1.0000
  O   O18       1.0  0.4783  0.3604  0.7157  1.0000
  N   N6        1.0  0.3090000000000001  0.32069999999999993  0.0306  1.0000
  C   C31       1.0  0.3441  0.34199999999999997  0.0453  1.0000
  H   H21       1.0  0.3529000000000001  0.3546999999999999  0.0908  1.0000
  C   C32       1.0  0.3663  0.3448  0.9932  1.0000
  H   H22       1.0  0.3903  0.3594  0.0032  1.0000
  C   C33       1.0  0.3534000000000001  0.3262  0.9265000000000002  1.0000
  C   C34       1.0  0.3182000000000001  0.30479999999999996  0.9119  1.0000
  H   H23       1.0  0.3094  0.2921  0.8663  1.0000
  C   C35       1.0  0.2960000000000001  0.3020999999999999  0.9639  1.0000
  H   H24       1.0  0.2720000000000001  0.2875  0.9539  1.0000
  C   C36       1.0  0.3749000000000001  0.3287  0.8661000000000002  1.0000
  N   N7        1.0  0.6332000000000002  0.2383  0.0133  1.0000
  C   C37       1.0  0.6019  0.24869999999999995  0.0446  1.0000
  H   H25       1.0  0.606  0.2424  0.0971  1.0000
  C   C38       1.0  0.5648  0.2682  0.9990000000000001  1.0000
  H   H26       1.0  0.5435  0.2752  0.0204  1.0000
  C   C39       1.0  0.5589  0.2773999999999999  0.9221  1.0000
  C   C40       1.0  0.5902000000000002  0.2671  0.8908  1.0000
  H   H27       1.0  0.5861000000000001  0.2733  0.8383  1.0000
  C   C41       1.0  0.6273000000000002  0.24749999999999994  0.9364000000000002  1.0000
  H   H28       1.0  0.6486000000000002  0.2405  0.915  1.0000
  C   C42       1.0  0.5153  0.2978  0.868  1.0000
  N   N8        1.0  0.2800000000000001  0.3091  0.331  1.0000
  C   C43       1.0  0.2596  0.31939999999999996  0.3809  1.0000
  H   H29       1.0  0.2259  0.32509999999999994  0.3569  1.0000
  C   C44       1.0  0.2884000000000001  0.3213  0.4658  1.0000
  H   H30       1.0  0.2744  0.3284  0.49989999999999996  1.0000
  C   C45       1.0  0.3377  0.31299999999999994  0.5009  1.0000
  C   C46       1.0  0.3581000000000001  0.30269999999999997  0.4511  1.0000
  H   H31       1.0  0.3917999999999999  0.297  0.4751  1.0000
  C   C47       1.0  0.3293000000000001  0.30069999999999997  0.3661  1.0000
  H   H32       1.0  0.3432  0.2937  0.33210000000000006  1.0000
  C   C48       1.0  0.3676  0.3162  0.5899  1.0000
  N   N9        1.0  0.6081  0.4364  0.812  1.0000
  C   C49       1.0  0.5954  0.4322999999999999  0.876  1.0000
  H   H33       1.0  0.6098000000000001  0.4439999999999999  0.924  1.0000
  C   C50       1.0  0.5617000000000002  0.4109  0.8698  1.0000
  H   H34       1.0  0.5531000000000003  0.4080999999999999  0.9135  1.0000
  C   C51       1.0  0.5407000000000002  0.3937  0.7996  1.0000
  C   C52       1.0  0.5534000000000003  0.3979  0.7356000000000003  1.0000
  H   H35       1.0  0.539  0.38609999999999994  0.6876  1.0000
  C   C53       1.0  0.5871  0.4192  0.7418  1.0000
  H   H36       1.0  0.5957  0.4221  0.698  1.0000
  C   C54       1.0  0.5004  0.3714  0.788  1.0000
  N   N10       1.0  0.1581  0.38609999999999994  0.0636  1.0000
  C   C55       1.0  0.1647  0.4030999999999999  0.1309  1.0000
  H   H37       1.0  0.18970000000000006  0.3984  0.1844  1.0000
  C   C56       1.0  0.1346  0.42699999999999994  0.1199  1.0000
  H   H38       1.0  0.13910000000000006  0.4385999999999999  0.166  1.0000
  C   C57       1.0  0.09800000000000003  0.4338  0.042  1.0000
  C   C58       1.0  0.09140000000000001  0.4168  0.9743  1.0000
  H   H39       1.0  0.06630000000000005  0.4215  0.9208000000000002  1.0000
  C   C59       1.0  0.1214  0.3929  0.9853  1.0000
  H   H40       1.0  0.1169  0.3812999999999999  0.9393  1.0000
  O   O19       1.0  0.0387  0.4678999999999999  0.953  1.0000
  O   O20       1.0  0.0648  0.4694999999999999  0.096  1.0000
  C   C60       1.0  0.0663  0.4577  0.03  1.0000
  Pr  Pr3       1.0  0.07247000000000003  0.82788  0.23298  1.0000
  Cu  Cu11      1.0  0.3060500000000002  0.84907  0.9131000000000002  1.0000
  Cu  Cu12      1.0  0.2336  0.8195699999999998  0.9112  1.0000
  Cu  Cu13      1.0  0.2549400000000001  0.81331  0.7908  1.0000
  Cu  Cu14      1.0  0.31708000000000003  0.7932799999999999  0.9309000000000002  1.0000
  Cu  Cu15      1.0  0.8551000000000002  0.97192  0.1948  1.0000
  I   I11       1.0  0.7809100000000002  0.047969999999999985  0.2223  1.0000
  I   I12       1.0  0.3242700000000001  0.82639  0.05681  1.0000
  I   I13       1.0  0.22859000000000004  0.76705  0.85195  1.0000
  I   I14       1.0  0.21259000000000006  0.86323  0.81005  1.0000
  I   I15       1.0  0.34947000000000017  0.81931  0.8309500000000002  1.0000
  O   O21       1.0  0.0905  0.8463  0.1146  1.0000
  O   O22       1.0  0.1387  0.8133  0.1926  1.0000
  O   O23       1.0  0.011500000000000003  0.8053  0.0996  1.0000
  O   O24       1.0  0.9909000000000004  0.8027999999999997  0.2017  1.0000
  O   O25       1.0  0.1515  0.8228  0.3642  1.0000
  O   O26       1.0  0.08570000000000003  0.8114999999999999  0.3762  1.0000
  O   O27       1.0  0.005999999999999998  0.8653  0.1524  1.0000
  O   O28       1.0  0.0217  0.8603999999999998  0.2843  1.0000
  N   N11       1.0  0.191  0.8207  0.9694  1.0000
  C   C61       1.0  0.1559  0.842  0.9547  1.0000
  H   H41       1.0  0.14710000000000006  0.8547  0.9092  1.0000
  C   C62       1.0  0.13370000000000007  0.8448  0.0068  1.0000
  H   H42       1.0  0.10970000000000008  0.8593999999999999  0.9968000000000001  1.0000
  C   C63       1.0  0.1466  0.8262  0.0735  1.0000
  C   C64       1.0  0.1818  0.8048  0.0881  1.0000
  H   H43       1.0  0.19060000000000005  0.7921  0.1337  1.0000
  C   C65       1.0  0.20400000000000004  0.8020999999999999  0.0361  1.0000
  H   H44       1.0  0.22800000000000006  0.7874999999999998  0.0461  1.0000
  C   C66       1.0  0.12510000000000004  0.8287  0.1339  1.0000
  N   N12       1.0  0.8668000000000001  0.7383  0.9867000000000002  1.0000
  C   C67       1.0  0.8981000000000003  0.7487  0.9554  1.0000
  H   H45       1.0  0.8940000000000002  0.7423999999999998  0.9029  1.0000
  C   C68       1.0  0.9352000000000003  0.7682  0.001  1.0000
  H   H46       1.0  0.9565  0.7752  0.9796  1.0000
  C   C69       1.0  0.9411000000000003  0.7773999999999998  0.0779  1.0000
  C   C70       1.0  0.9098  0.7671  0.1092  1.0000
  H   H47       1.0  0.9139  0.7732999999999999  0.1617  1.0000
  C   C71       1.0  0.8727  0.7475  0.0636  1.0000
  H   H48       1.0  0.8514  0.7405  0.085  1.0000
  C   C72       1.0  0.9847000000000002  0.7978  0.13200000000000003  1.0000
  N   N13       1.0  0.22000000000000008  0.8091  0.669  1.0000
  C   C73       1.0  0.24040000000000006  0.8193999999999998  0.6191  1.0000
  H   H49       1.0  0.2741  0.8250999999999997  0.6431  1.0000
  C   C74       1.0  0.2116  0.8213  0.5342  1.0000
  H   H50       1.0  0.22560000000000002  0.8283999999999998  0.5001000000000001  1.0000
  C   C75       1.0  0.16230000000000006  0.8129999999999997  0.4991  1.0000
  C   C76       1.0  0.1419  0.8027  0.5489  1.0000
  H   H51       1.0  0.1082  0.797  0.5249  1.0000
  C   C77       1.0  0.1707  0.8006999999999997  0.6339  1.0000
  H   H52       1.0  0.15680000000000005  0.7937  0.6679  1.0000
  C   C78       1.0  0.1324  0.8161999999999998  0.4101  1.0000
  N   N14       1.0  0.8919000000000002  0.9363999999999999  0.188  1.0000
  C   C79       1.0  0.9046000000000002  0.9323  0.124  1.0000
  H   H53       1.0  0.8902  0.944  0.076  1.0000
  C   C80       1.0  0.9383  0.9108999999999998  0.1302  1.0000
  H   H54       1.0  0.9469  0.9080999999999998  0.0865  1.0000
  C   C81       1.0  0.9593  0.8937  0.2004  1.0000
  C   C82       1.0  0.9466  0.8979  0.2644  1.0000
  H   H55       1.0  0.9610000000000002  0.8861  0.3124  1.0000
  C   C83       1.0  0.9129000000000003  0.9192  0.2582  1.0000
  H   H56       1.0  0.9043000000000002  0.9220999999999999  0.302  1.0000
  C   C84       1.0  0.9996  0.8713999999999997  0.212  1.0000
  N   N15       1.0  0.3419000000000002  0.8861  0.9364000000000002  1.0000
  C   C85       1.0  0.3353  0.9031  0.8691  1.0000
  H   H57       1.0  0.3103  0.8984  0.8156  1.0000
  C   C86       1.0  0.3654  0.9269999999999999  0.8801  1.0000
  H   H58       1.0  0.3609000000000001  0.9385999999999999  0.834  1.0000
  C   C87       1.0  0.402  0.9338  0.958  1.0000
  C   C88       1.0  0.40860000000000013  0.9168  0.0257  1.0000
  H   H59       1.0  0.4337  0.9214999999999999  0.0792  1.0000
  C   C89       1.0  0.3786  0.8928999999999999  0.0147  1.0000
  H   H60       1.0  0.3831000000000001  0.8813  0.0607  1.0000
  O   O29       1.0  0.4613  0.9679  0.047  1.0000
  O   O30       1.0  0.4352  0.9695  0.904  1.0000
  C   C90       1.0  0.43370000000000003  0.9576999999999999  0.9700000000000002  1.0000
  Pr  Pr4       1.0  0.57247  0.32788  0.23298  1.0000
  Cu  Cu16      1.0  0.8060500000000004  0.3490699999999999  0.9131000000000002  1.0000
  Cu  Cu17      1.0  0.7336000000000003  0.31957  0.9112  1.0000
  Cu  Cu18      1.0  0.7549400000000003  0.31331  0.7908  1.0000
  Cu  Cu19      1.0  0.81708  0.29328  0.9309000000000002  1.0000
  Cu  Cu20      1.0  0.35510000000000014  0.47191999999999995  0.1948  1.0000
  I   I16       1.0  0.28091  0.54797  0.2223  1.0000
  I   I17       1.0  0.82427  0.32639  0.05681  1.0000
  I   I18       1.0  0.72859  0.26704999999999995  0.85195  1.0000
  I   I19       1.0  0.71259  0.3632299999999999  0.81005  1.0000
  I   I20       1.0  0.84947  0.3193099999999999  0.8309500000000002  1.0000
  O   O31       1.0  0.5905000000000002  0.34629999999999994  0.1146  1.0000
  O   O32       1.0  0.6387  0.31329999999999997  0.1926  1.0000
  O   O33       1.0  0.5115  0.30529999999999996  0.0996  1.0000
  O   O34       1.0  0.4909  0.30279999999999996  0.2017  1.0000
  O   O35       1.0  0.6515000000000002  0.3227999999999999  0.3642  1.0000
  O   O36       1.0  0.5857000000000002  0.3115  0.3762  1.0000
  O   O37       1.0  0.5060000000000001  0.3653  0.1524  1.0000
  O   O38       1.0  0.5217000000000002  0.3604  0.2843  1.0000
  N   N16       1.0  0.6910000000000002  0.32069999999999993  0.9694  1.0000
  C   C91       1.0  0.6559  0.34199999999999997  0.9547  1.0000
  H   H61       1.0  0.6471000000000002  0.3546999999999999  0.9092  1.0000
  C   C92       1.0  0.6337000000000003  0.3448  0.0068  1.0000
  H   H62       1.0  0.6097000000000004  0.3594  0.9968000000000001  1.0000
  C   C93       1.0  0.6466  0.3262  0.0735  1.0000
  C   C94       1.0  0.6818000000000002  0.30479999999999996  0.0881  1.0000
  H   H63       1.0  0.6906000000000002  0.2921  0.1337  1.0000
  C   C95       1.0  0.7040000000000002  0.3020999999999999  0.0361  1.0000
  H   H64       1.0  0.7280000000000002  0.2875  0.0461  1.0000
  C   C96       1.0  0.6251000000000002  0.3287  0.1339  1.0000
  N   N17       1.0  0.36680000000000024  0.2383  0.9867000000000002  1.0000
  C   C97       1.0  0.3981000000000001  0.24869999999999995  0.9554  1.0000
  H   H65       1.0  0.394  0.2424  0.9029  1.0000
  C   C98       1.0  0.4352  0.2682  0.001  1.0000
  H   H66       1.0  0.4565000000000001  0.2752  0.9796  1.0000
  C   C99       1.0  0.4411  0.2773999999999999  0.0779  1.0000
  C   C100      1.0  0.4098000000000001  0.2671  0.1092  1.0000
  H   H67       1.0  0.41390000000000016  0.2733  0.1617  1.0000
  C   C101      1.0  0.3727  0.24749999999999994  0.0636  1.0000
  H   H68       1.0  0.3514000000000001  0.2405  0.085  1.0000
  C   C102      1.0  0.4847000000000001  0.2978  0.13200000000000003  1.0000
  N   N18       1.0  0.7200000000000002  0.3091  0.669  1.0000
  C   C103      1.0  0.7404000000000002  0.31939999999999996  0.6191  1.0000
  H   H69       1.0  0.7741  0.32509999999999994  0.6431  1.0000
  C   C104      1.0  0.7116  0.3213  0.5342  1.0000
  H   H70       1.0  0.7256000000000002  0.3284  0.5001000000000001  1.0000
  C   C105      1.0  0.6623  0.31299999999999994  0.4991  1.0000
  C   C106      1.0  0.6419  0.30269999999999997  0.5489  1.0000
  H   H71       1.0  0.6082  0.297  0.5249  1.0000
  C   C107      1.0  0.6707  0.30069999999999997  0.6339  1.0000
  H   H72       1.0  0.6568000000000003  0.2937  0.6679  1.0000
  C   C108      1.0  0.6324  0.3162  0.4101  1.0000
  N   N19       1.0  0.3919  0.4364  0.188  1.0000
  C   C109      1.0  0.4046000000000001  0.4322999999999999  0.124  1.0000
  H   H73       1.0  0.3902000000000001  0.4439999999999999  0.076  1.0000
  C   C110      1.0  0.4383  0.4109  0.1302  1.0000
  H   H74       1.0  0.4469  0.4080999999999999  0.0865  1.0000
  C   C111      1.0  0.45930000000000004  0.3937  0.2004  1.0000
  C   C112      1.0  0.4466  0.3979  0.2644  1.0000
  H   H75       1.0  0.461  0.38609999999999994  0.3124  1.0000
  C   C113      1.0  0.4129000000000001  0.4192  0.2582  1.0000
  H   H76       1.0  0.40430000000000016  0.4221  0.302  1.0000
  C   C114      1.0  0.49960000000000004  0.3714  0.212  1.0000
  N   N20       1.0  0.8419000000000001  0.38609999999999994  0.9364000000000002  1.0000
  C   C115      1.0  0.8353000000000003  0.4030999999999999  0.8691  1.0000
  H   H77       1.0  0.8103000000000005  0.3984  0.8156  1.0000
  C   C116      1.0  0.8654  0.42699999999999994  0.8801  1.0000
  H   H78       1.0  0.8609  0.4385999999999999  0.834  1.0000
  C   C117      1.0  0.9020000000000002  0.4338  0.958  1.0000
  C   C118      1.0  0.9086  0.4168  0.0257  1.0000
  H   H79       1.0  0.9337000000000002  0.4215  0.0792  1.0000
  C   C119      1.0  0.8786000000000003  0.3929  0.0147  1.0000
  H   H80       1.0  0.8831  0.3812999999999999  0.0607  1.0000
  O   O39       1.0  0.9613000000000003  0.4678999999999999  0.047  1.0000
  O   O40       1.0  0.9352000000000003  0.4694999999999999  0.904  1.0000
  C   C120      1.0  0.9337000000000003  0.4577  0.9700000000000002  1.0000
  Pr  Pr5       1.0  0.07247000000000003  0.17211999999999997  0.23298  1.0000
  Cu  Cu21      1.0  0.3060500000000002  0.15092999999999998  0.9131000000000002  1.0000
  Cu  Cu22      1.0  0.2336  0.18043  0.9112  1.0000
  Cu  Cu23      1.0  0.2549400000000001  0.18668999999999997  0.7908  1.0000
  Cu  Cu24      1.0  0.31708000000000003  0.20672  0.9309000000000002  1.0000
  Cu  Cu25      1.0  0.8551000000000002  0.02808  0.1948  1.0000
  I   I21       1.0  0.7809100000000002  0.9520299999999998  0.2223  1.0000
  I   I22       1.0  0.3242700000000001  0.17360999999999996  0.05681  1.0000
  I   I23       1.0  0.22859000000000004  0.23295  0.85195  1.0000
  I   I24       1.0  0.21259000000000006  0.13677  0.81005  1.0000
  I   I25       1.0  0.34947000000000017  0.18068999999999993  0.8309500000000002  1.0000
  O   O41       1.0  0.0905  0.1537  0.1146  1.0000
  O   O42       1.0  0.1387  0.18669999999999998  0.1926  1.0000
  O   O43       1.0  0.011500000000000003  0.1947  0.0996  1.0000
  O   O44       1.0  0.9909000000000004  0.1972  0.2017  1.0000
  O   O45       1.0  0.1515  0.1772  0.3642  1.0000
  O   O46       1.0  0.08570000000000003  0.18849999999999995  0.3762  1.0000
  O   O47       1.0  0.005999999999999998  0.13469999999999996  0.1524  1.0000
  O   O48       1.0  0.0217  0.1396  0.2843  1.0000
  N   N21       1.0  0.191  0.1793  0.9694  1.0000
  C   C121      1.0  0.1559  0.158  0.9547  1.0000
  H   H81       1.0  0.14710000000000006  0.14529999999999998  0.9092  1.0000
  C   C122      1.0  0.13370000000000007  0.1552  0.0068  1.0000
  H   H82       1.0  0.10970000000000008  0.1406  0.9968000000000001  1.0000
  C   C123      1.0  0.1466  0.17379999999999998  0.0735  1.0000
  C   C124      1.0  0.1818  0.19519999999999998  0.0881  1.0000
  H   H83       1.0  0.19060000000000005  0.20789999999999995  0.1337  1.0000
  C   C125      1.0  0.20400000000000004  0.1979  0.0361  1.0000
  H   H84       1.0  0.22800000000000006  0.2125  0.0461  1.0000
  C   C126      1.0  0.12510000000000004  0.1713  0.1339  1.0000
  N   N22       1.0  0.8668000000000001  0.2617  0.9867000000000002  1.0000
  C   C127      1.0  0.8981000000000003  0.2513  0.9554  1.0000
  H   H85       1.0  0.8940000000000002  0.25759999999999994  0.9029  1.0000
  C   C128      1.0  0.9352000000000003  0.23179999999999995  0.001  1.0000
  H   H86       1.0  0.9565  0.22479999999999997  0.9796  1.0000
  C   C129      1.0  0.9411000000000003  0.2226  0.0779  1.0000
  C   C130      1.0  0.9098  0.23289999999999997  0.1092  1.0000
  H   H87       1.0  0.9139  0.22669999999999998  0.1617  1.0000
  C   C131      1.0  0.8727  0.2525  0.0636  1.0000
  H   H88       1.0  0.8514  0.25949999999999995  0.085  1.0000
  C   C132      1.0  0.9847000000000002  0.20219999999999996  0.13200000000000003  1.0000
  N   N23       1.0  0.22000000000000008  0.19089999999999996  0.669  1.0000
  C   C133      1.0  0.24040000000000006  0.18059999999999998  0.6191  1.0000
  H   H89       1.0  0.2741  0.1749  0.6431  1.0000
  C   C134      1.0  0.2116  0.17869999999999997  0.5342  1.0000
  H   H90       1.0  0.22560000000000002  0.1716  0.5001000000000001  1.0000
  C   C135      1.0  0.16230000000000006  0.187  0.4991  1.0000
  C   C136      1.0  0.1419  0.19729999999999998  0.5489  1.0000
  H   H91       1.0  0.1082  0.20299999999999996  0.5249  1.0000
  C   C137      1.0  0.1707  0.19929999999999998  0.6339  1.0000
  H   H92       1.0  0.15680000000000005  0.2063  0.6679  1.0000
  C   C138      1.0  0.1324  0.1838  0.4101  1.0000
  N   N24       1.0  0.8919000000000002  0.0636  0.188  1.0000
  C   C139      1.0  0.9046000000000002  0.0677  0.124  1.0000
  H   H93       1.0  0.8902  0.055999999999999994  0.076  1.0000
  C   C140      1.0  0.9383  0.0891  0.1302  1.0000
  H   H94       1.0  0.9469  0.0919  0.0865  1.0000
  C   C141      1.0  0.9593  0.10629999999999999  0.2004  1.0000
  C   C142      1.0  0.9466  0.10209999999999998  0.2644  1.0000
  H   H95       1.0  0.9610000000000002  0.1139  0.3124  1.0000
  C   C143      1.0  0.9129000000000003  0.08079999999999998  0.2582  1.0000
  H   H96       1.0  0.9043000000000002  0.0779  0.302  1.0000
  C   C144      1.0  0.9996  0.12859999999999996  0.212  1.0000
  N   N25       1.0  0.3419000000000002  0.1139  0.9364000000000002  1.0000
  C   C145      1.0  0.3353  0.0969  0.8691  1.0000
  H   H97       1.0  0.3103  0.1016  0.8156  1.0000
  C   C146      1.0  0.3654  0.07299999999999998  0.8801  1.0000
  H   H98       1.0  0.3609000000000001  0.0614  0.834  1.0000
  C   C147      1.0  0.402  0.0662  0.958  1.0000
  C   C148      1.0  0.40860000000000013  0.08319999999999998  0.0257  1.0000
  H   H99       1.0  0.4337  0.0785  0.0792  1.0000
  C   C149      1.0  0.3786  0.10709999999999999  0.0147  1.0000
  H   H100      1.0  0.3831000000000001  0.11869999999999997  0.0607  1.0000
  O   O49       1.0  0.4613  0.03209999999999999  0.047  1.0000
  O   O50       1.0  0.4352  0.030499999999999992  0.904  1.0000
  C   C150      1.0  0.43370000000000003  0.0423  0.9700000000000002  1.0000
  Pr  Pr6       1.0  0.57247  0.67212  0.23298  1.0000
  Cu  Cu26      1.0  0.8060500000000004  0.65093  0.9131000000000002  1.0000
  Cu  Cu27      1.0  0.7336000000000003  0.68043  0.9112  1.0000
  Cu  Cu28      1.0  0.7549400000000003  0.68669  0.7908  1.0000
  Cu  Cu29      1.0  0.81708  0.70672  0.9309000000000002  1.0000
  Cu  Cu30      1.0  0.35510000000000014  0.52808  0.1948  1.0000
  I   I26       1.0  0.28091  0.45202999999999993  0.2223  1.0000
  I   I27       1.0  0.82427  0.67361  0.05681  1.0000
  I   I28       1.0  0.72859  0.7329499999999999  0.85195  1.0000
  I   I29       1.0  0.71259  0.6367699999999998  0.81005  1.0000
  I   I30       1.0  0.84947  0.6806899999999999  0.8309500000000002  1.0000
  O   O51       1.0  0.5905000000000002  0.6537  0.1146  1.0000
  O   O52       1.0  0.6387  0.6867  0.1926  1.0000
  O   O53       1.0  0.5115  0.6946999999999999  0.0996  1.0000
  O   O54       1.0  0.4909  0.6971999999999998  0.2017  1.0000
  O   O55       1.0  0.6515000000000002  0.6772  0.3642  1.0000
  O   O56       1.0  0.5857000000000002  0.6885  0.3762  1.0000
  O   O57       1.0  0.5060000000000001  0.6347  0.1524  1.0000
  O   O58       1.0  0.5217000000000002  0.6396  0.2843  1.0000
  N   N26       1.0  0.6910000000000002  0.6793  0.9694  1.0000
  C   C151      1.0  0.6559  0.658  0.9547  1.0000
  H   H101      1.0  0.6471000000000002  0.6453  0.9092  1.0000
  C   C152      1.0  0.6337000000000003  0.6551999999999999  0.0068  1.0000
  H   H102      1.0  0.6097000000000004  0.6405999999999998  0.9968000000000001  1.0000
  C   C153      1.0  0.6466  0.6737999999999998  0.0735  1.0000
  C   C154      1.0  0.6818000000000002  0.6951999999999999  0.0881  1.0000
  H   H103      1.0  0.6906000000000002  0.7078999999999999  0.1337  1.0000
  C   C155      1.0  0.7040000000000002  0.6979  0.0361  1.0000
  H   H104      1.0  0.7280000000000002  0.7125  0.0461  1.0000
  C   C156      1.0  0.6251000000000002  0.6713  0.1339  1.0000
  N   N27       1.0  0.36680000000000024  0.7616999999999999  0.9867000000000002  1.0000
  C   C157      1.0  0.3981000000000001  0.7512999999999997  0.9554  1.0000
  H   H105      1.0  0.394  0.7576  0.9029  1.0000
  C   C158      1.0  0.4352  0.7317999999999999  0.001  1.0000
  H   H106      1.0  0.4565000000000001  0.7247999999999998  0.9796  1.0000
  C   C159      1.0  0.4411  0.7226  0.0779  1.0000
  C   C160      1.0  0.4098000000000001  0.7328999999999999  0.1092  1.0000
  H   H107      1.0  0.41390000000000016  0.7267  0.1617  1.0000
  C   C161      1.0  0.3727  0.7524999999999998  0.0636  1.0000
  H   H108      1.0  0.3514000000000001  0.7594999999999998  0.085  1.0000
  C   C162      1.0  0.4847000000000001  0.7021999999999999  0.13200000000000003  1.0000
  N   N28       1.0  0.7200000000000002  0.6908999999999998  0.669  1.0000
  C   C163      1.0  0.7404000000000002  0.6806  0.6191  1.0000
  H   H109      1.0  0.7741  0.6749  0.6431  1.0000
  C   C164      1.0  0.7116  0.6787  0.5342  1.0000
  H   H110      1.0  0.7256000000000002  0.6716  0.5001000000000001  1.0000
  C   C165      1.0  0.6623  0.687  0.4991  1.0000
  C   C166      1.0  0.6419  0.6972999999999999  0.5489  1.0000
  H   H111      1.0  0.6082  0.7029999999999997  0.5249  1.0000
  C   C167      1.0  0.6707  0.6993  0.6339  1.0000
  H   H112      1.0  0.6568000000000003  0.7062999999999998  0.6679  1.0000
  C   C168      1.0  0.6324  0.6838  0.4101  1.0000
  N   N29       1.0  0.3919  0.5635999999999999  0.188  1.0000
  C   C169      1.0  0.4046000000000001  0.5677  0.124  1.0000
  H   H113      1.0  0.3902000000000001  0.556  0.076  1.0000
  C   C170      1.0  0.4383  0.5891  0.1302  1.0000
  H   H114      1.0  0.4469  0.5919  0.0865  1.0000
  C   C171      1.0  0.45930000000000004  0.6062999999999998  0.2004  1.0000
  C   C172      1.0  0.4466  0.6020999999999999  0.2644  1.0000
  H   H115      1.0  0.461  0.6139  0.3124  1.0000
  C   C173      1.0  0.4129000000000001  0.5807999999999999  0.2582  1.0000
  H   H116      1.0  0.40430000000000016  0.5778999999999999  0.302  1.0000
  C   C174      1.0  0.49960000000000004  0.6286  0.212  1.0000
  N   N30       1.0  0.8419000000000001  0.6139  0.9364000000000002  1.0000
  C   C175      1.0  0.8353000000000003  0.5969  0.8691  1.0000
  H   H117      1.0  0.8103000000000005  0.6015999999999999  0.8156  1.0000
  C   C176      1.0  0.8654  0.573  0.8801  1.0000
  H   H118      1.0  0.8609  0.5614  0.834  1.0000
  C   C177      1.0  0.9020000000000002  0.5662  0.958  1.0000
  C   C178      1.0  0.9086  0.5832  0.0257  1.0000
  H   H119      1.0  0.9337000000000002  0.5784999999999999  0.0792  1.0000
  C   C179      1.0  0.8786000000000003  0.6070999999999999  0.0147  1.0000
  H   H120      1.0  0.8831  0.6187  0.0607  1.0000
  O   O59       1.0  0.9613000000000003  0.5321  0.047  1.0000
  O   O60       1.0  0.9352000000000003  0.5305  0.904  1.0000
  C   C180      1.0  0.9337000000000003  0.5422999999999999  0.9700000000000002  1.0000
  Pr  Pr7       1.0  0.9275300000000002  0.17211999999999997  0.76702  1.0000
  Cu  Cu31      1.0  0.69395  0.15092999999999998  0.0869  1.0000
  Cu  Cu32      1.0  0.7664  0.18043  0.0888  1.0000
  Cu  Cu33      1.0  0.74506  0.18668999999999997  0.2092  1.0000
  Cu  Cu34      1.0  0.6829200000000002  0.20672  0.0691  1.0000
  Cu  Cu35      1.0  0.14489999999999997  0.02808  0.8052  1.0000
  I   I31       1.0  0.21909  0.9520299999999998  0.7777  1.0000
  I   I32       1.0  0.6757300000000003  0.17360999999999996  0.94319  1.0000
  I   I33       1.0  0.7714100000000003  0.23295  0.14805  1.0000
  I   I34       1.0  0.7874100000000003  0.13677  0.18995  1.0000
  I   I35       1.0  0.6505300000000003  0.18068999999999993  0.16905  1.0000
  O   O61       1.0  0.9095  0.1537  0.8854  1.0000
  O   O62       1.0  0.8613000000000002  0.18669999999999998  0.8074  1.0000
  O   O63       1.0  0.9885000000000005  0.1947  0.9004  1.0000
  O   O64       1.0  0.009099999999999992  0.1972  0.7983  1.0000
  O   O65       1.0  0.8485  0.1772  0.6358  1.0000
  O   O66       1.0  0.9143000000000004  0.18849999999999995  0.6238  1.0000
  O   O67       1.0  0.994  0.13469999999999996  0.8476  1.0000
  O   O68       1.0  0.9783  0.1396  0.7157  1.0000
  N   N31       1.0  0.809  0.1793  0.0306  1.0000
  C   C181      1.0  0.8441000000000002  0.158  0.0453  1.0000
  H   H121      1.0  0.8529  0.14529999999999998  0.0908  1.0000
  C   C182      1.0  0.8663000000000004  0.1552  0.9932  1.0000
  H   H122      1.0  0.8903  0.1406  0.0032  1.0000
  C   C183      1.0  0.8534000000000004  0.17379999999999998  0.9265000000000002  1.0000
  C   C184      1.0  0.8182  0.19519999999999998  0.9119  1.0000
  H   H123      1.0  0.8094  0.20789999999999995  0.8663  1.0000
  C   C185      1.0  0.796  0.1979  0.9639  1.0000
  H   H124      1.0  0.772  0.2125  0.9539  1.0000
  C   C186      1.0  0.8749000000000005  0.1713  0.8661000000000002  1.0000
  N   N32       1.0  0.1332  0.2617  0.0133  1.0000
  C   C187      1.0  0.1019  0.2513  0.0446  1.0000
  H   H125      1.0  0.10600000000000002  0.25759999999999994  0.0971  1.0000
  C   C188      1.0  0.06480000000000001  0.23179999999999995  0.9990000000000001  1.0000
  H   H126      1.0  0.04350000000000001  0.22479999999999997  0.0204  1.0000
  C   C189      1.0  0.05890000000000001  0.2226  0.9221  1.0000
  C   C190      1.0  0.09019999999999999  0.23289999999999997  0.8908  1.0000
  H   H127      1.0  0.08610000000000005  0.22669999999999998  0.8383  1.0000
  C   C191      1.0  0.1273000000000001  0.2525  0.9364000000000002  1.0000
  H   H128      1.0  0.1486  0.25949999999999995  0.915  1.0000
  C   C192      1.0  0.015299999999999994  0.20219999999999996  0.868  1.0000
  N   N33       1.0  0.78  0.19089999999999996  0.331  1.0000
  C   C193      1.0  0.7596  0.18059999999999998  0.3809  1.0000
  H   H129      1.0  0.7259000000000002  0.1749  0.3569  1.0000
  C   C194      1.0  0.7884000000000002  0.17869999999999997  0.4658  1.0000
  H   H130      1.0  0.7744  0.1716  0.49989999999999996  1.0000
  C   C195      1.0  0.8377000000000002  0.187  0.5009  1.0000
  C   C196      1.0  0.8581000000000002  0.19729999999999998  0.4511  1.0000
  H   H131      1.0  0.8918000000000003  0.20299999999999996  0.4751  1.0000
  C   C197      1.0  0.8293000000000003  0.19929999999999998  0.3661  1.0000
  H   H132      1.0  0.8432000000000002  0.2063  0.33210000000000006  1.0000
  C   C198      1.0  0.8676000000000003  0.1838  0.5899  1.0000
  N   N34       1.0  0.10810000000000004  0.0636  0.812  1.0000
  C   C199      1.0  0.09540000000000004  0.0677  0.876  1.0000
  H   H133      1.0  0.10980000000000001  0.055999999999999994  0.924  1.0000
  C   C200      1.0  0.0617  0.0891  0.8698  1.0000
  H   H134      1.0  0.0531  0.0919  0.9135  1.0000
  C   C201      1.0  0.040700000000000056  0.10629999999999999  0.7996  1.0000
  C   C202      1.0  0.053400000000000114  0.10209999999999998  0.7356000000000003  1.0000
  H   H135      1.0  0.03900000000000002  0.1139  0.6876  1.0000
  C   C203      1.0  0.08710000000000005  0.08079999999999998  0.7418  1.0000
  H   H136      1.0  0.09570000000000005  0.0779  0.698  1.0000
  C   C204      1.0  0.0003999999999999945  0.12859999999999996  0.788  1.0000
  N   N35       1.0  0.6581000000000002  0.1139  0.0636  1.0000
  C   C205      1.0  0.6647  0.0969  0.1309  1.0000
  H   H137      1.0  0.6897000000000002  0.1016  0.1844  1.0000
  C   C206      1.0  0.6346000000000003  0.07299999999999998  0.1199  1.0000
  H   H138      1.0  0.6391000000000002  0.0614  0.166  1.0000
  C   C207      1.0  0.598  0.0662  0.042  1.0000
  C   C208      1.0  0.5914000000000003  0.08319999999999998  0.9743  1.0000
  H   H139      1.0  0.5663  0.0785  0.9208000000000002  1.0000
  C   C209      1.0  0.6214  0.10709999999999999  0.9853  1.0000
  H   H140      1.0  0.6169000000000002  0.11869999999999997  0.9393  1.0000
  O   O69       1.0  0.5387  0.03209999999999999  0.953  1.0000
  O   O70       1.0  0.5648  0.030499999999999992  0.096  1.0000
  C   C210      1.0  0.5663  0.0423  0.03  1.0000
  Pr  Pr8       1.0  0.42753000000000013  0.67212  0.76702  1.0000
  Cu  Cu36      1.0  0.19395  0.65093  0.0869  1.0000
  Cu  Cu37      1.0  0.2664  0.68043  0.0888  1.0000
  Cu  Cu38      1.0  0.24506000000000006  0.68669  0.2092  1.0000
  Cu  Cu39      1.0  0.18292  0.70672  0.0691  1.0000
  Cu  Cu40      1.0  0.6449  0.52808  0.8052  1.0000
  I   I36       1.0  0.71909  0.45202999999999993  0.7777  1.0000
  I   I37       1.0  0.17573  0.67361  0.94319  1.0000
  I   I38       1.0  0.27141000000000004  0.7329499999999999  0.14805  1.0000
  I   I39       1.0  0.2874100000000001  0.6367699999999998  0.18995  1.0000
  I   I40       1.0  0.15053  0.6806899999999999  0.16905  1.0000
  O   O71       1.0  0.4095000000000001  0.6537  0.8854  1.0000
  O   O72       1.0  0.3613000000000001  0.6867  0.8074  1.0000
  O   O73       1.0  0.4885000000000001  0.6946999999999999  0.9004  1.0000
  O   O74       1.0  0.5091000000000001  0.6971999999999998  0.7983  1.0000
  O   O75       1.0  0.3485  0.6772  0.6358  1.0000
  O   O76       1.0  0.4143  0.6885  0.6238  1.0000
  O   O77       1.0  0.494  0.6347  0.8476  1.0000
  O   O78       1.0  0.4783  0.6396  0.7157  1.0000
  N   N36       1.0  0.3090000000000001  0.6793  0.0306  1.0000
  C   C211      1.0  0.3441  0.658  0.0453  1.0000
  H   H141      1.0  0.3529000000000001  0.6453  0.0908  1.0000
  C   C212      1.0  0.3663  0.6551999999999999  0.9932  1.0000
  H   H142      1.0  0.3903  0.6405999999999998  0.0032  1.0000
  C   C213      1.0  0.3534000000000001  0.6737999999999998  0.9265000000000002  1.0000
  C   C214      1.0  0.3182000000000001  0.6951999999999999  0.9119  1.0000
  H   H143      1.0  0.3094  0.7078999999999999  0.8663  1.0000
  C   C215      1.0  0.2960000000000001  0.6979  0.9639  1.0000
  H   H144      1.0  0.2720000000000001  0.7125  0.9539  1.0000
  C   C216      1.0  0.3749000000000001  0.6713  0.8661000000000002  1.0000
  N   N37       1.0  0.6332000000000002  0.7616999999999999  0.0133  1.0000
  C   C217      1.0  0.6019  0.7512999999999997  0.0446  1.0000
  H   H145      1.0  0.606  0.7576  0.0971  1.0000
  C   C218      1.0  0.5648  0.7317999999999999  0.9990000000000001  1.0000
  H   H146      1.0  0.5435  0.7247999999999998  0.0204  1.0000
  C   C219      1.0  0.5589  0.7226  0.9221  1.0000
  C   C220      1.0  0.5902000000000002  0.7328999999999999  0.8908  1.0000
  H   H147      1.0  0.5861000000000001  0.7267  0.8383  1.0000
  C   C221      1.0  0.6273000000000002  0.7524999999999998  0.9364000000000002  1.0000
  H   H148      1.0  0.6486000000000002  0.7594999999999998  0.915  1.0000
  C   C222      1.0  0.5153  0.7021999999999999  0.868  1.0000
  N   N38       1.0  0.2800000000000001  0.6908999999999998  0.331  1.0000
  C   C223      1.0  0.2596  0.6806  0.3809  1.0000
  H   H149      1.0  0.2259  0.6749  0.3569  1.0000
  C   C224      1.0  0.2884000000000001  0.6787  0.4658  1.0000
  H   H150      1.0  0.2744  0.6716  0.49989999999999996  1.0000
  C   C225      1.0  0.3377  0.687  0.5009  1.0000
  C   C226      1.0  0.3581000000000001  0.6972999999999999  0.4511  1.0000
  H   H151      1.0  0.3917999999999999  0.7029999999999997  0.4751  1.0000
  C   C227      1.0  0.3293000000000001  0.6993  0.3661  1.0000
  H   H152      1.0  0.3432  0.7062999999999998  0.33210000000000006  1.0000
  C   C228      1.0  0.3676  0.6838  0.5899  1.0000
  N   N39       1.0  0.6081  0.5635999999999999  0.812  1.0000
  C   C229      1.0  0.5954  0.5677  0.876  1.0000
  H   H153      1.0  0.6098000000000001  0.556  0.924  1.0000
  C   C230      1.0  0.5617000000000002  0.5891  0.8698  1.0000
  H   H154      1.0  0.5531000000000003  0.5919  0.9135  1.0000
  C   C231      1.0  0.5407000000000002  0.6062999999999998  0.7996  1.0000
  C   C232      1.0  0.5534000000000003  0.6020999999999999  0.7356000000000003  1.0000
  H   H155      1.0  0.539  0.6139  0.6876  1.0000
  C   C233      1.0  0.5871  0.5807999999999999  0.7418  1.0000
  H   H156      1.0  0.5957  0.5778999999999999  0.698  1.0000
  C   C234      1.0  0.5004  0.6286  0.788  1.0000
  N   N40       1.0  0.1581  0.6139  0.0636  1.0000
  C   C235      1.0  0.1647  0.5969  0.1309  1.0000
  H   H157      1.0  0.18970000000000006  0.6015999999999999  0.1844  1.0000
  C   C236      1.0  0.1346  0.573  0.1199  1.0000
  H   H158      1.0  0.13910000000000006  0.5614  0.166  1.0000
  C   C237      1.0  0.09800000000000003  0.5662  0.042  1.0000
  C   C238      1.0  0.09140000000000001  0.5832  0.9743  1.0000
  H   H159      1.0  0.06630000000000005  0.5784999999999999  0.9208000000000002  1.0000
  C   C239      1.0  0.1214  0.6070999999999999  0.9853  1.0000
  H   H160      1.0  0.1169  0.6187  0.9393  1.0000
  O   O79       1.0  0.0387  0.5321  0.953  1.0000
  O   O80       1.0  0.0648  0.5305  0.096  1.0000
  C   C240      1.0  0.0663  0.5422999999999999  0.03  1.0000
  Cu  Cu41      1.0  0.2267  0.0  0.8587  1.0000
  Cu  Cu42      1.0  0.173  0.0  0.7022  1.0000
  I   I41       1.0  0.16822000000000006  0.0  0.9427  1.0000
  I   I42       1.0  0.079  0.0  0.6689  1.0000
  Pr  Pr9       1.0  0.4801300000000001  0.0  0.8615  1.0000
  Cu  Cu43      1.0  0.7267  0.4999999999999999  0.8587  1.0000
  Cu  Cu44      1.0  0.673  0.4999999999999999  0.7022  1.0000
  I   I43       1.0  0.66822  0.4999999999999999  0.9427  1.0000
  I   I44       1.0  0.579  0.4999999999999999  0.6689  1.0000
  Pr  Pr10      1.0  0.9801300000000003  0.4999999999999999  0.8615  1.0000
  Cu  Cu45      1.0  0.7733000000000002  0.0  0.1413  1.0000
  Cu  Cu46      1.0  0.8270000000000002  0.0  0.2978  1.0000
  I   I45       1.0  0.8317800000000002  0.0  0.0573  1.0000
  I   I46       1.0  0.9210000000000002  0.0  0.3311  1.0000
  Pr  Pr11      1.0  0.5198700000000003  0.0  0.1385  1.0000
  Cu  Cu47      1.0  0.2733000000000001  0.4999999999999999  0.1413  1.0000
  Cu  Cu48      1.0  0.327  0.4999999999999999  0.2978  1.0000
  I   I47       1.0  0.33178  0.4999999999999999  0.0573  1.0000
  I   I48       1.0  0.421  0.4999999999999999  0.3311  1.0000
  Pr  Pr12      1.0  0.019870000000000013  0.4999999999999999  0.1385  1.0000
  K   K1        1.0  0.0  0.8560999999999999  0.0  1.0000
  K   K2        1.0  0.5  0.3560999999999999  0.0  1.0000
  K   K3        1.0  0.0  0.1439  0.0  1.0000
  K   K4        1.0  0.5  0.6439  0.0  1.0000
