data_image0
_chemical_formula_structural       Co12O6C3O4CO4C3O4CO4CH2CHCHC2H2CHCHC2HC2HC2HC2HC2HCHC4HCHCHC2HC3HCHCHCHC4HCHCHC2HC3HCHCOC3O3CHCHCH2C2HC2HCH3C2HCOC3O3CHCHCH2C2HC2HCH3C2HCo6O9Co6O25C8H8C17HCHCHCHCHCHCHCHCHCHCHCHCHCHCHCHCHCHCHCHCHCHCHCHCHCHCHCHCHCHCHCHC6HCHC3HC2HC6HCHC3HC2HO20Co12O6C3O4CO4C3O4CO4C2H2CHCHCH2C2HCHC2H2CHCHCH2C2HCHCHC2HC2HC2HC2HC2HC2HC2HC2HC3HCHC3HCHC3HCHC3H9COCO2C2O7CHCHCHC3HCHCHCHCHCHC3HCHCHCHCHCHC3HCHCHCHCHCHC3HCHCHCo4CCo2CO2CO2COC3O10CO6CHC3HC2HC2HCOCO2C2O7CHCHCHC3HCHCHCHCHCHC3HCHCHCHCHCHC3HCHCHCHCHCHC3HCHCHCo4CCo2CO2CO2COC3O10CO6CHC3HC2HC2H
_chemical_formula_sum              "Co48 O168 C320 H192"
_cell_length_a       15.70882
_cell_length_b       22.56238
_cell_length_c       38.09563
_cell_angle_alpha    89.99906
_cell_angle_beta     90.0
_cell_angle_gamma    90.03655

_space_group_name_H-M_alt    "P 1"
_space_group_IT_number       1

loop_
  _space_group_symop_operation_xyz
  'x, y, z'

loop_
  _atom_site_type_symbol
  _atom_site_label
  _atom_site_symmetry_multiplicity
  _atom_site_fract_x
  _atom_site_fract_y
  _atom_site_fract_z
  _atom_site_occupancy
  Co  Co1       1.0  0.73525  0.98117  0.0012100000000000001  1.0000
  Co  Co2       1.0  0.31345  0.9810299999999998  0.00091  1.0000
  Co  Co3       1.0  0.73525  0.48117  0.0012100000000000001  1.0000
  Co  Co4       1.0  0.31345  0.48103  0.00091  1.0000
  Co  Co5       1.0  0.92097  0.9184099999999998  0.00268  1.0000
  Co  Co6       1.0  0.92097  0.41840999999999995  0.00268  1.0000
  Co  Co7       1.0  0.1276  0.04359  0.0023700000000000006  1.0000
  Co  Co8       1.0  0.92164  0.04373  0.00238  1.0000
  Co  Co9       1.0  0.1276  0.54359  0.0023700000000000006  1.0000
  Co  Co10      1.0  0.92164  0.54373  0.00238  1.0000
  Co  Co11      1.0  0.12737  0.91813  0.0024800000000000004  1.0000
  Co  Co12      1.0  0.12737  0.41812999999999995  0.0024800000000000004  1.0000
  O   O1        1.0  0.17991  0.9811199999999999  0.00995  1.0000
  O   O2        1.0  0.8688600000000002  0.98096  0.01001  1.0000
  O   O3        1.0  0.17991  0.48112  0.00995  1.0000
  O   O4        1.0  0.8688600000000002  0.48096  0.01001  1.0000
  O   O5        1.0  0.024590000000000008  0.98092  0.021600000000000005  1.0000
  O   O6        1.0  0.024590000000000008  0.48091999999999996  0.021600000000000005  1.0000
  C   C1        1.0  0.7834700000000002  0.88923  0.05404  1.0000
  C   C2        1.0  0.2648200000000001  0.8891199999999999  0.053970000000000004  1.0000
  C   C3        1.0  0.7851600000000002  0.07197  0.054340000000000006  1.0000
  O   O7        1.0  0.3295900000000001  0.91701  0.03957  1.0000
  O   O8        1.0  0.20392000000000005  0.86664  0.03424  1.0000
  O   O9        1.0  0.71973  0.04486  0.03992  1.0000
  O   O10       1.0  0.8452900000000002  0.09501  0.03446  1.0000
  C   C4        1.0  0.26425  0.07186  0.05432  1.0000
  O   O11       1.0  0.32942  0.04443  0.03997  1.0000
  O   O12       1.0  0.20431000000000005  0.09497  0.03441000000000001  1.0000
  O   O13       1.0  0.71881  0.91732  0.03972  1.0000
  O   O14       1.0  0.8442000000000002  0.86682  0.034230000000000003  1.0000
  C   C5        1.0  0.7834700000000002  0.38923  0.05404  1.0000
  C   C6        1.0  0.2648200000000001  0.38912  0.053970000000000004  1.0000
  C   C7        1.0  0.7851600000000002  0.57197  0.054340000000000006  1.0000
  O   O15       1.0  0.3295900000000001  0.41700999999999994  0.03957  1.0000
  O   O16       1.0  0.20392000000000005  0.36663999999999997  0.03424  1.0000
  O   O17       1.0  0.71973  0.54486  0.03992  1.0000
  O   O18       1.0  0.8452900000000002  0.59501  0.03446  1.0000
  C   C8        1.0  0.26425  0.57186  0.05432  1.0000
  O   O19       1.0  0.32942  0.54443  0.03997  1.0000
  O   O20       1.0  0.20431000000000005  0.59497  0.03441000000000001  1.0000
  O   O21       1.0  0.71881  0.41732  0.03972  1.0000
  O   O22       1.0  0.8442000000000002  0.36682  0.034230000000000003  1.0000
  C   C9        1.0  0.27  0.09029999999999999  0.09179  1.0000
  H   H1        1.0  0.3246600000000001  0.18718  0.08747000000000002  1.0000
  H   H2        1.0  0.21759000000000006  0.77348  0.09018  1.0000
  C   C10       1.0  0.2705700000000001  0.87105  0.09156  1.0000
  H   H3        1.0  0.72443  0.18718  0.0875  1.0000
  C   C11       1.0  0.77937  0.09041000000000002  0.09182000000000001  1.0000
  H   H4        1.0  0.8311  0.77367  0.09016000000000002  1.0000
  C   C12       1.0  0.77795  0.87115  0.09163  1.0000
  C   C13       1.0  0.27  0.5903  0.09179  1.0000
  H   H5        1.0  0.3246600000000001  0.68718  0.08747000000000002  1.0000
  H   H6        1.0  0.21759000000000006  0.27348  0.09018  1.0000
  C   C14       1.0  0.2705700000000001  0.37105  0.09156  1.0000
  H   H7        1.0  0.72443  0.68718  0.0875  1.0000
  C   C15       1.0  0.77937  0.59041  0.09182000000000001  1.0000
  H   H8        1.0  0.8311  0.27367  0.09016000000000002  1.0000
  C   C16       1.0  0.77795  0.37115  0.09163  1.0000
  C   C17       1.0  0.3018900000000001  0.15081  0.1047  1.0000
  H   H9        1.0  0.12666  0.08213  0.10990000000000001  1.0000
  C   C18       1.0  0.24334  0.8104699999999999  0.10618000000000001  1.0000
  C   C19       1.0  0.7472500000000002  0.15084  0.10473  1.0000
  H   H10       1.0  0.9226700000000002  0.08255  0.11002000000000002  1.0000
  C   C20       1.0  0.80541  0.81062  0.10620000000000002  1.0000
  C   C21       1.0  0.3018900000000001  0.65081  0.1047  1.0000
  H   H11       1.0  0.12666  0.58213  0.10990000000000001  1.0000
  C   C22       1.0  0.24334  0.31048  0.10618000000000001  1.0000
  C   C23       1.0  0.7472500000000002  0.65084  0.10473  1.0000
  H   H12       1.0  0.9226700000000002  0.58255  0.11002000000000002  1.0000
  C   C24       1.0  0.80541  0.31062  0.10620000000000002  1.0000
  C   C25       1.0  0.3236100000000001  0.05815  0.11969000000000002  1.0000
  H   H13       1.0  0.3644100000000001  0.01888  0.11475000000000002  1.0000
  C   C26       1.0  0.22546  0.15381  0.13034  1.0000
  H   H14       1.0  0.18467000000000006  0.19308999999999998  0.13528  1.0000
  C   C27       1.0  0.19349000000000005  0.09297999999999998  0.11693  1.0000
  C   C28       1.0  0.19578000000000007  0.84232  0.13636  1.0000
  C   C29       1.0  0.32555  0.80893  0.12865  1.0000
  C   C30       1.0  0.35274  0.86977  0.11354000000000002  1.0000
  H   H15       1.0  0.4174200000000001  0.88116  0.1039  1.0000
  C   C31       1.0  0.22297000000000006  0.90316  0.12125000000000001  1.0000
  H   H16       1.0  0.18050000000000005  0.94202  0.11771000000000001  1.0000
  C   C32       1.0  0.8235900000000003  0.154  0.13042  1.0000
  H   H17       1.0  0.86425  0.19337  0.13538000000000003  1.0000
  C   C33       1.0  0.8557800000000002  0.09324  0.11701  1.0000
  C   C34       1.0  0.7257600000000002  0.05813  0.11969000000000002  1.0000
  H   H18       1.0  0.6850800000000002  0.01877  0.11472  1.0000
  C   C35       1.0  0.7233900000000002  0.80893  0.12877  1.0000
  C   C36       1.0  0.8531700000000002  0.84254  0.13631  1.0000
  C   C37       1.0  0.8257400000000003  0.90334  0.12125000000000001  1.0000
  H   H19       1.0  0.86812  0.94226  0.11765000000000002  1.0000
  C   C38       1.0  0.69597  0.8697299999999999  0.11371  1.0000
  H   H20       1.0  0.63119  0.8810099999999998  0.10416000000000002  1.0000
  C   C39       1.0  0.3236100000000001  0.55815  0.11969000000000002  1.0000
  H   H21       1.0  0.3644100000000001  0.51888  0.11475000000000002  1.0000
  C   C40       1.0  0.22547000000000006  0.65381  0.13034  1.0000
  H   H22       1.0  0.18467000000000006  0.69309  0.13528  1.0000
  C   C41       1.0  0.19349000000000005  0.59298  0.11693  1.0000
  C   C42       1.0  0.19578000000000007  0.34232  0.13636  1.0000
  C   C43       1.0  0.32555  0.30893  0.12865  1.0000
  C   C44       1.0  0.35274  0.36977  0.11354000000000002  1.0000
  H   H23       1.0  0.4174200000000001  0.38116  0.1039  1.0000
  C   C45       1.0  0.22297000000000006  0.40315999999999996  0.12125000000000001  1.0000
  H   H24       1.0  0.18050000000000005  0.44202  0.11771000000000001  1.0000
  C   C46       1.0  0.8235900000000003  0.654  0.13042  1.0000
  H   H25       1.0  0.86425  0.69337  0.13538000000000003  1.0000
  C   C47       1.0  0.8557800000000002  0.59324  0.11701  1.0000
  C   C48       1.0  0.7257600000000002  0.55813  0.11969000000000002  1.0000
  H   H26       1.0  0.6850800000000002  0.51877  0.11472  1.0000
  C   C49       1.0  0.7233900000000002  0.30893  0.12877  1.0000
  C   C50       1.0  0.8531600000000003  0.34254  0.13631  1.0000
  C   C51       1.0  0.8257400000000003  0.40334  0.12125000000000001  1.0000
  H   H27       1.0  0.86812  0.44226  0.11765000000000002  1.0000
  C   C52       1.0  0.69597  0.36973  0.11371  1.0000
  H   H28       1.0  0.63119  0.38100999999999996  0.10416000000000002  1.0000
  C   C53       1.0  0.7641300000000002  0.14012  0.19578  1.0000
  O   O23       1.0  0.21905000000000005  0.29494  0.21032000000000003  1.0000
  C   C54       1.0  0.28371000000000013  0.32298  0.19592  1.0000
  C   C55       1.0  0.28482  0.14008  0.19572  1.0000
  C   C56       1.0  0.7657  0.32300999999999996  0.19599  1.0000
  O   O24       1.0  0.8302700000000002  0.29477  0.21026  1.0000
  O   O25       1.0  0.21958000000000005  0.16738  0.21009  1.0000
  O   O26       1.0  0.8294200000000003  0.16738  0.21019  1.0000
  C   C57       1.0  0.24718000000000007  0.06115  0.14533  1.0000
  H   H29       1.0  0.22439000000000006  0.02479  0.16256000000000004  1.0000
  C   C58       1.0  0.35558  0.11898  0.1331  1.0000
  H   H30       1.0  0.42241  0.12983  0.14013000000000003  1.0000
  C   C59       1.0  0.27907  0.12165999999999999  0.15824000000000002  1.0000
  H   H31       1.0  0.13110000000000005  0.83094  0.146  1.0000
  H   H32       1.0  0.36802  0.77008  0.13219  1.0000
  C   C60       1.0  0.2779500000000001  0.8410499999999999  0.15833  1.0000
  C   C61       1.0  0.3051800000000001  0.90162  0.14372  1.0000
  H   H33       1.0  0.33095  0.93859  0.15973  1.0000
  C   C62       1.0  0.76997  0.12170999999999998  0.15829  1.0000
  C   C63       1.0  0.8020900000000002  0.061279999999999994  0.14537  1.0000
  H   H34       1.0  0.82491  0.02495  0.16261  1.0000
  C   C64       1.0  0.69356  0.11888  0.1331  1.0000
  H   H35       1.0  0.62668  0.12957  0.14009  1.0000
  H   H36       1.0  0.6810200000000002  0.77  0.13237000000000002  1.0000
  H   H37       1.0  0.9179400000000002  0.83126  0.14587  1.0000
  C   C65       1.0  0.7711900000000003  0.84112  0.1584  1.0000
  C   C66       1.0  0.7437300000000002  0.90164  0.14383  1.0000
  H   H38       1.0  0.7180400000000002  0.93858  0.15988  1.0000
  C   C67       1.0  0.7641300000000002  0.64012  0.19578  1.0000
  O   O27       1.0  0.21905000000000005  0.7949399999999999  0.21032000000000003  1.0000
  C   C68       1.0  0.28371000000000013  0.8229799999999999  0.19592  1.0000
  C   C69       1.0  0.28482  0.64008  0.19572  1.0000
  C   C70       1.0  0.7657100000000002  0.82301  0.19599  1.0000
  O   O28       1.0  0.8302700000000002  0.7947699999999999  0.21026  1.0000
  O   O29       1.0  0.21958000000000005  0.66738  0.21009  1.0000
  O   O30       1.0  0.8294200000000003  0.66738  0.21019  1.0000
  C   C71       1.0  0.24718000000000007  0.56115  0.14533  1.0000
  H   H39       1.0  0.22439000000000006  0.52479  0.16256000000000004  1.0000
  C   C72       1.0  0.35558  0.61899  0.1331  1.0000
  H   H40       1.0  0.42241  0.62983  0.14013000000000003  1.0000
  C   C73       1.0  0.27907  0.62166  0.15824000000000002  1.0000
  H   H41       1.0  0.13110000000000005  0.33094  0.146  1.0000
  H   H42       1.0  0.36802  0.27008  0.13219  1.0000
  C   C74       1.0  0.2779500000000001  0.34105  0.15833  1.0000
  C   C75       1.0  0.3051800000000001  0.40162  0.14372  1.0000
  H   H43       1.0  0.33095  0.4385899999999999  0.15973  1.0000
  C   C76       1.0  0.76997  0.62171  0.15829  1.0000
  C   C77       1.0  0.8020900000000002  0.56128  0.14537  1.0000
  H   H44       1.0  0.82491  0.52495  0.16261  1.0000
  C   C78       1.0  0.69356  0.61888  0.1331  1.0000
  H   H45       1.0  0.62668  0.62957  0.14009  1.0000
  H   H46       1.0  0.6810200000000002  0.27  0.13237000000000002  1.0000
  H   H47       1.0  0.9179400000000002  0.33126  0.14587  1.0000
  C   C79       1.0  0.7711900000000003  0.3411199999999999  0.1584  1.0000
  C   C80       1.0  0.7437300000000002  0.40164  0.14383  1.0000
  H   H48       1.0  0.7180400000000002  0.43858  0.15988  1.0000
  Co  Co13      1.0  0.62786  0.29354  0.24747  1.0000
  Co  Co14      1.0  0.42139  0.16831  0.24737000000000003  1.0000
  Co  Co15      1.0  0.4215700000000001  0.29387  0.24732  1.0000
  Co  Co16      1.0  0.6275000000000002  0.1682  0.24736000000000002  1.0000
  Co  Co17      1.0  0.8136900000000002  0.23102  0.24908  1.0000
  Co  Co18      1.0  0.23549000000000006  0.23093  0.24880000000000002  1.0000
  O   O31       1.0  0.3690700000000001  0.23082999999999998  0.23993000000000003  1.0000
  O   O32       1.0  0.5250800000000002  0.34649  0.25046  1.0000
  O   O33       1.0  0.5241900000000003  0.11546  0.2507  1.0000
  O   O34       1.0  0.52444  0.23107  0.22831  1.0000
  O   O35       1.0  0.34459  0.34547  0.21567  1.0000
  O   O36       1.0  0.70498  0.3454  0.21582  1.0000
  O   O37       1.0  0.34483  0.11703  0.21561  1.0000
  O   O38       1.0  0.68018  0.23110999999999998  0.23998  1.0000
  O   O39       1.0  0.70406  0.11702  0.21565  1.0000
  Co  Co19      1.0  0.62786  0.79354  0.24747  1.0000
  Co  Co20      1.0  0.42139  0.66831  0.24737000000000003  1.0000
  Co  Co21      1.0  0.4215700000000001  0.79387  0.24732  1.0000
  Co  Co22      1.0  0.6275000000000002  0.6682  0.24736000000000002  1.0000
  Co  Co23      1.0  0.8136900000000002  0.7310199999999999  0.24908  1.0000
  Co  Co24      1.0  0.23549000000000006  0.73093  0.24880000000000002  1.0000
  O   O40       1.0  0.3690700000000001  0.73083  0.23993000000000003  1.0000
  O   O41       1.0  0.5250800000000002  0.84649  0.25046  1.0000
  O   O42       1.0  0.5241900000000003  0.61546  0.2507  1.0000
  O   O43       1.0  0.52444  0.73107  0.22831  1.0000
  O   O44       1.0  0.34459  0.8454699999999999  0.21567  1.0000
  O   O45       1.0  0.70498  0.8453999999999999  0.21582  1.0000
  O   O46       1.0  0.34483  0.61703  0.21561  1.0000
  O   O47       1.0  0.68018  0.7311099999999999  0.23998  1.0000
  O   O48       1.0  0.70406  0.61702  0.21565  1.0000
  O   O49       1.0  0.24174000000000007  0.29794  0.28683  1.0000
  O   O50       1.0  0.80759  0.16353  0.2866  1.0000
  O   O51       1.0  0.24130000000000004  0.16362  0.28663  1.0000
  O   O52       1.0  0.80758  0.29795  0.28693  1.0000
  O   O53       1.0  0.24174000000000007  0.79794  0.28683  1.0000
  O   O54       1.0  0.80759  0.66353  0.2866  1.0000
  O   O55       1.0  0.24130000000000004  0.66362  0.28663  1.0000
  O   O56       1.0  0.80758  0.79795  0.28693  1.0000
  O   O57       1.0  0.38481  0.29589  0.29905  1.0000
  O   O58       1.0  0.6648  0.16582  0.29917  1.0000
  O   O59       1.0  0.3840400000000001  0.16609  0.29926  1.0000
  O   O60       1.0  0.66454  0.29558  0.29914  1.0000
  O   O61       1.0  0.38481  0.7958899999999999  0.29905  1.0000
  O   O62       1.0  0.6648  0.66582  0.29917  1.0000
  O   O63       1.0  0.3840400000000001  0.66609  0.29926  1.0000
  O   O64       1.0  0.66454  0.79558  0.29914  1.0000
  C   C81       1.0  0.7437000000000002  0.30461  0.30906  1.0000
  C   C82       1.0  0.30559  0.30464  0.30897  1.0000
  C   C83       1.0  0.74415  0.15704  0.30893  1.0000
  C   C84       1.0  0.30469  0.15723  0.30899  1.0000
  C   C85       1.0  0.7437000000000002  0.80461  0.30906  1.0000
  C   C86       1.0  0.30559  0.8046399999999999  0.30897  1.0000
  C   C87       1.0  0.74415  0.65704  0.30893  1.0000
  C   C88       1.0  0.30469  0.65723  0.30899  1.0000
  H   H49       1.0  0.3348300000000001  0.03217  0.3349  1.0000
  H   H50       1.0  0.7940000000000003  0.9301099999999999  0.32856  1.0000
  H   H51       1.0  0.71397  0.03199  0.33501  1.0000
  H   H52       1.0  0.25507000000000013  0.9300199999999998  0.32851  1.0000
  H   H53       1.0  0.3348300000000001  0.53217  0.3349  1.0000
  H   H54       1.0  0.7940000000000003  0.43011  0.32856  1.0000
  H   H55       1.0  0.71397  0.53199  0.33501  1.0000
  H   H56       1.0  0.25507000000000013  0.43001999999999996  0.32851  1.0000
  C   C89       1.0  0.30747  0.06537  0.35320000000000007  1.0000
  C   C90       1.0  0.2878500000000001  0.13033  0.34406  1.0000
  C   C91       1.0  0.75998  0.83164  0.34413  1.0000
  C   C92       1.0  0.7850000000000003  0.89684  0.34972  1.0000
  C   C93       1.0  0.74136  0.06528  0.35326  1.0000
  C   C94       1.0  0.7609600000000002  0.13023  0.34404  1.0000
  C   C95       1.0  0.264  0.89674  0.34966  1.0000
  C   C96       1.0  0.28917  0.83158  0.34406  1.0000
  C   C97       1.0  0.30747  0.56537  0.35320000000000007  1.0000
  C   C98       1.0  0.2878500000000001  0.63033  0.34406  1.0000
  C   C99       1.0  0.75998  0.33164  0.34413  1.0000
  C   C100      1.0  0.7850000000000003  0.39684  0.34972  1.0000
  C   C101      1.0  0.74136  0.56528  0.35326  1.0000
  C   C102      1.0  0.7609600000000002  0.63023  0.34404  1.0000
  C   C103      1.0  0.264  0.3967399999999999  0.34966  1.0000
  C   C104      1.0  0.28917  0.33158  0.34406  1.0000
  C   C105      1.0  0.21980000000000005  0.06065999999999999  0.37159  1.0000
  H   H57       1.0  0.17478  0.02293  0.36911  1.0000
  C   C106      1.0  0.34866  0.08607  0.38804  1.0000
  H   H58       1.0  0.4095900000000001  0.06933  0.39897  1.0000
  C   C107      1.0  0.3292500000000001  0.15141  0.3784400000000001  1.0000
  H   H59       1.0  0.37428  0.18913  0.38092  1.0000
  C   C108      1.0  0.20039000000000007  0.12599  0.362  1.0000
  H   H60       1.0  0.13946  0.14273  0.35106000000000004  1.0000
  C   C109      1.0  0.8289800000000003  0.81113  0.37  1.0000
  H   H61       1.0  0.8738300000000002  0.77385  0.36558  1.0000
  C   C110      1.0  0.8542900000000002  0.87671  0.37603  1.0000
  H   H62       1.0  0.9204000000000002  0.89407  0.37712  1.0000
  C   C111      1.0  0.71937  0.90099  0.37997  1.0000
  H   H63       1.0  0.6745200000000002  0.93827  0.38438  1.0000
  C   C112      1.0  0.69406  0.8354  0.37393  1.0000
  H   H64       1.0  0.6279500000000002  0.81805  0.37284  1.0000
  C   C113      1.0  0.70022  0.08605  0.3880900000000001  1.0000
  H   H65       1.0  0.6392900000000002  0.06929  0.39905  1.0000
  C   C114      1.0  0.82905  0.0607  0.37165  1.0000
  H   H66       1.0  0.87408  0.023009999999999996  0.36919000000000013  1.0000
  C   C115      1.0  0.8484400000000002  0.12602  0.36197  1.0000
  H   H67       1.0  0.9093700000000002  0.14278  0.35101  1.0000
  C   C116      1.0  0.7196100000000002  0.15137  0.37841  1.0000
  H   H68       1.0  0.67458  0.18906  0.38086  1.0000
  C   C117      1.0  0.32945  0.9009599999999999  0.37997  1.0000
  H   H69       1.0  0.37421  0.93832  0.38445000000000007  1.0000
  C   C118      1.0  0.3549100000000001  0.83543  0.37393  1.0000
  H   H70       1.0  0.42107  0.81819  0.37290000000000006  1.0000
  C   C119      1.0  0.22006  0.81093  0.36986  1.0000
  H   H71       1.0  0.17530000000000007  0.77357  0.36538000000000004  1.0000
  C   C120      1.0  0.19460000000000002  0.8764599999999999  0.37590000000000007  1.0000
  H   H72       1.0  0.12845  0.8936999999999999  0.37692000000000003  1.0000
  C   C121      1.0  0.21980000000000005  0.56066  0.37159  1.0000
  H   H73       1.0  0.17478  0.52293  0.36911  1.0000
  C   C122      1.0  0.34866  0.58607  0.38804  1.0000
  H   H74       1.0  0.4095900000000001  0.56933  0.39897  1.0000
  C   C123      1.0  0.3292500000000001  0.65141  0.3784400000000001  1.0000
  H   H75       1.0  0.37428  0.68913  0.38092  1.0000
  C   C124      1.0  0.20039000000000007  0.62599  0.362  1.0000
  H   H76       1.0  0.13946  0.64273  0.35106000000000004  1.0000
  C   C125      1.0  0.8289800000000003  0.31113  0.37  1.0000
  H   H77       1.0  0.8738300000000002  0.27385  0.36558  1.0000
  C   C126      1.0  0.8542900000000002  0.37671  0.37603  1.0000
  H   H78       1.0  0.9204000000000002  0.39406  0.37712  1.0000
  C   C127      1.0  0.71937  0.40098999999999996  0.37997  1.0000
  H   H79       1.0  0.6745200000000002  0.43826999999999994  0.38438  1.0000
  C   C128      1.0  0.69406  0.3354  0.37393  1.0000
  H   H80       1.0  0.6279500000000002  0.31805  0.37284  1.0000
  C   C129      1.0  0.70022  0.58605  0.3880900000000001  1.0000
  H   H81       1.0  0.6392900000000002  0.56929  0.39905  1.0000
  C   C130      1.0  0.82905  0.5607  0.37165  1.0000
  H   H82       1.0  0.87408  0.52301  0.36919000000000013  1.0000
  C   C131      1.0  0.8484400000000002  0.62602  0.36197  1.0000
  H   H83       1.0  0.9093700000000002  0.64278  0.35101  1.0000
  C   C132      1.0  0.7196100000000002  0.65137  0.37841  1.0000
  H   H84       1.0  0.67458  0.68906  0.38086  1.0000
  C   C133      1.0  0.32946  0.40096  0.37997  1.0000
  H   H85       1.0  0.37421  0.43832  0.38445000000000007  1.0000
  C   C134      1.0  0.3549100000000001  0.33543  0.37393  1.0000
  H   H86       1.0  0.42107  0.31819  0.37290000000000006  1.0000
  C   C135      1.0  0.22006  0.31093  0.36986  1.0000
  H   H87       1.0  0.17530000000000007  0.27357  0.36538000000000004  1.0000
  C   C136      1.0  0.19460000000000002  0.37646  0.37590000000000007  1.0000
  H   H88       1.0  0.12845  0.39369999999999994  0.37692000000000003  1.0000
  C   C137      1.0  0.8047000000000002  0.055049999999999995  0.44112000000000007  1.0000
  C   C138      1.0  0.24374000000000007  0.90725  0.44084  1.0000
  C   C139      1.0  0.24428000000000005  0.05483  0.44103000000000003  1.0000
  C   C140      1.0  0.80476  0.9075  0.4409  1.0000
  C   C141      1.0  0.2612  0.08174  0.4059700000000001  1.0000
  C   C142      1.0  0.24158000000000002  0.1467  0.39683  1.0000
  H   H89       1.0  0.21422000000000005  0.1799  0.41513000000000005  1.0000
  C   C143      1.0  0.7633500000000002  0.8152799999999999  0.40025  1.0000
  H   H90       1.0  0.75436  0.78201  0.42140000000000005  1.0000
  C   C144      1.0  0.78837  0.8804799999999999  0.40584  1.0000
  C   C145      1.0  0.7877100000000002  0.08185  0.40602  1.0000
  C   C146      1.0  0.8073000000000002  0.1468  0.39679  1.0000
  H   H91       1.0  0.8346900000000002  0.18009  0.41505000000000003  1.0000
  C   C147      1.0  0.26033  0.8802999999999999  0.40577  1.0000
  C   C148      1.0  0.2855100000000001  0.81515  0.40017  1.0000
  H   H92       1.0  0.29444  0.7818699999999998  0.42132000000000003  1.0000
  C   C149      1.0  0.8047000000000002  0.55505  0.44112000000000007  1.0000
  C   C150      1.0  0.24373  0.40725  0.44084  1.0000
  C   C151      1.0  0.24428000000000005  0.55483  0.44103000000000003  1.0000
  C   C152      1.0  0.80476  0.4075  0.4409  1.0000
  C   C153      1.0  0.2612  0.58174  0.4059700000000001  1.0000
  C   C154      1.0  0.24158000000000002  0.6467  0.39683  1.0000
  H   H93       1.0  0.21422000000000005  0.6799  0.41513000000000005  1.0000
  C   C155      1.0  0.7633500000000002  0.31528  0.40025  1.0000
  H   H94       1.0  0.75436  0.28201  0.42140000000000005  1.0000
  C   C156      1.0  0.78837  0.38048  0.40584  1.0000
  C   C157      1.0  0.7877100000000002  0.58185  0.40602  1.0000
  C   C158      1.0  0.8073000000000002  0.6468  0.39679  1.0000
  H   H95       1.0  0.8346900000000002  0.68009  0.41505000000000003  1.0000
  C   C159      1.0  0.26033  0.38029999999999997  0.40577  1.0000
  C   C160      1.0  0.2855100000000001  0.31515  0.40017  1.0000
  H   H96       1.0  0.29444  0.28187  0.42132000000000003  1.0000
  O   O65       1.0  0.16445  0.9159199999999998  0.45071000000000006  1.0000
  O   O66       1.0  0.8839600000000002  0.9164  0.45081000000000004  1.0000
  O   O67       1.0  0.1649  0.04595  0.45073  1.0000
  O   O68       1.0  0.88411  0.046299999999999994  0.4508  1.0000
  O   O69       1.0  0.16445  0.41592  0.45071000000000006  1.0000
  O   O70       1.0  0.8839600000000002  0.4164  0.45081000000000004  1.0000
  O   O71       1.0  0.1649  0.54595  0.45073  1.0000
  O   O72       1.0  0.88411  0.5463  0.4508  1.0000
  O   O73       1.0  0.30748  0.9140099999999999  0.46304000000000006  1.0000
  O   O74       1.0  0.7408800000000002  0.9143299999999999  0.46302000000000004  1.0000
  O   O75       1.0  0.30759  0.04844  0.46342000000000005  1.0000
  O   O76       1.0  0.7414000000000002  0.04867  0.46353  1.0000
  O   O77       1.0  0.30748  0.41401  0.46304000000000006  1.0000
  O   O78       1.0  0.7408800000000002  0.41433  0.46302000000000004  1.0000
  O   O79       1.0  0.30759  0.54844  0.46342000000000005  1.0000
  O   O80       1.0  0.7414000000000002  0.54867  0.46353  1.0000
  O   O81       1.0  0.02380000000000001  0.8655599999999999  0.49933  1.0000
  O   O82       1.0  0.024890000000000006  0.09656  0.49933  1.0000
  O   O83       1.0  0.02380000000000001  0.36556000000000005  0.49933  1.0000
  O   O84       1.0  0.024890000000000006  0.59656  0.49933  1.0000
  Co  Co25      1.0  0.92097  0.9184099999999998  0.50268  1.0000
  Co  Co26      1.0  0.1276  0.04359  0.50237  1.0000
  Co  Co27      1.0  0.12737  0.91813  0.50248  1.0000
  Co  Co28      1.0  0.92164  0.04373  0.50238  1.0000
  Co  Co29      1.0  0.73525  0.98117  0.50121  1.0000
  Co  Co30      1.0  0.31345  0.9810299999999998  0.50091  1.0000
  Co  Co31      1.0  0.92097  0.41840999999999995  0.50268  1.0000
  Co  Co32      1.0  0.1276  0.54359  0.50237  1.0000
  Co  Co33      1.0  0.12737  0.41812999999999995  0.50248  1.0000
  Co  Co34      1.0  0.92164  0.54373  0.50238  1.0000
  Co  Co35      1.0  0.73525  0.48117  0.50121  1.0000
  Co  Co36      1.0  0.31345  0.48103  0.50091  1.0000
  O   O85       1.0  0.17991  0.9811199999999999  0.50995  1.0000
  O   O86       1.0  0.024590000000000008  0.98092  0.5216  1.0000
  O   O87       1.0  0.8688600000000002  0.98096  0.51001  1.0000
  O   O88       1.0  0.17991  0.48112  0.50995  1.0000
  O   O89       1.0  0.024590000000000008  0.48091999999999996  0.5216  1.0000
  O   O90       1.0  0.8688600000000002  0.48096  0.51001  1.0000
  C   C161      1.0  0.7834700000000002  0.88923  0.55404  1.0000
  C   C162      1.0  0.2648200000000001  0.8891199999999999  0.55397  1.0000
  C   C163      1.0  0.7851600000000002  0.07197  0.55434  1.0000
  O   O91       1.0  0.3295900000000001  0.91701  0.53956  1.0000
  O   O92       1.0  0.20392000000000005  0.86664  0.53424  1.0000
  O   O93       1.0  0.71973  0.04486  0.5399200000000001  1.0000
  O   O94       1.0  0.8452900000000002  0.09501  0.53446  1.0000
  C   C164      1.0  0.26425  0.07186  0.55432  1.0000
  O   O95       1.0  0.32942  0.04443  0.53997  1.0000
  O   O96       1.0  0.20431000000000005  0.09497  0.53441  1.0000
  O   O97       1.0  0.71881  0.91732  0.53972  1.0000
  O   O98       1.0  0.8442000000000002  0.86682  0.53423  1.0000
  C   C165      1.0  0.7834700000000002  0.38923  0.55404  1.0000
  C   C166      1.0  0.2648200000000001  0.38912  0.55397  1.0000
  C   C167      1.0  0.7851600000000002  0.57197  0.55434  1.0000
  O   O99       1.0  0.3295900000000001  0.41700999999999994  0.53956  1.0000
  O   O100      1.0  0.20392000000000005  0.36663999999999997  0.53424  1.0000
  O   O101      1.0  0.71973  0.54486  0.5399200000000001  1.0000
  O   O102      1.0  0.8452900000000002  0.59501  0.53446  1.0000
  C   C168      1.0  0.26425  0.57186  0.55432  1.0000
  O   O103      1.0  0.32942  0.54443  0.53997  1.0000
  O   O104      1.0  0.20431000000000005  0.59497  0.53441  1.0000
  O   O105      1.0  0.71881  0.41732  0.53972  1.0000
  O   O106      1.0  0.8442000000000002  0.36681  0.53423  1.0000
  C   C169      1.0  0.27  0.09029999999999999  0.59179  1.0000
  C   C170      1.0  0.3018900000000001  0.15081  0.6047  1.0000
  H   H97       1.0  0.3246700000000001  0.18718  0.58747  1.0000
  H   H98       1.0  0.12666  0.08213  0.6099  1.0000
  C   C171      1.0  0.24334  0.81048  0.60618  1.0000
  H   H99       1.0  0.21759000000000006  0.77348  0.59018  1.0000
  C   C172      1.0  0.2705700000000001  0.87104  0.59157  1.0000
  H   H100      1.0  0.18050000000000005  0.94202  0.6177100000000001  1.0000
  C   C173      1.0  0.7472500000000002  0.15084  0.6047300000000001  1.0000
  H   H101      1.0  0.72443  0.18718  0.5875  1.0000
  H   H102      1.0  0.9226700000000002  0.08255  0.61002  1.0000
  C   C174      1.0  0.77937  0.09041000000000002  0.59182  1.0000
  C   C175      1.0  0.80541  0.81062  0.6062  1.0000
  H   H103      1.0  0.8311  0.77367  0.59016  1.0000
  C   C176      1.0  0.77795  0.87115  0.59163  1.0000
  H   H104      1.0  0.86812  0.94226  0.61765  1.0000
  C   C177      1.0  0.27  0.5903  0.59179  1.0000
  C   C178      1.0  0.3018900000000001  0.65081  0.6047  1.0000
  H   H105      1.0  0.3246700000000001  0.68718  0.58747  1.0000
  H   H106      1.0  0.12667  0.58213  0.6099  1.0000
  C   C179      1.0  0.24334  0.31048  0.60618  1.0000
  H   H107      1.0  0.21759000000000006  0.27348  0.59018  1.0000
  C   C180      1.0  0.2705700000000001  0.37105  0.59157  1.0000
  H   H108      1.0  0.18050000000000005  0.44202  0.6177100000000001  1.0000
  C   C181      1.0  0.7472500000000002  0.65084  0.6047300000000001  1.0000
  H   H109      1.0  0.72443  0.68718  0.5875  1.0000
  H   H110      1.0  0.9226700000000002  0.58255  0.61002  1.0000
  C   C182      1.0  0.77937  0.59041  0.59182  1.0000
  C   C183      1.0  0.80541  0.31062  0.6062  1.0000
  H   H111      1.0  0.8311  0.27367  0.59016  1.0000
  C   C184      1.0  0.77795  0.37115  0.59163  1.0000
  H   H112      1.0  0.86812  0.44226  0.61765  1.0000
  C   C185      1.0  0.22547000000000006  0.15381  0.63034  1.0000
  H   H113      1.0  0.18467000000000006  0.19308999999999998  0.63528  1.0000
  C   C186      1.0  0.19349000000000005  0.09297999999999998  0.61693  1.0000
  C   C187      1.0  0.19578000000000007  0.84232  0.63636  1.0000
  H   H114      1.0  0.13110000000000005  0.83094  0.646  1.0000
  C   C188      1.0  0.22297000000000006  0.90316  0.62126  1.0000
  C   C189      1.0  0.8235900000000003  0.154  0.63042  1.0000
  H   H115      1.0  0.86425  0.19337  0.63538  1.0000
  C   C190      1.0  0.8557800000000002  0.09324  0.61701  1.0000
  C   C191      1.0  0.8531700000000002  0.84254  0.63631  1.0000
  H   H116      1.0  0.9179400000000002  0.83126  0.64587  1.0000
  C   C192      1.0  0.8257400000000003  0.90334  0.62125  1.0000
  C   C193      1.0  0.22547000000000006  0.65381  0.63034  1.0000
  H   H117      1.0  0.18467000000000006  0.69309  0.63528  1.0000
  C   C194      1.0  0.19349000000000005  0.59298  0.61693  1.0000
  C   C195      1.0  0.19578000000000007  0.34232  0.63636  1.0000
  H   H118      1.0  0.13110000000000005  0.33094  0.646  1.0000
  C   C196      1.0  0.22297000000000006  0.40315999999999996  0.62126  1.0000
  C   C197      1.0  0.8235900000000003  0.654  0.63042  1.0000
  H   H119      1.0  0.86425  0.69337  0.63538  1.0000
  C   C198      1.0  0.8557800000000002  0.59324  0.61701  1.0000
  C   C199      1.0  0.8531700000000002  0.34254  0.63631  1.0000
  H   H120      1.0  0.9179400000000002  0.33126  0.64587  1.0000
  C   C200      1.0  0.8257400000000003  0.40334  0.62125  1.0000
  C   C201      1.0  0.3236100000000001  0.05815  0.61969  1.0000
  H   H121      1.0  0.3644100000000001  0.01888  0.61475  1.0000
  C   C202      1.0  0.35558  0.11899  0.6331  1.0000
  C   C203      1.0  0.32555  0.80893  0.6286500000000002  1.0000
  C   C204      1.0  0.35274  0.86977  0.61354  1.0000
  H   H122      1.0  0.4174200000000001  0.88116  0.6039  1.0000
  C   C205      1.0  0.7257600000000002  0.05813  0.61969  1.0000
  H   H123      1.0  0.6850800000000002  0.01877  0.61472  1.0000
  C   C206      1.0  0.69356  0.11888  0.6331  1.0000
  C   C207      1.0  0.7233900000000002  0.80893  0.62877  1.0000
  C   C208      1.0  0.69597  0.8697299999999999  0.61371  1.0000
  H   H124      1.0  0.63119  0.8810099999999998  0.60416  1.0000
  C   C209      1.0  0.3236100000000001  0.55815  0.61969  1.0000
  H   H125      1.0  0.3644100000000001  0.51888  0.61475  1.0000
  C   C210      1.0  0.35558  0.61899  0.6331  1.0000
  C   C211      1.0  0.32555  0.30893  0.6286500000000002  1.0000
  C   C212      1.0  0.35274  0.36977  0.61354  1.0000
  H   H126      1.0  0.4174200000000001  0.38116  0.6039  1.0000
  C   C213      1.0  0.7257600000000002  0.55813  0.61969  1.0000
  H   H127      1.0  0.6850800000000002  0.51877  0.61472  1.0000
  C   C214      1.0  0.69356  0.61888  0.6331  1.0000
  C   C215      1.0  0.7233900000000002  0.30893  0.62877  1.0000
  C   C216      1.0  0.69597  0.36973  0.61371  1.0000
  H   H128      1.0  0.63119  0.381  0.60416  1.0000
  H   H129      1.0  0.42241  0.12983  0.64013  1.0000
  H   H130      1.0  0.42241  0.62983  0.64013  1.0000
  H   H131      1.0  0.36802  0.77008  0.63219  1.0000
  H   H132      1.0  0.6810200000000002  0.77  0.63237  1.0000
  H   H133      1.0  0.36802  0.27008  0.63219  1.0000
  H   H134      1.0  0.6810200000000002  0.27  0.63237  1.0000
  H   H135      1.0  0.62668  0.12957  0.64009  1.0000
  H   H136      1.0  0.62668  0.62957  0.64009  1.0000
  C   C217      1.0  0.8046900000000002  0.055049999999999995  0.94112  1.0000
  O   O107      1.0  0.30747  0.9140099999999999  0.96304  1.0000
  C   C218      1.0  0.24374000000000007  0.90725  0.94084  1.0000
  O   O108      1.0  0.02380000000000001  0.8655599999999999  0.99933  1.0000
  O   O109      1.0  0.024890000000000006  0.09656  0.99933  1.0000
  C   C219      1.0  0.24428000000000005  0.05483  0.94103  1.0000
  C   C220      1.0  0.80476  0.9075  0.9409000000000001  1.0000
  O   O110      1.0  0.16445  0.9159199999999998  0.95071  1.0000
  O   O111      1.0  0.7408800000000002  0.9143299999999999  0.96302  1.0000
  O   O112      1.0  0.8839600000000002  0.9164  0.95081  1.0000
  O   O113      1.0  0.30759  0.04844  0.9634200000000002  1.0000
  O   O114      1.0  0.1649  0.04595  0.95073  1.0000
  O   O115      1.0  0.7414000000000002  0.04867  0.96353  1.0000
  O   O116      1.0  0.88411  0.046299999999999994  0.9508  1.0000
  C   C221      1.0  0.30747  0.06537  0.8532000000000001  1.0000
  H   H137      1.0  0.3348300000000001  0.03217  0.8349  1.0000
  C   C222      1.0  0.21980000000000005  0.06065999999999999  0.87159  1.0000
  H   H138      1.0  0.17478  0.02293  0.86911  1.0000
  C   C223      1.0  0.34866  0.08607  0.88804  1.0000
  H   H139      1.0  0.4095900000000001  0.06933  0.8989700000000002  1.0000
  C   C224      1.0  0.2612  0.08174  0.90597  1.0000
  C   C225      1.0  0.2878500000000001  0.13033  0.84406  1.0000
  C   C226      1.0  0.3292500000000001  0.15141  0.8784400000000001  1.0000
  H   H140      1.0  0.37428  0.18913  0.8809200000000001  1.0000
  C   C227      1.0  0.24158000000000002  0.1467  0.8968300000000001  1.0000
  H   H141      1.0  0.21422000000000005  0.1799  0.91513  1.0000
  C   C228      1.0  0.20039000000000007  0.12599  0.86199  1.0000
  H   H142      1.0  0.13945000000000005  0.14273  0.8510600000000001  1.0000
  C   C229      1.0  0.8289800000000003  0.81113  0.87  1.0000
  H   H143      1.0  0.8738300000000002  0.77385  0.86558  1.0000
  C   C230      1.0  0.7633500000000002  0.81527  0.90025  1.0000
  H   H144      1.0  0.75436  0.78201  0.9214  1.0000
  C   C231      1.0  0.8542900000000002  0.87671  0.87603  1.0000
  H   H145      1.0  0.9204000000000002  0.8940599999999999  0.8771200000000001  1.0000
  C   C232      1.0  0.78837  0.8804799999999999  0.9058400000000001  1.0000
  C   C233      1.0  0.75998  0.83164  0.8441300000000002  1.0000
  C   C234      1.0  0.7850000000000003  0.89684  0.84972  1.0000
  H   H146      1.0  0.7940000000000003  0.9301099999999999  0.82856  1.0000
  C   C235      1.0  0.71937  0.90099  0.87997  1.0000
  H   H147      1.0  0.6745200000000002  0.93827  0.88438  1.0000
  C   C236      1.0  0.69406  0.8354  0.87393  1.0000
  H   H148      1.0  0.6279500000000002  0.81805  0.87284  1.0000
  C   C237      1.0  0.74136  0.06528  0.8532600000000001  1.0000
  H   H149      1.0  0.71397  0.03199  0.83501  1.0000
  C   C238      1.0  0.70022  0.08605  0.88809  1.0000
  H   H150      1.0  0.6392900000000002  0.06929  0.89906  1.0000
  C   C239      1.0  0.82905  0.0607  0.8716500000000001  1.0000
  H   H151      1.0  0.87408  0.023009999999999996  0.8691900000000001  1.0000
  C   C240      1.0  0.7877100000000002  0.08185  0.9060200000000002  1.0000
  C   C241      1.0  0.7609600000000002  0.13023  0.84404  1.0000
  C   C242      1.0  0.8484400000000002  0.12602  0.86197  1.0000
  H   H152      1.0  0.9093700000000002  0.14278  0.85101  1.0000
  C   C243      1.0  0.8073000000000002  0.1468  0.8968  1.0000
  H   H153      1.0  0.8346800000000002  0.18009  0.91505  1.0000
  C   C244      1.0  0.7196100000000002  0.15137  0.87841  1.0000
  H   H154      1.0  0.67458  0.18906  0.88086  1.0000
  C   C245      1.0  0.32945  0.9009599999999999  0.87997  1.0000
  H   H155      1.0  0.37421  0.93832  0.88445  1.0000
  C   C246      1.0  0.264  0.89674  0.84966  1.0000
  H   H156      1.0  0.25507000000000013  0.9300199999999998  0.82851  1.0000
  C   C247      1.0  0.3549100000000001  0.83543  0.87393  1.0000
  H   H157      1.0  0.42107  0.81819  0.8729  1.0000
  C   C248      1.0  0.28917  0.83158  0.84406  1.0000
  C   C249      1.0  0.26033  0.8802999999999999  0.90577  1.0000
  C   C250      1.0  0.2855100000000001  0.81515  0.90017  1.0000
  H   H158      1.0  0.29444  0.7818699999999998  0.92132  1.0000
  C   C251      1.0  0.22005000000000005  0.81093  0.86986  1.0000
  H   H159      1.0  0.17530000000000007  0.77357  0.86538  1.0000
  C   C252      1.0  0.19460000000000002  0.8764599999999999  0.8759  1.0000
  H   H160      1.0  0.12845  0.8936999999999999  0.87692  1.0000
  Co  Co37      1.0  0.62786  0.29354  0.74747  1.0000
  Co  Co38      1.0  0.42139  0.16831  0.74737  1.0000
  Co  Co39      1.0  0.4215700000000001  0.29387  0.74732  1.0000
  Co  Co40      1.0  0.6275000000000002  0.1682  0.74736  1.0000
  C   C253      1.0  0.7437000000000002  0.30461  0.80905  1.0000
  Co  Co41      1.0  0.81368  0.23102  0.74908  1.0000
  Co  Co42      1.0  0.23549000000000006  0.23093  0.7488000000000001  1.0000
  C   C254      1.0  0.7641300000000002  0.14012  0.6957800000000001  1.0000
  O   O117      1.0  0.21905000000000005  0.29494  0.7103200000000001  1.0000
  O   O118      1.0  0.3690700000000001  0.23082999999999998  0.73992  1.0000
  C   C255      1.0  0.28371000000000013  0.32298  0.69592  1.0000
  O   O119      1.0  0.5250800000000002  0.34649  0.75047  1.0000
  O   O120      1.0  0.5241900000000003  0.11546  0.7507000000000001  1.0000
  C   C256      1.0  0.28482  0.14008  0.69572  1.0000
  O   O121      1.0  0.52444  0.23107  0.7283100000000001  1.0000
  C   C257      1.0  0.30559  0.30464  0.80897  1.0000
  C   C258      1.0  0.7657100000000002  0.32300999999999996  0.69599  1.0000
  C   C259      1.0  0.74415  0.15704  0.80893  1.0000
  O   O122      1.0  0.34459  0.34548  0.7156700000000003  1.0000
  O   O123      1.0  0.8302700000000002  0.29477  0.71026  1.0000
  O   O124      1.0  0.70498  0.3454  0.71581  1.0000
  O   O125      1.0  0.21958000000000005  0.16738  0.71009  1.0000
  O   O126      1.0  0.34483  0.11703  0.71561  1.0000
  O   O127      1.0  0.24174000000000007  0.29794  0.78683  1.0000
  O   O128      1.0  0.38481  0.29589  0.7990500000000001  1.0000
  O   O129      1.0  0.80759  0.16353  0.7866000000000001  1.0000
  O   O130      1.0  0.6648  0.16582  0.79917  1.0000
  O   O131      1.0  0.68018  0.23110999999999998  0.73998  1.0000
  C   C260      1.0  0.30469  0.15723  0.8089900000000001  1.0000
  O   O132      1.0  0.24130000000000004  0.16362  0.78663  1.0000
  O   O133      1.0  0.3840400000000001  0.16609  0.7992600000000001  1.0000
  O   O134      1.0  0.80758  0.29795  0.78693  1.0000
  O   O135      1.0  0.66454  0.29558  0.79914  1.0000
  O   O136      1.0  0.8294200000000003  0.16738  0.71019  1.0000
  O   O137      1.0  0.70406  0.11702  0.7156500000000001  1.0000
  C   C261      1.0  0.24718000000000007  0.06115  0.64533  1.0000
  H   H161      1.0  0.22439000000000006  0.02479  0.6625600000000001  1.0000
  C   C262      1.0  0.27907  0.12165999999999999  0.65824  1.0000
  C   C263      1.0  0.27794  0.8410499999999999  0.65833  1.0000
  C   C264      1.0  0.3051800000000001  0.90162  0.6437200000000001  1.0000
  H   H162      1.0  0.33095  0.93859  0.65973  1.0000
  C   C265      1.0  0.76997  0.12170999999999998  0.65829  1.0000
  C   C266      1.0  0.8020900000000002  0.061279999999999994  0.64538  1.0000
  H   H163      1.0  0.82491  0.02495  0.66261  1.0000
  C   C267      1.0  0.7711900000000003  0.84112  0.6584  1.0000
  C   C268      1.0  0.7437300000000002  0.90164  0.6438300000000001  1.0000
  H   H164      1.0  0.7180400000000002  0.93858  0.6598800000000001  1.0000
  C   C269      1.0  0.8047000000000002  0.55505  0.94112  1.0000
  O   O138      1.0  0.30747  0.41401  0.96304  1.0000
  C   C270      1.0  0.24374000000000007  0.40725  0.94084  1.0000
  O   O139      1.0  0.02380000000000001  0.36556000000000005  0.99933  1.0000
  O   O140      1.0  0.024890000000000006  0.59656  0.99933  1.0000
  C   C271      1.0  0.24428000000000005  0.55483  0.94103  1.0000
  C   C272      1.0  0.80476  0.4075  0.9409000000000001  1.0000
  O   O141      1.0  0.16445  0.41592  0.95071  1.0000
  O   O142      1.0  0.7408800000000002  0.41433  0.96302  1.0000
  O   O143      1.0  0.8839600000000002  0.4164  0.95081  1.0000
  O   O144      1.0  0.30759  0.54844  0.9634200000000002  1.0000
  O   O145      1.0  0.1649  0.54595  0.95073  1.0000
  O   O146      1.0  0.7414000000000002  0.54867  0.96353  1.0000
  O   O147      1.0  0.88411  0.5463  0.9508  1.0000
  C   C273      1.0  0.30747  0.56537  0.8532000000000001  1.0000
  H   H165      1.0  0.3348300000000001  0.53217  0.8349  1.0000
  C   C274      1.0  0.21980000000000005  0.56066  0.87159  1.0000
  H   H166      1.0  0.17478  0.52293  0.86911  1.0000
  C   C275      1.0  0.34866  0.58607  0.88804  1.0000
  H   H167      1.0  0.4095900000000001  0.56933  0.8989700000000002  1.0000
  C   C276      1.0  0.2612  0.58174  0.90597  1.0000
  C   C277      1.0  0.2878500000000001  0.63033  0.84406  1.0000
  C   C278      1.0  0.3292500000000001  0.65141  0.8784400000000001  1.0000
  H   H168      1.0  0.37428  0.68913  0.8809200000000001  1.0000
  C   C279      1.0  0.24158000000000002  0.6467  0.8968300000000001  1.0000
  H   H169      1.0  0.21422000000000005  0.6799  0.91513  1.0000
  C   C280      1.0  0.20039000000000007  0.62599  0.86199  1.0000
  H   H170      1.0  0.13945000000000005  0.64273  0.8510600000000001  1.0000
  C   C281      1.0  0.8289800000000003  0.31113  0.87  1.0000
  H   H171      1.0  0.8738300000000002  0.27385  0.86558  1.0000
  C   C282      1.0  0.7633500000000002  0.31528  0.90025  1.0000
  H   H172      1.0  0.75436  0.28201  0.9214  1.0000
  C   C283      1.0  0.8542900000000002  0.37671  0.87603  1.0000
  H   H173      1.0  0.9204000000000002  0.39407  0.8771200000000001  1.0000
  C   C284      1.0  0.78837  0.38048  0.9058400000000001  1.0000
  C   C285      1.0  0.75998  0.33164  0.8441300000000002  1.0000
  C   C286      1.0  0.7850000000000003  0.39684  0.84972  1.0000
  H   H174      1.0  0.7940000000000003  0.43011  0.82856  1.0000
  C   C287      1.0  0.71937  0.40098999999999996  0.87997  1.0000
  H   H175      1.0  0.6745200000000002  0.43826999999999994  0.88438  1.0000
  C   C288      1.0  0.69406  0.3354  0.87393  1.0000
  H   H176      1.0  0.6279500000000002  0.31805  0.87284  1.0000
  C   C289      1.0  0.74136  0.56528  0.8532600000000001  1.0000
  H   H177      1.0  0.71397  0.53199  0.83501  1.0000
  C   C290      1.0  0.70022  0.58605  0.88809  1.0000
  H   H178      1.0  0.6392900000000002  0.56929  0.89906  1.0000
  C   C291      1.0  0.82905  0.5607  0.8716500000000001  1.0000
  H   H179      1.0  0.87408  0.52301  0.8691900000000001  1.0000
  C   C292      1.0  0.7877100000000002  0.58185  0.9060200000000002  1.0000
  C   C293      1.0  0.7609600000000002  0.63023  0.84404  1.0000
  C   C294      1.0  0.8484400000000002  0.62602  0.86197  1.0000
  H   H180      1.0  0.9093700000000002  0.64278  0.85101  1.0000
  C   C295      1.0  0.8073000000000002  0.6468  0.8968  1.0000
  H   H181      1.0  0.8346900000000002  0.68009  0.91505  1.0000
  C   C296      1.0  0.7196100000000002  0.65137  0.87841  1.0000
  H   H182      1.0  0.67458  0.68906  0.88086  1.0000
  C   C297      1.0  0.32945  0.40096  0.87997  1.0000
  H   H183      1.0  0.37421  0.43832  0.88445  1.0000
  C   C298      1.0  0.264  0.3967399999999999  0.84966  1.0000
  H   H184      1.0  0.25507000000000013  0.43001999999999996  0.82851  1.0000
  C   C299      1.0  0.3549100000000001  0.33543  0.87393  1.0000
  H   H185      1.0  0.42107  0.31819  0.8729  1.0000
  C   C300      1.0  0.28917  0.33158  0.84406  1.0000
  C   C301      1.0  0.26033  0.38029999999999997  0.90577  1.0000
  C   C302      1.0  0.2855100000000001  0.31515  0.90017  1.0000
  H   H186      1.0  0.29444  0.28187  0.92132  1.0000
  C   C303      1.0  0.22006  0.31093  0.86986  1.0000
  H   H187      1.0  0.17530000000000007  0.27357  0.86538  1.0000
  C   C304      1.0  0.19460000000000002  0.37646  0.8759  1.0000
  H   H188      1.0  0.12845  0.39369999999999994  0.87692  1.0000
  Co  Co43      1.0  0.62786  0.79354  0.74747  1.0000
  Co  Co44      1.0  0.42139  0.66831  0.74737  1.0000
  Co  Co45      1.0  0.4215700000000001  0.79387  0.74732  1.0000
  Co  Co46      1.0  0.6275000000000002  0.6682  0.74736  1.0000
  C   C305      1.0  0.7437000000000002  0.80461  0.80905  1.0000
  Co  Co47      1.0  0.81368  0.7310199999999999  0.74908  1.0000
  Co  Co48      1.0  0.23549000000000006  0.73093  0.7488000000000001  1.0000
  C   C306      1.0  0.7641300000000002  0.64012  0.6957800000000001  1.0000
  O   O148      1.0  0.21905000000000005  0.7949399999999999  0.7103200000000001  1.0000
  O   O149      1.0  0.3690700000000001  0.73083  0.73992  1.0000
  C   C307      1.0  0.28371000000000013  0.8229799999999999  0.69592  1.0000
  O   O150      1.0  0.5250800000000002  0.84649  0.75047  1.0000
  O   O151      1.0  0.5241900000000003  0.61546  0.7507000000000001  1.0000
  C   C308      1.0  0.28482  0.64008  0.69572  1.0000
  O   O152      1.0  0.52444  0.73107  0.7283100000000001  1.0000
  C   C309      1.0  0.30559  0.8046399999999999  0.80897  1.0000
  C   C310      1.0  0.7657100000000002  0.82301  0.69599  1.0000
  C   C311      1.0  0.74415  0.65704  0.80893  1.0000
  O   O153      1.0  0.34459  0.8454699999999999  0.7156700000000003  1.0000
  O   O154      1.0  0.8302700000000002  0.7947699999999999  0.71026  1.0000
  O   O155      1.0  0.70498  0.8453999999999999  0.71581  1.0000
  O   O156      1.0  0.21958000000000005  0.66738  0.71009  1.0000
  O   O157      1.0  0.34483  0.61703  0.71561  1.0000
  O   O158      1.0  0.24174000000000007  0.79794  0.78683  1.0000
  O   O159      1.0  0.38481  0.79588  0.7990500000000001  1.0000
  O   O160      1.0  0.80759  0.66353  0.7866000000000001  1.0000
  O   O161      1.0  0.6648  0.66582  0.79917  1.0000
  O   O162      1.0  0.68018  0.7311099999999999  0.73998  1.0000
  C   C312      1.0  0.30469  0.65723  0.8089900000000001  1.0000
  O   O163      1.0  0.24130000000000004  0.66362  0.78663  1.0000
  O   O164      1.0  0.3840400000000001  0.66609  0.7992600000000001  1.0000
  O   O165      1.0  0.80758  0.79795  0.78693  1.0000
  O   O166      1.0  0.66454  0.79558  0.79914  1.0000
  O   O167      1.0  0.8294200000000003  0.66738  0.71019  1.0000
  O   O168      1.0  0.70406  0.61702  0.7156500000000001  1.0000
  C   C313      1.0  0.24718000000000007  0.56115  0.64533  1.0000
  H   H189      1.0  0.22439000000000006  0.52479  0.6625600000000001  1.0000
  C   C314      1.0  0.27907  0.62166  0.65824  1.0000
  C   C315      1.0  0.27794  0.34105  0.65833  1.0000
  C   C316      1.0  0.3051800000000001  0.40162  0.6437200000000001  1.0000
  H   H190      1.0  0.33095  0.4385899999999999  0.65973  1.0000
  C   C317      1.0  0.76997  0.62171  0.65829  1.0000
  C   C318      1.0  0.8020900000000002  0.56128  0.64538  1.0000
  H   H191      1.0  0.82491  0.52495  0.66261  1.0000
  C   C319      1.0  0.7711900000000003  0.3411199999999999  0.6584  1.0000
  C   C320      1.0  0.7437300000000002  0.40164  0.6438300000000001  1.0000
  H   H192      1.0  0.7180400000000002  0.43858  0.6598800000000001  1.0000
