data_image0
_chemical_formula_structural       CaC5HCHC2HCHC7HC2HN6OH2CaC5HCHC2HCHC7HC2HN6OH2
_chemical_formula_sum              "Ca2 C36 H16 N12 O2"
_cell_length_a       9.493
_cell_length_b       11.242
_cell_length_c       11.27
_cell_angle_alpha    82.89
_cell_angle_beta     83.8
_cell_angle_gamma    77.68

_space_group_name_H-M_alt    "P 1"
_space_group_IT_number       1

loop_
  _space_group_symop_operation_xyz
  'x, y, z'

loop_
  _atom_site_type_symbol
  _atom_site_label
  _atom_site_symmetry_multiplicity
  _atom_site_fract_x
  _atom_site_fract_y
  _atom_site_fract_z
  _atom_site_occupancy
  Ca  Ca1       1.0  0.97459  0.33006  0.9777900000000002  1.0000
  C   C1        1.0  0.5997  0.3942  0.8485  1.0000
  C   C2        1.0  0.48130000000000006  0.38349999999999995  0.7856  1.0000
  C   C3        1.0  0.3474  0.37710000000000005  0.8507000000000002  1.0000
  C   C4        1.0  0.5011999999999999  0.368  0.6604  1.0000
  C   C5        1.0  0.38849999999999996  0.3408000000000001  0.6007  1.0000
  H   H1        1.0  0.3011000000000001  0.33340000000000003  0.644  1.0000
  C   C6        1.0  0.4063  0.3254000000000001  0.4821  1.0000
  H   H2        1.0  0.3313  0.3067  0.4459000000000001  1.0000
  C   C7        1.0  0.5379  0.3374000000000001  0.41200000000000003  1.0000
  C   C8        1.0  0.6499  0.3637000000000001  0.4715000000000001  1.0000
  H   H3        1.0  0.7374  0.3711  0.4284  1.0000
  C   C9        1.0  0.6319  0.3785  0.5911000000000001  1.0000
  H   H4        1.0  0.7074  0.3958000000000001  0.6277000000000001  1.0000
  C   C10       1.0  0.5573  0.323  0.28790000000000004  1.0000
  C   C11       1.0  0.44359999999999994  0.3008  0.22650000000000003  1.0000
  C   C12       1.0  0.6898  0.3266  0.2186  1.0000
  C   C13       1.0  0.02239999999999998  0.3328999999999999  0.4503  1.0000
  C   C14       1.0  0.016199999999999975  0.23950000000000005  0.5443000000000001  1.0000
  C   C15       1.0  0.013300000000000011  0.271  0.6626  1.0000
  C   C16       1.0  0.006899999999999999  0.0894  0.4039  1.0000
  H   H5        1.0  0.011299999999999994  0.1496  0.3399  1.0000
  C   C17       1.0  0.008100000000000005  0.1188  0.5229  1.0000
  C   C18       1.0  0.0006000000000000001  0.0248  0.6176  1.0000
  H   H6        1.0  0.0007999999999999869  0.04179999999999999  0.6962000000000002  1.0000
  N   N1        1.0  0.6997  0.3992  0.8969  1.0000
  N   N2        1.0  0.23590000000000014  0.3707  0.8982  1.0000
  N   N3        1.0  0.34989999999999993  0.2839  0.17970000000000003  1.0000
  N   N4        1.0  0.7985  0.3273  0.1611  1.0000
  N   N5        1.0  0.009999999999999995  0.2956  0.7592000000000001  1.0000
  N   N6        1.0  0.025799999999999976  0.40570000000000006  0.3698  1.0000
  O   O1        1.0  0.9336000000000001  0.5451  0.88556  1.0000
  H   H7        1.0  0.9828000000000002  0.5422  0.8179  1.0000
  H   H8        1.0  0.8486  0.5841999999999999  0.8729  1.0000
  Ca  Ca2       1.0  0.025409999999999988  0.6699400000000001  0.02221  1.0000
  C   C19       1.0  0.4002999999999999  0.6058  0.15150000000000002  1.0000
  C   C20       1.0  0.5187  0.6165000000000002  0.21440000000000003  1.0000
  C   C21       1.0  0.6526  0.6229  0.1493  1.0000
  C   C22       1.0  0.4988  0.632  0.3396  1.0000
  C   C23       1.0  0.6115  0.6592  0.3993  1.0000
  H   H9        1.0  0.6989000000000001  0.6666  0.35600000000000004  1.0000
  C   C24       1.0  0.5936999999999999  0.6746000000000002  0.5179  1.0000
  H   H10       1.0  0.6687  0.6932999999999999  0.5541  1.0000
  C   C25       1.0  0.46209999999999996  0.6626  0.5880000000000001  1.0000
  C   C26       1.0  0.35009999999999997  0.6363000000000001  0.5285  1.0000
  H   H11       1.0  0.26259999999999994  0.6289  0.5716000000000001  1.0000
  C   C27       1.0  0.3681  0.6215000000000002  0.40890000000000004  1.0000
  H   H12       1.0  0.2925999999999999  0.6041999999999998  0.37230000000000013  1.0000
  C   C28       1.0  0.44269999999999987  0.6770000000000002  0.7121  1.0000
  C   C29       1.0  0.5563999999999999  0.6992000000000003  0.7735  1.0000
  C   C30       1.0  0.31020000000000003  0.6734  0.7814000000000001  1.0000
  C   C31       1.0  0.9775999999999999  0.6671  0.5497  1.0000
  C   C32       1.0  0.9837999999999998  0.7605000000000002  0.4557  1.0000
  C   C33       1.0  0.9867  0.7290000000000001  0.33740000000000003  1.0000
  C   C34       1.0  0.9930999999999998  0.9106000000000002  0.5961  1.0000
  H   H13       1.0  0.9887  0.8504  0.6601000000000001  1.0000
  C   C35       1.0  0.9919  0.8812  0.4771  1.0000
  C   C36       1.0  0.9994  0.9752  0.3824  1.0000
  H   H14       1.0  0.9992  0.9582000000000002  0.3038  1.0000
  N   N7        1.0  0.3003  0.6008  0.1031  1.0000
  N   N8        1.0  0.7641000000000001  0.6293  0.10180000000000002  1.0000
  N   N9        1.0  0.6501  0.7161  0.8203000000000001  1.0000
  N   N10       1.0  0.2015  0.6727  0.8389  1.0000
  N   N11       1.0  0.99  0.7044000000000001  0.2408  1.0000
  N   N12       1.0  0.9742  0.5943  0.6302  1.0000
  O   O2        1.0  0.0664  0.4549  0.11444  1.0000
  H   H15       1.0  0.017199999999999962  0.45780000000000004  0.1821  1.0000
  H   H16       1.0  0.15139999999999998  0.4158  0.12710000000000002  1.0000
