data_image0
_chemical_formula_structural       Cu12Si8H192C312O48
_chemical_formula_sum              "Cu12 Si8 H192 C312 O48"
_cell_length_a       23.6847
_cell_length_b       23.684700000000003
_cell_length_c       23.684699999999996
_cell_angle_alpha    59.99999999999999
_cell_angle_beta     59.999999999999986
_cell_angle_gamma    60.00000000000001

_symmetry_space_group_name_H-M    'P 1'
_symmetry_Int_Tables_number       1

loop_
  _symmetry_equiv_pos_as_xyz
  'x,y,z'

loop_
  _atom_site_type_symbol
  _atom_site_label
  _atom_site_symmetry_multiplicity
  _atom_site_fract_x
  _atom_site_fract_y
  _atom_site_fract_z
  _atom_site_occupancy
  Cu  Cu1       1.0  0.71706  0.28294  0.71706  1.0000
  Cu  Cu2       1.0  0.3609599999999999  0.36095999999999995  0.63904  1.0000
  Cu  Cu3       1.0  0.3609599999999999  0.63904  0.63904  1.0000
  Cu  Cu4       1.0  0.28294  0.7170599999999999  0.28294  1.0000
  Cu  Cu5       1.0  0.63904  0.36096  0.36096  1.0000
  Cu  Cu6       1.0  0.63904  0.36095999999999995  0.63904  1.0000
  Cu  Cu7       1.0  0.2829399999999998  0.28294  0.71706  1.0000
  Cu  Cu8       1.0  0.28294  0.7170599999999999  0.71706  1.0000
  Cu  Cu9       1.0  0.71706  0.2829400000000001  0.28294  1.0000
  Cu  Cu10      1.0  0.3609599999999999  0.63904  0.36096  1.0000
  Cu  Cu11      1.0  0.63904  0.63904  0.36096  1.0000
  Cu  Cu12      1.0  0.7170600000000003  0.7170599999999999  0.28294  1.0000
  Si  Si1       1.0  0.8575400000000005  0.85754  0.42738  1.0000
  Si  Si2       1.0  0.4273800000000001  0.85754  0.8575399999999999  1.0000
  Si  Si3       1.0  0.14246000000000006  0.14246000000000003  0.5726199999999999  1.0000
  Si  Si4       1.0  0.14245999999999998  0.14246000000000003  0.14246  1.0000
  Si  Si5       1.0  0.8575400000000005  0.85754  0.8575399999999999  1.0000
  Si  Si6       1.0  0.57262  0.14246000000000003  0.14246  1.0000
  Si  Si7       1.0  0.8575400000000002  0.42737999999999987  0.8575399999999999  1.0000
  Si  Si8       1.0  0.14246000000000006  0.5726199999999999  0.14246  1.0000
  H   H1        1.0  0.8745000000000003  0.7283  0.8539  1.0000
  H   H2        1.0  0.8441000000000001  0.9346999999999994  0.5915  1.0000
  H   H3        1.0  0.09060000000000008  0.6927999999999997  0.42579999999999996  1.0000
  H   H4        1.0  0.5742  0.2092  0.3072  1.0000
  H   H5        1.0  0.8608  0.284  0.49539999999999995  1.0000
  H   H6        1.0  0.6814  0.22420000000000004  0.5494  1.0000
  H   H7        1.0  0.13900000000000004  0.4012  0.9827999999999999  1.0000
  H   H8        1.0  0.2717  0.1255  0.1461  1.0000
  H   H9        1.0  0.28400000000000003  0.3598  0.49539999999999995  1.0000
  H   H10       1.0  0.4550000000000002  0.3185999999999999  0.7757999999999999  1.0000
  H   H11       1.0  0.10219999999999997  0.4278  0.6436  1.0000
  H   H12       1.0  0.7283000000000001  0.8538999999999999  0.8745  1.0000
  H   H13       1.0  0.5433  0.8538999999999999  0.7282999999999998  1.0000
  H   H14       1.0  0.37759999999999994  0.009600000000000001  0.7914  1.0000
  H   H15       1.0  0.17359999999999995  0.35640000000000005  0.8977999999999999  1.0000
  H   H16       1.0  0.6814000000000002  0.545  0.2242  1.0000
  H   H17       1.0  0.45669999999999994  0.2717  0.1461  1.0000
  H   H18       1.0  0.6402000000000002  0.13919999999999996  0.716  1.0000
  H   H19       1.0  0.5494  0.2242  0.545  1.0000
  H   H20       1.0  0.22419999999999995  0.5494000000000001  0.6813999999999999  1.0000
  H   H21       1.0  0.5722000000000002  0.8978  0.3564  1.0000
  H   H22       1.0  0.7908000000000001  0.6927999999999997  0.0906  1.0000
  H   H23       1.0  0.1392  0.6402  0.5045999999999999  1.0000
  H   H24       1.0  0.5915000000000001  0.6296999999999998  0.8441  1.0000
  H   H25       1.0  0.7914  0.009600000000000001  0.8214  1.0000
  H   H26       1.0  0.017199999999999868  0.523  0.5988  1.0000
  H   H27       1.0  0.13920000000000007  0.5046  0.716  1.0000
  H   H28       1.0  0.8214  0.00959999999999998  0.3776  1.0000
  H   H29       1.0  0.9828000000000001  0.477  0.139  1.0000
  H   H30       1.0  0.7757999999999999  0.4550000000000001  0.3186  1.0000
  H   H31       1.0  0.4085000000000001  0.06529999999999998  0.1559  1.0000
  H   H32       1.0  0.4012000000000003  0.13899999999999998  0.477  1.0000
  H   H33       1.0  0.4505999999999999  0.7758  0.3186  1.0000
  H   H34       1.0  0.7160000000000001  0.5046  0.6402  1.0000
  H   H35       1.0  0.6436  0.8264  0.1022  1.0000
  H   H36       1.0  0.31859999999999994  0.7758  0.45499999999999996  1.0000
  H   H37       1.0  0.4506000000000002  0.455  0.7757999999999999  1.0000
  H   H38       1.0  0.3703000000000001  0.1559  0.0653  1.0000
  H   H39       1.0  0.6297  0.9347  0.8441  1.0000
  H   H40       1.0  0.6224000000000001  0.20859999999999995  0.9904  1.0000
  H   H41       1.0  0.7908000000000001  0.09060000000000003  0.42579999999999996  1.0000
  H   H42       1.0  0.9827999999999998  0.4012  0.477  1.0000
  H   H43       1.0  0.9904000000000001  0.2086  0.17859999999999998  1.0000
  H   H44       1.0  0.17859999999999998  0.6224  0.9904  1.0000
  H   H45       1.0  0.17859999999999995  0.9903999999999998  0.2086  1.0000
  H   H46       1.0  0.5494  0.6814  0.2242  1.0000
  H   H47       1.0  0.8978000000000002  0.17359999999999998  0.3564  1.0000
  H   H48       1.0  0.3703  0.06529999999999998  0.4085  1.0000
  H   H49       1.0  0.8214  0.7914  0.0096  1.0000
  H   H50       1.0  0.8538999999999999  0.8745  0.7282999999999998  1.0000
  H   H51       1.0  0.5046  0.6402  0.716  1.0000
  H   H52       1.0  0.31860000000000016  0.45059999999999995  0.7757999999999999  1.0000
  H   H53       1.0  0.09059999999999993  0.4258  0.7908  1.0000
  H   H54       1.0  0.4954000000000001  0.8607999999999998  0.284  1.0000
  H   H55       1.0  0.0906  0.7908  0.6927999999999999  1.0000
  H   H56       1.0  0.12550000000000006  0.45669999999999994  0.1461  1.0000
  H   H57       1.0  0.37760000000000005  0.7914  0.8214  1.0000
  H   H58       1.0  0.8608  0.4954  0.3598  1.0000
  H   H59       1.0  0.40119999999999995  0.47700000000000015  0.9827999999999999  1.0000
  H   H60       1.0  0.009599999999999971  0.7914  0.3776  1.0000
  H   H61       1.0  0.4257999999999999  0.7908  0.0906  1.0000
  H   H62       1.0  0.01719999999999998  0.8609999999999999  0.523  1.0000
  H   H63       1.0  0.20919999999999994  0.3072  0.5742  1.0000
  H   H64       1.0  0.4506000000000001  0.31859999999999994  0.45499999999999996  1.0000
  H   H65       1.0  0.28400000000000014  0.8607999999999998  0.3598  1.0000
  H   H66       1.0  0.8609999999999999  0.523  0.0172  1.0000
  H   H67       1.0  0.13919999999999996  0.7159999999999999  0.6402  1.0000
  H   H68       1.0  0.8745  0.5433  0.7282999999999998  1.0000
  H   H69       1.0  0.9347000000000001  0.8440999999999999  0.6296999999999999  1.0000
  H   H70       1.0  0.5915  0.9347000000000002  0.6296999999999999  1.0000
  H   H71       1.0  0.7913999999999999  0.8214  0.3776  1.0000
  H   H72       1.0  0.20919999999999997  0.5742  0.9094  1.0000
  H   H73       1.0  0.3564  0.17360000000000003  0.5721999999999999  1.0000
  H   H74       1.0  0.45670000000000005  0.14609999999999998  0.1255  1.0000
  H   H75       1.0  0.06529999999999997  0.4085000000000001  0.3703  1.0000
  H   H76       1.0  0.3598000000000002  0.8607999999999998  0.49539999999999995  1.0000
  H   H77       1.0  0.523  0.01720000000000009  0.8609999999999998  1.0000
  H   H78       1.0  0.14609999999999998  0.2717  0.1255  1.0000
  H   H79       1.0  0.4085000000000001  0.37029999999999996  0.0653  1.0000
  H   H80       1.0  0.5988  0.8609999999999999  0.0172  1.0000
  H   H81       1.0  0.7283000000000001  0.5433  0.8539  1.0000
  H   H82       1.0  0.5722000000000002  0.3564  0.1736  1.0000
  H   H83       1.0  0.7160000000000001  0.6402  0.13919999999999996  1.0000
  H   H84       1.0  0.009599999999999971  0.8214  0.7914  1.0000
  H   H85       1.0  0.5045999999999999  0.13919999999999996  0.6402  1.0000
  H   H86       1.0  0.06530000000000001  0.15589999999999996  0.4085  1.0000
  H   H87       1.0  0.3186000000000001  0.455  0.45059999999999995  1.0000
  H   H88       1.0  0.22419999999999998  0.545  0.5494  1.0000
  H   H89       1.0  0.8264000000000004  0.6435999999999997  0.42779999999999996  1.0000
  H   H90       1.0  0.284  0.49540000000000006  0.8607999999999999  1.0000
  H   H91       1.0  0.2086  0.6224  0.17859999999999998  1.0000
  H   H92       1.0  0.22420000000000007  0.6814  0.545  1.0000
  H   H93       1.0  0.1022000000000002  0.6435999999999996  0.8264  1.0000
  H   H94       1.0  0.12550000000000006  0.27169999999999994  0.45669999999999994  1.0000
  H   H95       1.0  0.9827999999999999  0.13899999999999998  0.4012  1.0000
  H   H96       1.0  0.17360000000000003  0.5722  0.3564  1.0000
  H   H97       1.0  0.5742  0.9094  0.20919999999999997  1.0000
  H   H98       1.0  0.5988  0.017200000000000003  0.523  1.0000
  H   H99       1.0  0.8264000000000002  0.10219999999999996  0.6436  1.0000
  H   H100      1.0  0.6436000000000001  0.10220000000000003  0.42779999999999996  1.0000
  H   H101      1.0  0.7282999999999994  0.8745  0.5433  1.0000
  H   H102      1.0  0.2086000000000002  0.9904  0.6223999999999998  1.0000
  H   H103      1.0  0.9903999999999997  0.6224  0.2086  1.0000
  H   H104      1.0  0.8978  0.5722  0.1736  1.0000
  H   H105      1.0  0.6402  0.5046  0.13919999999999996  1.0000
  H   H106      1.0  0.35640000000000005  0.5722  0.8977999999999999  1.0000
  H   H107      1.0  0.6435999999999997  0.4278  0.8264  1.0000
  H   H108      1.0  0.06530000000000004  0.37029999999999996  0.1559  1.0000
  H   H109      1.0  0.4085000000000001  0.1559  0.3703  1.0000
  H   H110      1.0  0.8609999999999999  0.5987999999999998  0.523  1.0000
  H   H111      1.0  0.1461  0.12550000000000003  0.45669999999999994  1.0000
  H   H112      1.0  0.00960000000000001  0.37760000000000005  0.8214  1.0000
  H   H113      1.0  0.5741999999999999  0.30720000000000003  0.9094  1.0000
  H   H114      1.0  0.47700000000000004  0.9828  0.4012  1.0000
  H   H115      1.0  0.47700000000000004  0.13900000000000004  0.9827999999999999  1.0000
  H   H116      1.0  0.17360000000000006  0.8978  0.5721999999999999  1.0000
  H   H117      1.0  0.49539999999999995  0.284  0.3598  1.0000
  H   H118      1.0  0.10220000000000001  0.8264  0.42779999999999996  1.0000
  H   H119      1.0  0.9347000000000001  0.5914999999999999  0.8441  1.0000
  H   H120      1.0  0.6297  0.5914999999999999  0.9346999999999999  1.0000
  H   H121      1.0  0.1461  0.45669999999999994  0.27169999999999994  1.0000
  H   H122      1.0  0.5046  0.7159999999999999  0.13919999999999996  1.0000
  H   H123      1.0  0.42580000000000007  0.0906  0.6927999999999999  1.0000
  H   H124      1.0  0.6928000000000002  0.7908  0.42579999999999996  1.0000
  H   H125      1.0  0.13900000000000015  0.9828  0.477  1.0000
  H   H126      1.0  0.9094  0.2092  0.5742  1.0000
  H   H127      1.0  0.3598000000000002  0.4953999999999999  0.284  1.0000
  H   H128      1.0  0.6928  0.0906  0.7908  1.0000
  H   H129      1.0  0.3072  0.20920000000000002  0.9094  1.0000
  H   H130      1.0  0.8214000000000001  0.3776  0.7914  1.0000
  H   H131      1.0  0.4278  0.1022  0.8264  1.0000
  H   H132      1.0  0.8608000000000002  0.35979999999999995  0.284  1.0000
  H   H133      1.0  0.47700000000000004  0.4012  0.139  1.0000
  H   H134      1.0  0.17860000000000006  0.2086000000000001  0.6223999999999998  1.0000
  H   H135      1.0  0.1559  0.3702999999999999  0.4085  1.0000
  H   H136      1.0  0.6928  0.4258  0.0906  1.0000
  H   H137      1.0  0.5987999999999999  0.5230000000000001  0.8609999999999998  1.0000
  H   H138      1.0  0.35640000000000005  0.8978  0.1736  1.0000
  H   H139      1.0  0.8441000000000001  0.5915  0.6296999999999999  1.0000
  H   H140      1.0  0.37760000000000005  0.8214  0.0096  1.0000
  H   H141      1.0  0.3598000000000001  0.284  0.8607999999999999  1.0000
  H   H142      1.0  0.523  0.5987999999999998  0.0172  1.0000
  H   H143      1.0  0.4278000000000001  0.6435999999999997  0.1022  1.0000
  H   H144      1.0  0.6402  0.7159999999999999  0.5045999999999999  1.0000
  H   H145      1.0  0.5722000000000002  0.17360000000000006  0.8977999999999999  1.0000
  H   H146      1.0  0.7758000000000003  0.45059999999999995  0.45499999999999996  1.0000
  H   H147      1.0  0.7908  0.42580000000000007  0.6927999999999999  1.0000
  H   H148      1.0  0.1559  0.06529999999999998  0.3703  1.0000
  H   H149      1.0  0.5449999999999999  0.5494  0.2242  1.0000
  H   H150      1.0  0.6224000000000001  0.17860000000000004  0.2086  1.0000
  H   H151      1.0  0.545  0.22420000000000004  0.6813999999999999  1.0000
  H   H152      1.0  0.2717  0.45669999999999994  0.1255  1.0000
  H   H153      1.0  0.3703  0.4085  0.1559  1.0000
  H   H154      1.0  0.4278000000000001  0.8264  0.6436  1.0000
  H   H155      1.0  0.545  0.6814  0.5494  1.0000
  H   H156      1.0  0.8538999999999993  0.5433  0.8745  1.0000
  H   H157      1.0  0.5229999999999999  0.8609999999999999  0.5988  1.0000
  H   H158      1.0  0.9094  0.3072  0.20919999999999997  1.0000
  H   H159      1.0  0.2717  0.1461  0.45669999999999994  1.0000
  H   H160      1.0  0.139  0.477  0.4012  1.0000
  H   H161      1.0  0.5433000000000001  0.7283  0.8745  1.0000
  H   H162      1.0  0.3071999999999999  0.9094  0.5742  1.0000
  H   H163      1.0  0.6224000000000001  0.9903999999999998  0.17859999999999998  1.0000
  H   H164      1.0  0.9094  0.5742  0.3072  1.0000
  H   H165      1.0  0.12550000000000003  0.1461  0.27169999999999994  1.0000
  H   H166      1.0  0.49539999999999995  0.3598  0.8607999999999999  1.0000
  H   H167      1.0  0.9904000000000001  0.17860000000000006  0.6223999999999998  1.0000
  H   H168      1.0  0.8264000000000001  0.4278  0.1022  1.0000
  H   H169      1.0  0.3072  0.5742  0.20919999999999997  1.0000
  H   H170      1.0  0.5915000000000002  0.8440999999999999  0.9346999999999999  1.0000
  H   H171      1.0  0.5433  0.8745  0.8539  1.0000
  H   H172      1.0  0.7914000000000002  0.3776  0.0096  1.0000
  H   H173      1.0  0.45500000000000007  0.45060000000000006  0.3186  1.0000
  H   H174      1.0  0.5494000000000002  0.545  0.6813999999999999  1.0000
  H   H175      1.0  0.4550000000000002  0.7758  0.45059999999999995  1.0000
  H   H176      1.0  0.15590000000000004  0.4085  0.0653  1.0000
  H   H177      1.0  0.6814  0.5494  0.545  1.0000
  H   H178      1.0  0.4012000000000001  0.9828  0.139  1.0000
  H   H179      1.0  0.7758000000000004  0.3185999999999999  0.45059999999999995  1.0000
  H   H180      1.0  0.8538999999999998  0.7283  0.5433  1.0000
  H   H181      1.0  0.2092  0.9094  0.3072  1.0000
  H   H182      1.0  0.42580000000000007  0.6927999999999999  0.7908  1.0000
  H   H183      1.0  0.45669999999999994  0.12550000000000003  0.27169999999999994  1.0000
  H   H184      1.0  0.8441000000000002  0.6296999999999998  0.9346999999999999  1.0000
  H   H185      1.0  0.6297000000000003  0.8440999999999993  0.5915  1.0000
  H   H186      1.0  0.8978000000000002  0.35640000000000005  0.5721999999999999  1.0000
  H   H187      1.0  0.9347000000000004  0.6296999999999999  0.5915  1.0000
  H   H188      1.0  0.8745  0.8538999999999999  0.5433  1.0000
  H   H189      1.0  0.8609999999999999  0.017199999999999962  0.5988  1.0000
  H   H190      1.0  0.01719999999999998  0.5988000000000001  0.8609999999999998  1.0000
  H   H191      1.0  0.20859999999999998  0.17860000000000004  0.9904  1.0000
  H   H192      1.0  0.7160000000000001  0.13919999999999996  0.5045999999999999  1.0000
  C   C1        1.0  0.1605  0.3375  0.4519  1.0000
  C   C2        1.0  0.2493900000000001  0.8288099999999999  0.5225899999999999  1.0000
  C   C3        1.0  0.9574999999999999  0.19209999999999997  0.5503  1.0000
  C   C4        1.0  0.7726  0.27359999999999995  0.3692  1.0000
  C   C5        1.0  0.9498999999999997  0.6624999999999999  0.5481  1.0000
  C   C6        1.0  0.5905799999999998  0.07022  0.79178  1.0000
  C   C7        1.0  0.46721  0.86839  0.26161  1.0000
  C   C8        1.0  0.9798  0.348  0.1854  1.0000
  C   C9        1.0  0.5292  0.8901999999999999  0.3846  1.0000
  C   C10       1.0  0.17400000000000007  0.24139999999999986  0.579  1.0000
  C   C11       1.0  0.8902000000000001  0.19600000000000004  0.3846  1.0000
  C   C12       1.0  0.45189999999999997  0.05009999999999999  0.1605  1.0000
  C   C13       1.0  0.86839  0.40279  0.26161  1.0000
  C   C14       1.0  0.3000999999999998  0.19209999999999994  0.9575  1.0000
  C   C15       1.0  0.8260000000000003  0.9943999999999997  0.42099999999999993  1.0000
  C   C16       1.0  0.17399999999999996  0.579  0.005599999999999999  1.0000
  C   C17       1.0  0.4525800000000001  0.92978  0.20822  1.0000
  C   C18       1.0  0.33749999999999997  0.1605  0.05009999999999999  1.0000
  C   C19       1.0  0.8575  0.9019  0.5195  1.0000
  C   C20       1.0  0.4525799999999999  0.40942000000000006  0.92978  1.0000
  C   C21       1.0  0.5292  0.3845999999999999  0.196  1.0000
  C   C22       1.0  0.05009999999999997  0.16049999999999998  0.4519  1.0000
  C   C23       1.0  0.39920999999999995  0.52259  0.82881  1.0000
  C   C24       1.0  0.3692  0.2736  0.5845999999999999  1.0000
  C   C25       1.0  0.44970000000000004  0.8078999999999998  0.042499999999999996  1.0000
  C   C26       1.0  0.5972099999999999  0.53279  0.13161  1.0000
  C   C27       1.0  0.23090000000000005  0.07589999999999997  0.5441  1.0000
  C   C28       1.0  0.8574999999999996  0.7211  0.9018999999999999  1.0000
  C   C29       1.0  0.27890000000000004  0.14249999999999996  0.09809999999999998  1.0000
  C   C30       1.0  0.1425  0.0981  0.2789  1.0000
  C   C31       1.0  0.8178  0.2822  0.4406  1.0000
  C   C32       1.0  0.8902000000000001  0.5292  0.196  1.0000
  C   C33       1.0  0.4210000000000001  0.7585999999999998  0.8259999999999998  1.0000
  C   C34       1.0  0.52259  0.24938999999999997  0.82881  1.0000
  C   C35       1.0  0.60079  0.47740999999999995  0.7506099999999999  1.0000
  C   C36       1.0  0.804  0.47079999999999994  0.10979999999999998  1.0000
  C   C37       1.0  0.020200000000000037  0.5131999999999998  0.8146  1.0000
  C   C38       1.0  0.4209999999999999  0.8259999999999998  0.9944  1.0000
  C   C39       1.0  0.94076  0.17544  0.41124  1.0000
  C   C40       1.0  0.9018999999999999  0.5195  0.8575  1.0000
  C   C41       1.0  0.9498999999999997  0.8395  0.6625  1.0000
  C   C42       1.0  0.45258000000000004  0.20822  0.40941999999999995  1.0000
  C   C43       1.0  0.059240000000000105  0.8245599999999998  0.52744  1.0000
  C   C44       1.0  0.4406  0.45940000000000003  0.8177999999999997  1.0000
  C   C45       1.0  0.8146000000000002  0.6519999999999998  0.020199999999999996  1.0000
  C   C46       1.0  0.52744  0.58876  0.059239999999999994  1.0000
  C   C47       1.0  0.7726  0.5846  0.27359999999999995  1.0000
  C   C48       1.0  0.13161000000000012  0.7383899999999998  0.59721  1.0000
  C   C49       1.0  0.0055999999999999895  0.2414  0.174  1.0000
  C   C50       1.0  0.5327900000000001  0.5972099999999998  0.73839  1.0000
  C   C51       1.0  0.47741  0.7506100000000001  0.60079  1.0000
  C   C52       1.0  0.16049999999999995  0.050100000000000006  0.3375  1.0000
  C   C53       1.0  0.59058  0.54742  0.07022  1.0000
  C   C54       1.0  0.4559  0.7690999999999999  0.8508999999999999  1.0000
  C   C55       1.0  0.07589999999999998  0.14909999999999998  0.5441  1.0000
  C   C56       1.0  0.40279  0.26161  0.86839  1.0000
  C   C57       1.0  0.5887600000000001  0.8245599999999998  0.059239999999999994  1.0000
  C   C58       1.0  0.579  0.2414  0.005599999999999999  1.0000
  C   C59       1.0  0.40942  0.92978  0.45258  1.0000
  C   C60       1.0  0.26161000000000006  0.86839  0.40279  1.0000
  C   C61       1.0  0.804  0.6154  0.4708  1.0000
  C   C62       1.0  0.52744  0.05924000000000005  0.8245599999999998  1.0000
  C   C63       1.0  0.6308000000000001  0.41539999999999994  0.7263999999999999  1.0000
  C   C64       1.0  0.4868  0.9798  0.1854  1.0000
  C   C65       1.0  0.09810000000000003  0.48050000000000004  0.2789  1.0000
  C   C66       1.0  0.5195  0.9019  0.7210999999999999  1.0000
  C   C67       1.0  0.5291999999999999  0.19599999999999998  0.8901999999999999  1.0000
  C   C68       1.0  0.6519999999999999  0.020199999999999982  0.8146  1.0000
  C   C69       1.0  0.4725600000000001  0.9407599999999999  0.41124  1.0000
  C   C70       1.0  0.82881  0.52259  0.24939  1.0000
  C   C71       1.0  0.6999  0.44969999999999993  0.042499999999999996  1.0000
  C   C72       1.0  0.174  0.005600000000000004  0.2414  1.0000
  C   C73       1.0  0.9575  0.3000999999999999  0.1921  1.0000
  C   C74       1.0  0.59721  0.13160999999999995  0.73839  1.0000
  C   C75       1.0  0.75061  0.17118999999999998  0.60079  1.0000
  C   C76       1.0  0.39921000000000006  0.24938999999999997  0.5225899999999999  1.0000
  C   C77       1.0  0.2822000000000001  0.8178  0.4593999999999999  1.0000
  C   C78       1.0  0.7210999999999999  0.5195  0.9018999999999999  1.0000
  C   C79       1.0  0.9499  0.5481  0.8395  1.0000
  C   C80       1.0  0.7383900000000001  0.53279  0.59721  1.0000
  C   C81       1.0  0.4805  0.2788999999999999  0.09809999999999998  1.0000
  C   C82       1.0  0.04250000000000013  0.8078999999999998  0.6999  1.0000
  C   C83       1.0  0.1711899999999999  0.7506100000000001  0.47741  1.0000
  C   C84       1.0  0.22740000000000013  0.6308  0.7263999999999999  1.0000
  C   C85       1.0  0.1425  0.4804999999999999  0.09809999999999998  1.0000
  C   C86       1.0  0.059239999999999994  0.52744  0.58876  1.0000
  C   C87       1.0  0.5846  0.7726  0.3692  1.0000
  C   C88       1.0  0.8178000000000001  0.4593999999999999  0.2822  1.0000
  C   C89       1.0  0.6153999999999998  0.804  0.10979999999999998  1.0000
  C   C90       1.0  0.45189999999999997  0.16050000000000003  0.3375  1.0000
  C   C91       1.0  0.9798000000000002  0.4868  0.348  1.0000
  C   C92       1.0  0.5441000000000003  0.14909999999999995  0.2309  1.0000
  C   C93       1.0  0.18220000000000006  0.5406  0.5594  1.0000
  C   C94       1.0  0.18539999999999993  0.348  0.4868  1.0000
  C   C95       1.0  0.04250000000000002  0.44969999999999993  0.8079  1.0000
  C   C96       1.0  0.45189999999999997  0.3375  0.05009999999999999  1.0000
  C   C97       1.0  0.40942  0.20822000000000002  0.92978  1.0000
  C   C98       1.0  0.0702199999999999  0.59058  0.54742  1.0000
  C   C99       1.0  0.19209999999999997  0.9575  0.3001  1.0000
  C   C100      1.0  0.86839  0.46721  0.40279  1.0000
  C   C101      1.0  0.5406000000000001  0.7177999999999998  0.5594  1.0000
  C   C102      1.0  0.07022000000000009  0.5474199999999998  0.79178  1.0000
  C   C103      1.0  0.22740000000000016  0.41539999999999994  0.6308  1.0000
  C   C104      1.0  0.9240999999999995  0.7691  0.4559  1.0000
  C   C105      1.0  0.5593999999999999  0.18219999999999997  0.5406  1.0000
  C   C106      1.0  0.5132000000000001  0.6519999999999998  0.8146  1.0000
  C   C107      1.0  0.36919999999999964  0.5846  0.7726  1.0000
  C   C108      1.0  0.14909999999999998  0.5441  0.0759  1.0000
  C   C109      1.0  0.5846  0.3691999999999999  0.27359999999999995  1.0000
  C   C110      1.0  0.3846000000000002  0.5291999999999998  0.8901999999999999  1.0000
  C   C111      1.0  0.5195000000000001  0.7210999999999997  0.8575  1.0000
  C   C112      1.0  0.5132  0.8146  0.020199999999999996  1.0000
  C   C113      1.0  0.8902000000000001  0.3845999999999999  0.5292  1.0000
  C   C114      1.0  0.82881  0.24938999999999997  0.39921  1.0000
  C   C115      1.0  0.4805  0.0981  0.1425  1.0000
  C   C116      1.0  0.4868  0.1854  0.348  1.0000
  C   C117      1.0  0.1605  0.45189999999999997  0.05009999999999999  1.0000
  C   C118      1.0  0.22740000000000016  0.7263999999999999  0.4154  1.0000
  C   C119      1.0  0.050099999999999985  0.45189999999999997  0.3375  1.0000
  C   C120      1.0  0.52744  0.8245599999999998  0.58876  1.0000
  C   C121      1.0  0.38460000000000033  0.8901999999999993  0.196  1.0000
  C   C122      1.0  0.8508999999999998  0.7691  0.9240999999999999  1.0000
  C   C123      1.0  0.804  0.10980000000000001  0.6154  1.0000
  C   C124      1.0  0.05010000000000004  0.3374999999999999  0.1605  1.0000
  C   C125      1.0  0.40942  0.4525799999999999  0.20822  1.0000
  C   C126      1.0  0.2788999999999999  0.09810000000000003  0.4804999999999999  1.0000
  C   C127      1.0  0.20822  0.92978  0.40941999999999995  1.0000
  C   C128      1.0  0.4774100000000001  0.6007899999999999  0.17118999999999998  1.0000
  C   C129      1.0  0.60079  0.75061  0.17118999999999998  1.0000
  C   C130      1.0  0.7264  0.41539999999999994  0.22739999999999996  1.0000
  C   C131      1.0  0.7178000000000002  0.5406  0.18219999999999997  1.0000
  C   C132      1.0  0.8509  0.9240999999999999  0.4559  1.0000
  C   C133      1.0  0.9241000000000004  0.45589999999999997  0.8508999999999999  1.0000
  C   C134      1.0  0.8245599999999997  0.52744  0.059239999999999994  1.0000
  C   C135      1.0  0.79178  0.59058  0.07022  1.0000
  C   C136      1.0  0.58876  0.52744  0.8245599999999998  1.0000
  C   C137      1.0  0.20821999999999996  0.40942  0.45258  1.0000
  C   C138      1.0  0.44969999999999993  0.6999  0.8079  1.0000
  C   C139      1.0  0.5327899999999998  0.13160999999999995  0.59721  1.0000
  C   C140      1.0  0.5225899999999999  0.39921000000000006  0.24939  1.0000
  C   C141      1.0  0.3374999999999999  0.45189999999999997  0.1605  1.0000
  C   C142      1.0  0.17544000000000015  0.9407599999999999  0.4725599999999999  1.0000
  C   C143      1.0  0.8683899999999998  0.26161000000000006  0.46721  1.0000
  C   C144      1.0  0.0759  0.5441  0.2309  1.0000
  C   C145      1.0  0.6308000000000001  0.7264  0.22739999999999996  1.0000
  C   C146      1.0  0.2788999999999999  0.4804999999999999  0.1425  1.0000
  C   C147      1.0  0.17543999999999996  0.47255999999999987  0.41124  1.0000
  C   C148      1.0  0.7383900000000001  0.5972099999999999  0.13161  1.0000
  C   C149      1.0  0.17119000000000006  0.6007899999999999  0.7506099999999999  1.0000
  C   C150      1.0  0.07021999999999987  0.79178  0.59058  1.0000
  C   C151      1.0  0.24938999999999995  0.39920999999999995  0.82881  1.0000
  C   C152      1.0  0.24139999999999998  0.174  0.005599999999999999  1.0000
  C   C153      1.0  0.4154000000000001  0.22740000000000005  0.7263999999999999  1.0000
  C   C154      1.0  0.26160999999999995  0.40279  0.46721  1.0000
  C   C155      1.0  0.45940000000000003  0.4406  0.2822  1.0000
  C   C156      1.0  0.8079  0.0425  0.4497  1.0000
  C   C157      1.0  0.07590000000000001  0.23089999999999994  0.1491  1.0000
  C   C158      1.0  0.4593999999999998  0.8178000000000001  0.4406  1.0000
  C   C159      1.0  0.4868000000000002  0.348  0.9797999999999998  1.0000
  C   C160      1.0  0.348  0.9798  0.4868  1.0000
  C   C161      1.0  0.9944000000000004  0.8259999999999993  0.7586  1.0000
  C   C162      1.0  0.1491000000000001  0.23089999999999988  0.5441  1.0000
  C   C163      1.0  0.1822000000000001  0.7177999999999998  0.5406  1.0000
  C   C164      1.0  0.5481  0.6624999999999999  0.8395  1.0000
  C   C165      1.0  0.36919999999999986  0.7726  0.27359999999999995  1.0000
  C   C166      1.0  0.5327899999999999  0.73839  0.13161  1.0000
  C   C167      1.0  0.14250000000000004  0.27889999999999987  0.4804999999999999  1.0000
  C   C168      1.0  0.04250000000000005  0.6999  0.4497  1.0000
  C   C169      1.0  0.6625000000000001  0.9499  0.8395  1.0000
  C   C170      1.0  0.348  0.4868  0.1854  1.0000
  C   C171      1.0  0.4027900000000001  0.86839  0.46721  1.0000
  C   C172      1.0  0.09810000000000003  0.1425  0.4804999999999999  1.0000
  C   C173      1.0  0.4708  0.804  0.6154  1.0000
  C   C174      1.0  0.9241  0.8508999999999999  0.7691  1.0000
  C   C175      1.0  0.7210999999999999  0.9019  0.8575  1.0000
  C   C176      1.0  0.44970000000000004  0.0425  0.6999  1.0000
  C   C177      1.0  0.94076  0.4112400000000001  0.4725599999999999  1.0000
  C   C178      1.0  0.5846  0.27359999999999995  0.7726  1.0000
  C   C179      1.0  0.6154000000000001  0.47079999999999983  0.8039999999999999  1.0000
  C   C180      1.0  0.7586000000000002  0.42099999999999993  0.9944  1.0000
  C   C181      1.0  0.7178  0.1822  0.5594  1.0000
  C   C182      1.0  0.8146  0.020200000000000023  0.5131999999999999  1.0000
  C   C183      1.0  0.005600000000000009  0.17399999999999996  0.579  1.0000
  C   C184      1.0  0.19210000000000005  0.3001  0.5503  1.0000
  C   C185      1.0  0.42100000000000015  0.9943999999999995  0.7586  1.0000
  C   C186      1.0  0.10980000000000009  0.804  0.4708  1.0000
  C   C187      1.0  0.8079000000000001  0.44969999999999993  0.6999  1.0000
  C   C188      1.0  0.5503  0.9575  0.1921  1.0000
  C   C189      1.0  0.8395  0.5481  0.6625  1.0000
  C   C190      1.0  0.19209999999999985  0.5503000000000001  0.9575  1.0000
  C   C191      1.0  0.47741  0.17119000000000004  0.7506099999999999  1.0000
  C   C192      1.0  0.4406000000000001  0.28220000000000006  0.4593999999999999  1.0000
  C   C193      1.0  0.54742  0.5905799999999999  0.79178  1.0000
  C   C194      1.0  0.9297800000000005  0.45258000000000004  0.40941999999999995  1.0000
  C   C195      1.0  0.94076  0.47255999999999987  0.17544  1.0000
  C   C196      1.0  0.24139999999999998  0.005600000000000004  0.579  1.0000
  C   C197      1.0  0.79178  0.07022  0.54742  1.0000
  C   C198      1.0  0.47256000000000004  0.17543999999999996  0.94076  1.0000
  C   C199      1.0  0.28220000000000006  0.4593999999999999  0.4406  1.0000
  C   C200      1.0  0.10980000000000013  0.6153999999999998  0.8039999999999999  1.0000
  C   C201      1.0  0.7264  0.22739999999999996  0.6308  1.0000
  C   C202      1.0  0.4406  0.8178  0.2822  1.0000
  C   C203      1.0  0.19599999999999998  0.3846  0.8901999999999999  1.0000
  C   C204      1.0  0.8509000000000003  0.45589999999999997  0.7691  1.0000
  C   C205      1.0  0.8079  0.6999  0.042499999999999996  1.0000
  C   C206      1.0  0.348  0.1854000000000001  0.9797999999999998  1.0000
  C   C207      1.0  0.02019999999999996  0.8146  0.652  1.0000
  C   C208      1.0  0.3375  0.050099999999999985  0.4519  1.0000
  C   C209      1.0  0.5441  0.0759  0.1491  1.0000
  C   C210      1.0  0.6625  0.8395  0.5481  1.0000
  C   C211      1.0  0.7506100000000002  0.6007899999999999  0.47741  1.0000
  C   C212      1.0  0.09810000000000005  0.2788999999999999  0.1425  1.0000
  C   C213      1.0  0.9575  0.5503  0.3001  1.0000
  C   C214      1.0  0.2735999999999999  0.3692  0.7726  1.0000
  C   C215      1.0  0.4112400000000001  0.9407599999999999  0.17544  1.0000
  C   C216      1.0  0.7383900000000001  0.13160999999999995  0.53279  1.0000
  C   C217      1.0  0.6625000000000002  0.5480999999999999  0.9499  1.0000
  C   C218      1.0  0.9019  0.8574999999999998  0.7210999999999999  1.0000
  C   C219      1.0  0.3000999999999999  0.9575  0.5503  1.0000
  C   C220      1.0  0.8146000000000002  0.5131999999999998  0.652  1.0000
  C   C221      1.0  0.5481000000000004  0.9499  0.6625  1.0000
  C   C222      1.0  0.9297799999999999  0.40942  0.20822  1.0000
  C   C223      1.0  0.18539999999999995  0.9798  0.348  1.0000
  C   C224      1.0  0.7586000000000003  0.9943999999999995  0.8259999999999998  1.0000
  C   C225      1.0  0.27359999999999995  0.5846  0.3692  1.0000
  C   C226      1.0  0.9018999999999999  0.7210999999999999  0.5195  1.0000
  C   C227      1.0  0.10979999999999994  0.47079999999999994  0.6154  1.0000
  C   C228      1.0  0.18540000000000004  0.48680000000000007  0.9797999999999998  1.0000
  C   C229      1.0  0.4112400000000001  0.47255999999999976  0.94076  1.0000
  C   C230      1.0  0.020200000000000187  0.6519999999999998  0.5131999999999999  1.0000
  C   C231      1.0  0.8288100000000002  0.39920999999999995  0.5225899999999999  1.0000
  C   C232      1.0  0.7726  0.36920000000000003  0.5845999999999999  1.0000
  C   C233      1.0  0.41540000000000005  0.7264  0.6308  1.0000
  C   C234      1.0  0.18219999999999997  0.5594  0.7177999999999999  1.0000
  C   C235      1.0  0.579  0.005600000000000004  0.174  1.0000
  C   C236      1.0  0.5132000000000002  0.020199999999999982  0.652  1.0000
  C   C237      1.0  0.39921000000000006  0.8288099999999999  0.24939  1.0000
  C   C238      1.0  0.3846  0.19600000000000004  0.5292  1.0000
  C   C239      1.0  0.20822  0.45258000000000004  0.92978  1.0000
  C   C240      1.0  0.5195000000000001  0.8574999999999999  0.9018999999999999  1.0000
  C   C241      1.0  0.5474199999999999  0.79178  0.07022  1.0000
  C   C242      1.0  0.54742  0.07022  0.59058  1.0000
  C   C243      1.0  0.59058  0.79178  0.54742  1.0000
  C   C244      1.0  0.46721  0.40279  0.86839  1.0000
  C   C245      1.0  0.4559  0.9240999999999999  0.7691  1.0000
  C   C246      1.0  0.5887599999999998  0.05924000000000001  0.52744  1.0000
  C   C247      1.0  0.7690999999999995  0.8509  0.4559  1.0000
  C   C248      1.0  0.7691  0.45589999999999997  0.9240999999999999  1.0000
  C   C249      1.0  0.14909999999999995  0.07589999999999997  0.2309  1.0000
  C   C250      1.0  0.7178  0.5593999999999999  0.5406  1.0000
  C   C251      1.0  0.19599999999999992  0.5292  0.3846  1.0000
  C   C252      1.0  0.2414  0.579  0.174  1.0000
  C   C253      1.0  0.26160999999999995  0.46721  0.86839  1.0000
  C   C254      1.0  0.4708  0.6154  0.10979999999999998  1.0000
  C   C255      1.0  0.9297799999999999  0.20822  0.45258  1.0000
  C   C256      1.0  0.7691000000000001  0.9240999999999999  0.8508999999999999  1.0000
  C   C257      1.0  0.60079  0.17119  0.47741  1.0000
  C   C258      1.0  0.7264  0.6308  0.4154  1.0000
  C   C259      1.0  0.5502999999999997  0.30009999999999987  0.9575  1.0000
  C   C260      1.0  0.8178000000000001  0.4406000000000001  0.4593999999999999  1.0000
  C   C261      1.0  0.13161  0.5972099999999999  0.53279  1.0000
  C   C262      1.0  0.47256000000000004  0.41124  0.17544  1.0000
  C   C263      1.0  0.7917799999999999  0.54742  0.59058  1.0000
  C   C264      1.0  0.23090000000000005  0.14909999999999998  0.0759  1.0000
  C   C265      1.0  0.5594  0.5406  0.7177999999999999  1.0000
  C   C266      1.0  0.2309  0.5441  0.1491  1.0000
  C   C267      1.0  0.4027899999999999  0.46721  0.26161  1.0000
  C   C268      1.0  0.3001  0.5503  0.1921  1.0000
  C   C269      1.0  0.27359999999999995  0.7726  0.5845999999999999  1.0000
  C   C270      1.0  0.6154  0.10979999999999994  0.4708  1.0000
  C   C271      1.0  0.5441  0.23089999999999994  0.0759  1.0000
  C   C272      1.0  0.6998999999999999  0.0425  0.8079  1.0000
  C   C273      1.0  0.17544  0.41123999999999994  0.94076  1.0000
  C   C274      1.0  0.4559  0.8508999999999999  0.9240999999999999  1.0000
  C   C275      1.0  0.0055999999999999705  0.579  0.2414  1.0000
  C   C276      1.0  0.5406000000000001  0.5593999999999999  0.18219999999999997  1.0000
  C   C277      1.0  0.13161000000000006  0.53279  0.73839  1.0000
  C   C278      1.0  0.652  0.8146  0.5131999999999999  1.0000
  C   C279      1.0  0.652  0.5131999999999999  0.020199999999999996  1.0000
  C   C280      1.0  0.9944000000000001  0.7585999999999999  0.42099999999999993  1.0000
  C   C281      1.0  0.8394999999999999  0.9499  0.5481  1.0000
  C   C282      1.0  0.17119  0.47740999999999995  0.60079  1.0000
  C   C283      1.0  0.82456  0.58876  0.52744  1.0000
  C   C284      1.0  0.9944  0.42099999999999993  0.8259999999999998  1.0000
  C   C285      1.0  0.46720999999999996  0.26161  0.40279  1.0000
  C   C286      1.0  0.5406000000000001  0.18220000000000003  0.7177999999999999  1.0000
  C   C287      1.0  0.75061  0.47740999999999995  0.17118999999999998  1.0000
  C   C288      1.0  0.6308  0.22739999999999994  0.4154  1.0000
  C   C289      1.0  0.5503000000000001  0.1921  0.3001  1.0000
  C   C290      1.0  0.05924000000000018  0.5887599999999997  0.8245599999999998  1.0000
  C   C291      1.0  0.8395000000000002  0.6624999999999998  0.9499  1.0000
  C   C292      1.0  0.41539999999999994  0.6308  0.22739999999999996  1.0000
  C   C293      1.0  0.45940000000000014  0.28220000000000006  0.8177999999999997  1.0000
  C   C294      1.0  0.6999  0.8078999999999998  0.4497  1.0000
  C   C295      1.0  0.59721  0.7383899999999998  0.53279  1.0000
  C   C296      1.0  0.4708  0.10980000000000001  0.8039999999999999  1.0000
  C   C297      1.0  0.24939000000000006  0.52259  0.39921  1.0000
  C   C298      1.0  0.9798000000000002  0.18539999999999993  0.4868  1.0000
  C   C299      1.0  0.579  0.17399999999999996  0.2414  1.0000
  C   C300      1.0  0.19600000000000012  0.8901999999999999  0.5292  1.0000
  C   C301      1.0  0.28220000000000006  0.4406000000000001  0.8177999999999997  1.0000
  C   C302      1.0  0.8259999999999998  0.42099999999999993  0.7586  1.0000
  C   C303      1.0  0.7586  0.8259999999999998  0.42099999999999993  1.0000
  C   C304      1.0  0.8260000000000002  0.7585999999999999  0.9944  1.0000
  C   C305      1.0  0.8575000000000003  0.5195  0.7210999999999999  1.0000
  C   C306      1.0  0.4805000000000001  0.14249999999999996  0.2789  1.0000
  C   C307      1.0  0.5594000000000001  0.7177999999999999  0.18219999999999997  1.0000
  C   C308      1.0  0.7210999999999999  0.8574999999999998  0.5195  1.0000
  C   C309      1.0  0.5225900000000002  0.8288099999999999  0.39921  1.0000
  C   C310      1.0  0.5481  0.8395  0.9499  1.0000
  C   C311      1.0  0.4112400000000001  0.17544  0.4725599999999999  1.0000
  C   C312      1.0  0.82456  0.05924000000000001  0.58876  1.0000
  O   O1        1.0  0.3598  0.7514  0.671  1.0000
  O   O2        1.0  0.43190000000000006  0.6751  0.6139  1.0000
  O   O3        1.0  0.6139  0.43189999999999995  0.6750999999999998  1.0000
  O   O4        1.0  0.38610000000000005  0.32489999999999997  0.5681  1.0000
  O   O5        1.0  0.3598000000000001  0.21779999999999997  0.7514  1.0000
  O   O6        1.0  0.43189999999999995  0.2791000000000001  0.6750999999999998  1.0000
  O   O7        1.0  0.2791  0.6139000000000001  0.6750999999999998  1.0000
  O   O8        1.0  0.3290000000000001  0.7821999999999999  0.2486  1.0000
  O   O9        1.0  0.6709999999999999  0.3598  0.7514  1.0000
  O   O10       1.0  0.6751  0.6139  0.4319  1.0000
  O   O11       1.0  0.7209  0.32489999999999997  0.3861  1.0000
  O   O12       1.0  0.32900000000000007  0.24859999999999993  0.6402  1.0000
  O   O13       1.0  0.6751  0.27909999999999996  0.6139  1.0000
  O   O14       1.0  0.21779999999999994  0.3598  0.671  1.0000
  O   O15       1.0  0.3598  0.671  0.21779999999999997  1.0000
  O   O16       1.0  0.6751  0.4318999999999999  0.2791  1.0000
  O   O17       1.0  0.38609999999999994  0.5681  0.7209  1.0000
  O   O18       1.0  0.6402000000000002  0.7821999999999999  0.329  1.0000
  O   O19       1.0  0.32490000000000013  0.7208999999999999  0.5681  1.0000
  O   O20       1.0  0.7514000000000001  0.21779999999999997  0.671  1.0000
  O   O21       1.0  0.2790999999999999  0.43189999999999995  0.6139  1.0000
  O   O22       1.0  0.24860000000000002  0.6402  0.329  1.0000
  O   O23       1.0  0.3860999999999999  0.7209  0.32489999999999997  1.0000
  O   O24       1.0  0.7514000000000001  0.3598  0.21779999999999997  1.0000
  O   O25       1.0  0.32489999999999997  0.3860999999999999  0.7209  1.0000
  O   O26       1.0  0.6402  0.24860000000000002  0.7822  1.0000
  O   O27       1.0  0.3249000000000001  0.5681  0.3861  1.0000
  O   O28       1.0  0.2486  0.329  0.7822  1.0000
  O   O29       1.0  0.32900000000000024  0.6402  0.7822  1.0000
  O   O30       1.0  0.5681  0.7208999999999999  0.3861  1.0000
  O   O31       1.0  0.6139  0.6751  0.2791  1.0000
  O   O32       1.0  0.2178000000000002  0.6709999999999998  0.7514  1.0000
  O   O33       1.0  0.4318999999999999  0.6139  0.2791  1.0000
  O   O34       1.0  0.7209  0.5681000000000002  0.32489999999999997  1.0000
  O   O35       1.0  0.5680999999999999  0.32489999999999997  0.7209  1.0000
  O   O36       1.0  0.7514000000000001  0.6710000000000002  0.3598  1.0000
  O   O37       1.0  0.7822  0.32899999999999996  0.6402  1.0000
  O   O38       1.0  0.21780000000000005  0.7513999999999998  0.3598  1.0000
  O   O39       1.0  0.671  0.21779999999999997  0.3598  1.0000
  O   O40       1.0  0.6139  0.27909999999999996  0.4319  1.0000
  O   O41       1.0  0.7822  0.24859999999999993  0.329  1.0000
  O   O42       1.0  0.24860000000000007  0.7821999999999999  0.6402  1.0000
  O   O43       1.0  0.671  0.7513999999999997  0.21779999999999997  1.0000
  O   O44       1.0  0.2791  0.6751  0.4319  1.0000
  O   O45       1.0  0.7209  0.3860999999999999  0.5681  1.0000
  O   O46       1.0  0.7822  0.6402  0.2486  1.0000
  O   O47       1.0  0.5680999999999999  0.38609999999999994  0.32489999999999997  1.0000
  O   O48       1.0  0.6402  0.32899999999999996  0.2486  1.0000
