data_image0
_chemical_formula_structural       Fe6Ag6H180C252N54Fe6Ag6H180C252N54
_chemical_formula_sum              "Fe12 Ag12 H360 C504 N108"
_cell_length_a       14.882
_cell_length_b       31.2034
_cell_length_c       36.9609
_cell_angle_alpha    113.689
_cell_angle_beta     99.1303
_cell_angle_gamma    95.79769999999999

_symmetry_space_group_name_H-M    'P 1'
_symmetry_Int_Tables_number       1

loop_
  _symmetry_equiv_pos_as_xyz
  'x,y,z'

loop_
  _atom_site_type_symbol
  _atom_site_label
  _atom_site_symmetry_multiplicity
  _atom_site_fract_x
  _atom_site_fract_y
  _atom_site_fract_z
  _atom_site_occupancy
  Fe  Fe1       1.0  0.93835  0.32725  0.94812  1.0000
  Fe  Fe2       1.0  0.6483199999999999  0.55516  0.4425  1.0000
  Fe  Fe3       1.0  0.50977  0.62087  0.94812  1.0000
  Fe  Fe4       1.0  0.29418  0.88734  0.4425  1.0000
  Fe  Fe5       1.0  0.21712  0.9671200000000001  0.9342400000000001  1.0000
  Fe  Fe6       1.0  0.96044  0.21044  0.42088  1.0000
  Ag  Ag1       1.0  0.055170000000000025  0.46918  0.24746000000000004  1.0000
  Ag  Ag2       1.0  0.72474  0.70194  0.74166  1.0000
  Ag  Ag3       1.0  0.69229  0.77828  0.24746000000000004  1.0000
  Ag  Ag4       1.0  0.51692  0.039719999999999964  0.74166  1.0000
  Ag  Ag5       1.0  0.36723  0.11723  0.23446  1.0000
  Ag  Ag6       1.0  0.10937999999999999  0.35938  0.71876  1.0000
  H   H1        1.0  0.9656999999999999  0.21940000000000007  0.9156000000000002  1.0000
  H   H2        1.0  0.013999999999999976  0.17509999999999995  0.8508  1.0000
  H   H3        1.0  0.055399999999999956  0.2341  0.8232  1.0000
  H   H4        1.0  0.0964  0.4277  0.8906  1.0000
  H   H5        1.0  0.08010000000000002  0.4857000000000001  0.957  1.0000
  H   H6        1.0  0.008099999999999991  0.4392  0.9906  1.0000
  H   H7        1.0  0.9364  0.302  0.8034  1.0000
  H   H8        1.0  0.9705  0.3067000000000002  0.7464  1.0000
  H   H9        1.0  0.2275999999999999  0.359  0.799  1.0000
  H   H10       1.0  0.2013  0.35679999999999995  0.8578  1.0000
  H   H11       1.0  0.5321  0.5143  0.896  1.0000
  H   H12       1.0  0.5839  0.4881  0.8292  1.0000
  H   H13       1.0  0.6268  0.5603  0.8186  1.0000
  H   H14       1.0  0.6897999999999997  0.747  0.9214  1.0000
  H   H15       1.0  0.6654  0.7885  0.9928  1.0000
  H   H16       1.0  0.5869  0.7273  0.0092  1.0000
  H   H17       1.0  0.5213  0.6423  0.8186  1.0000
  H   H18       1.0  0.5618  0.6607  0.7684  1.0000
  H   H19       1.0  0.8234999999999998  0.6978  0.824  1.0000
  H   H20       1.0  0.7887999999999998  0.6812  0.877  1.0000
  H   H21       1.0  0.7713999999999998  0.38060000000000005  0.9548  1.0000
  H   H22       1.0  0.7295999999999998  0.4338000000000001  0.019  1.0000
  H   H23       1.0  0.8477  0.4353  0.076  1.0000
  H   H24       1.0  0.168  0.3666  0.0792  1.0000
  H   H25       1.0  0.23769999999999994  0.3153  0.025  1.0000
  H   H26       1.0  0.1268  0.29329999999999995  0.9588  1.0000
  H   H27       1.0  0.006900000000000003  0.343  0.1008  1.0000
  H   H28       1.0  0.025899999999999968  0.3765  0.17  1.0000
  H   H29       1.0  0.0577  0.5048  0.177  1.0000
  H   H30       1.0  0.03149999999999998  0.4764  0.1082  1.0000
  H   H31       1.0  0.6983999999999999  0.4527000000000001  0.3964  1.0000
  H   H32       1.0  0.6050999999999997  0.3903  0.3292  1.0000
  H   H33       1.0  0.4643  0.4203  0.3122  1.0000
  H   H34       1.0  0.3184  0.5709  0.4008  1.0000
  H   H35       1.0  0.3819999999999999  0.6395  0.4692  1.0000
  H   H36       1.0  0.5425999999999999  0.6319000000000001  0.49380000000000007  1.0000
  H   H37       1.0  0.3128  0.4298  0.3398  1.0000
  H   H38       1.0  0.1794  0.4111  0.2898  1.0000
  H   H39       1.0  0.2526  0.5309  0.2796  1.0000
  H   H40       1.0  0.3860999999999999  0.5527  0.3302  1.0000
  H   H41       1.0  0.8009  0.5288  0.49360000000000004  1.0000
  H   H42       1.0  0.9430999999999998  0.5001  0.4724  1.0000
  H   H43       1.0  0.943  0.5018  0.4052  1.0000
  H   H44       1.0  0.7233  0.5699  0.3178  1.0000
  H   H45       1.0  0.5888  0.6127  0.33280000000000004  1.0000
  H   H46       1.0  0.5566999999999999  0.6124  0.3966  1.0000
  H   H47       1.0  0.7956  0.45350000000000007  0.321  1.0000
  H   H48       1.0  0.8805999999999998  0.4323000000000001  0.2722  1.0000
  H   H49       1.0  0.0059000000000000215  0.5633000000000001  0.3104  1.0000
  H   H50       1.0  0.9219  0.5901  0.3606  1.0000
  H   H51       1.0  0.7315  0.6562  0.4536  1.0000
  H   H52       1.0  0.7735  0.7298  0.5182  1.0000
  H   H53       1.0  0.7518  0.7054  0.5732  1.0000
  H   H54       1.0  0.6375  0.5336  0.571  1.0000
  H   H55       1.0  0.5847  0.4525  0.5148  1.0000
  H   H56       1.0  0.5853999999999998  0.4616  0.45  1.0000
  H   H57       1.0  0.8363  0.6412  0.6062  1.0000
  H   H58       1.0  0.8483999999999998  0.6738  0.675  1.0000
  H   H59       1.0  0.5769999999999998  0.6613  0.6598  1.0000
  H   H60       1.0  0.5608  0.6267  0.5908  1.0000
  H   H61       1.0  0.7317  0.8157000000000002  0.8046  1.0000
  H   H62       1.0  0.8391999999999997  0.8789  0.854  1.0000
  H   H63       1.0  0.040199999999999965  0.8106  0.8088  1.0000
  H   H64       1.0  0.9262  0.7505  0.761  1.0000
  H   H65       1.0  0.9873  0.8169  0.895  1.0000
  H   H66       1.0  0.08679999999999999  0.8303  0.9604  1.0000
  H   H67       1.0  0.2026999999999999  0.9054999999999999  0.9833999999999999  1.0000
  H   H68       1.0  0.9595999999999999  0.924  0.8108  1.0000
  H   H69       1.0  0.038599999999999975  0.00569999999999998  0.8262  1.0000
  H   H70       1.0  0.16459999999999994  0.03150000000000001  0.8886  1.0000
  H   H71       1.0  0.3952  0.9231  0.9424  1.0000
  H   H72       1.0  0.5036  0.9393  0.009  1.0000
  H   H73       1.0  0.4341  0.991  0.064  1.0000
  H   H74       1.0  0.4027999999999999  0.0905  0.09  1.0000
  H   H75       1.0  0.4316  0.1252  0.1602  1.0000
  H   H76       1.0  0.3413  0.2193  0.3  1.0000
  H   H77       1.0  0.24939999999999998  0.2471  0.3472  1.0000
  H   H78       1.0  0.0748  0.12140000000000001  0.2892  1.0000
  H   H79       1.0  0.17229999999999995  0.0962  0.2436  1.0000
  H   H80       1.0  0.8513999999999996  0.2642  0.3754  1.0000
  H   H81       1.0  0.8859999999999998  0.2705  0.3126  1.0000
  H   H82       1.0  0.022200000000000015  0.23220000000000002  0.2976  1.0000
  H   H83       1.0  0.256  0.16500000000000006  0.3802  1.0000
  H   H84       1.0  0.2635  0.1589  0.4454  1.0000
  H   H85       1.0  0.11869999999999999  0.1833  0.4696  1.0000
  H   H86       1.0  0.024600000000000007  0.3135  0.4294  1.0000
  H   H87       1.0  0.06869999999999993  0.3877999999999999  0.4951999999999999  1.0000
  H   H88       1.0  0.06440000000000001  0.3625  0.5506  1.0000
  H   H89       1.0  0.17469999999999997  0.2974  0.5766  1.0000
  H   H90       1.0  0.20720000000000002  0.331  0.6462  1.0000
  H   H91       1.0  0.44990000000000013  0.6962  0.9156000000000002  1.0000
  H   H92       1.0  0.3368  0.6757  0.8508  1.0000
  H   H93       1.0  0.26779999999999987  0.5891  0.8232  1.0000
  H   H94       1.0  0.2942  0.4629  0.8906  1.0000
  H   H95       1.0  0.3769  0.4713  0.957  1.0000
  H   H96       1.0  0.4824999999999999  0.5514  0.9906  1.0000
  H   H97       1.0  0.36699999999999994  0.5014  0.8034  1.0000
  H   H98       1.0  0.27590000000000003  0.4397  0.7464  1.0000
  H   H99       1.0  0.0714  0.44  0.799  1.0000
  H   H100      1.0  0.1565  0.501  0.8578  1.0000
  H   H101      1.0  0.8638999999999998  0.3817  0.896  1.0000
  H   H102      1.0  0.7452999999999997  0.34109999999999996  0.8292  1.0000
  H   H103      1.0  0.6917999999999997  0.2582999999999999  0.8186  1.0000
  H   H104      1.0  0.7315999999999998  0.17439999999999997  0.9214  1.0000
  H   H105      1.0  0.8274  0.2043  0.9928  1.0000
  H   H106      1.0  0.9223  0.2819  0.0092  1.0000
  H   H107      1.0  0.7972999999999999  0.17629999999999996  0.8186  1.0000
  H   H108      1.0  0.7066  0.10769999999999996  0.7684  1.0000
  H   H109      1.0  0.5005  0.12620000000000003  0.824  1.0000
  H   H110      1.0  0.5882  0.19579999999999997  0.877  1.0000
  H   H111      1.0  0.6834  0.5742  0.9548  1.0000
  H   H112      1.0  0.7894  0.5852  0.019  1.0000
  H   H113      1.0  0.7283000000000001  0.6407000000000002  0.076  1.0000
  H   H114      1.0  0.4112  0.7126  0.0792  1.0000
  H   H115      1.0  0.28729999999999994  0.7097  0.025  1.0000
  H   H116      1.0  0.3320000000000001  0.6655  0.9588  1.0000
  H   H117      1.0  0.5938999999999999  0.7578  0.1008  1.0000
  H   H118      1.0  0.6441  0.7935  0.17  1.0000
  H   H119      1.0  0.6193  0.6722  0.177  1.0000
  H   H120      1.0  0.5767  0.6318  0.1082  1.0000
  H   H121      1.0  0.19800000000000006  0.9437  0.3964  1.0000
  H   H122      1.0  0.2241  0.9389  0.3292  1.0000
  H   H123      1.0  0.3478999999999999  0.8919  0.3122  1.0000
  H   H124      1.0  0.5823999999999998  0.8299  0.4008  1.0000
  H   H125      1.0  0.5872  0.8296999999999999  0.4692  1.0000
  H   H126      1.0  0.45120000000000005  0.8619  0.49380000000000007  1.0000
  H   H127      1.0  0.527  0.91  0.3398  1.0000
  H   H128      1.0  0.6103999999999999  0.8787  0.2898  1.0000
  H   H129      1.0  0.527  0.7487  0.2796  1.0000
  H   H130      1.0  0.4440999999999999  0.7775  0.3302  1.0000
  H   H131      1.0  0.19269999999999998  0.9648  0.49360000000000004  1.0000
  H   H132      1.0  0.029300000000000024  0.9723  0.4724  1.0000
  H   H133      1.0  0.9621999999999998  0.9034  0.4052  1.0000
  H   H134      1.0  0.09449999999999999  0.7479  0.3178  1.0000
  H   H135      1.0  0.24400000000000008  0.7201  0.33280000000000004  1.0000
  H   H136      1.0  0.3399  0.7842  0.3966  1.0000
  H   H137      1.0  0.025399999999999995  0.8675  0.321  1.0000
  H   H138      1.0  0.8916  0.8399  0.2722  1.0000
  H   H139      1.0  0.8045  0.7471000000000002  0.3104  1.0000
  H   H140      1.0  0.9386999999999998  0.7704999999999999  0.3606  1.0000
  H   H141      1.0  0.22209999999999994  0.7974  0.4536  1.0000
  H   H142      1.0  0.24470000000000003  0.7884000000000002  0.5182  1.0000
  H   H143      1.0  0.3214  0.8678  0.5732  1.0000
  H   H144      1.0  0.4335  0.03739999999999999  0.571  1.0000
  H   H145      1.0  0.4301  0.0623  0.5148  1.0000
  H   H146      1.0  0.36459999999999987  0.9884  0.45  1.0000
  H   H147      1.0  0.2698999999999999  0.965  0.6062  1.0000
  H   H148      1.0  0.3265999999999999  0.0011999999999999628  0.675  1.0000
  H   H149      1.0  0.5827999999999998  0.9984999999999999  0.6598  1.0000
  H   H150      1.0  0.53  0.9641  0.5908  1.0000
  H   H151      1.0  0.5729  0.9889000000000002  0.8046  1.0000
  H   H152      1.0  0.5148  0.9751  0.854  1.0000
  H   H153      1.0  0.26859999999999995  0.9981999999999999  0.8088  1.0000
  H   H154      1.0  0.3348  0.010500000000000002  0.761  1.0000
  H   H155      1.0  0.40769999999999984  0.07809999999999997  0.895  1.0000
  H   H156      1.0  0.3736  0.1301  0.9604  1.0000
  H   H157      1.0  0.28070000000000006  0.07789999999999998  0.9833999999999999  1.0000
  H   H158      1.0  0.3512  0.8868  0.8108  1.0000
  H   H159      1.0  0.28759999999999997  0.8205  0.8262  1.0000
  H   H160      1.0  0.22399999999999998  0.8571  0.8886  1.0000
  H   H161      1.0  0.04720000000000001  0.019299999999999977  0.9424  1.0000
  H   H162      1.0  0.005399999999999997  0.0697  0.009  1.0000
  H   H163      1.0  0.1299  0.073  0.064  1.0000
  H   H164      1.0  0.18720000000000003  0.9995000000000003  0.09  1.0000
  H   H165      1.0  0.22859999999999994  0.03500000000000002  0.1602  1.0000
  H   H166      1.0  0.4586999999999999  0.0807  0.3  1.0000
  H   H167      1.0  0.5978  0.10010000000000004  0.3472  1.0000
  H   H168      1.0  0.7144  0.1678  0.2892  1.0000
  H   H169      1.0  0.5713  0.1474  0.2436  1.0000
  H   H170      1.0  0.023999999999999994  0.11120000000000002  0.3754  1.0000
  H   H171      1.0  0.9265999999999998  0.0421  0.3126  1.0000
  H   H172      1.0  0.7753999999999998  0.06540000000000003  0.2976  1.0000
  H   H173      1.0  0.6241999999999998  0.2152  0.3802  1.0000
  H   H174      1.0  0.6818999999999997  0.28650000000000003  0.4454  1.0000
  H   H175      1.0  0.8509  0.2863  0.4696  1.0000
  H   H176      1.0  0.9048  0.1159  0.4294  1.0000
  H   H177      1.0  0.9264999999999999  0.10739999999999998  0.4951999999999999  1.0000
  H   H178      1.0  0.9861999999999997  0.1881  0.5506  1.0000
  H   H179      1.0  0.9018999999999998  0.2792  0.5766  1.0000
  H   H180      1.0  0.9390000000000001  0.3152  0.6462  1.0000
  C   C1        1.0  0.98435  0.23334999999999995  0.8987  1.0000
  C   C2        1.0  0.011689999999999999  0.2081900000000001  0.86258  1.0000
  C   C3        1.0  0.034319999999999976  0.24032000000000006  0.84744  1.0000
  C   C4        1.0  0.019840000000000007  0.28474  0.87528  1.0000
  C   C5        1.0  0.041949999999999966  0.32924999999999993  0.8753  1.0000
  C   C6        1.0  0.04298000000000004  0.37278  0.90616  1.0000
  C   C7        1.0  0.07316000000000003  0.42016  0.91032  1.0000
  C   C8        1.0  0.06345000000000003  0.45205  0.9463  1.0000
  C   C9        1.0  0.02346000000000001  0.42556  0.96492  1.0000
  C   C10       1.0  0.06758999999999994  0.32929  0.83758  1.0000
  C   C11       1.0  0.99773  0.3139300000000001  0.80346  1.0000
  C   C12       1.0  0.019469999999999973  0.31647  0.76954  1.0000
  C   C13       1.0  0.16709999999999997  0.3466  0.7996  1.0000
  C   C14       1.0  0.15145999999999996  0.34566  0.83492  1.0000
  C   C15       1.0  0.55384  0.53494  0.88488  1.0000
  C   C16       1.0  0.58238  0.51988  0.84696  1.0000
  C   C17       1.0  0.60662  0.55922  0.84144  1.0000
  C   C18       1.0  0.59644  0.59894  0.87628  1.0000
  C   C19       1.0  0.6223599999999998  0.64626  0.88552  1.0000
  C   C20       1.0  0.62258  0.68348  0.92216  1.0000
  C   C21       1.0  0.6609899999999997  0.73269  0.93598  1.0000
  C   C22       1.0  0.64751  0.75551  0.9754200000000001  1.0000
  C   C23       1.0  0.6035699999999998  0.72117  0.98414  1.0000
  C   C24       1.0  0.6502399999999998  0.65814  0.85308  1.0000
  C   C25       1.0  0.58457  0.65307  0.82034  1.0000
  C   C26       1.0  0.60943  0.66343  0.79006  1.0000
  C   C27       1.0  0.76138  0.68518  0.82236  1.0000
  C   C28       1.0  0.7409899999999998  0.67569  0.85438  1.0000
  C   C29       1.0  0.80618  0.38858  0.98116  1.0000
  C   C30       1.0  0.7811099999999997  0.41791  0.01682  1.0000
  C   C31       1.0  0.8461099999999998  0.41901  0.04782  1.0000
  C   C32       1.0  0.9109299999999998  0.39103  0.03026  1.0000
  C   C33       1.0  0.9912299999999999  0.38433  0.05106  1.0000
  C   C34       1.0  0.05540999999999997  0.35861  0.03262  1.0000
  C   C35       1.0  0.14168  0.35298  0.05096  1.0000
  C   C36       1.0  0.17969  0.32509  0.02158  1.0000
  C   C37       1.0  0.11693999999999996  0.31304  0.98468  1.0000
  C   C38       1.0  0.01047000000000001  0.40637000000000006  0.09554  1.0000
  C   C39       1.0  0.013529999999999999  0.37653  0.11546  1.0000
  C   C40       1.0  0.026429999999999995  0.39733  0.15706  1.0000
  C   C41       1.0  0.043719999999999974  0.47132  0.16104  1.0000
  C   C42       1.0  0.029089999999999977  0.45459  0.12018  1.0000
  C   C43       1.0  0.64016  0.45476  0.38292  1.0000
  C   C44       1.0  0.58864  0.41964  0.34508  1.0000
  C   C45       1.0  0.51148  0.43588  0.33616  1.0000
  C   C46       1.0  0.5128  0.4808  0.369  1.0000
  C   C47       1.0  0.44544  0.50834  0.37408  1.0000
  C   C48       1.0  0.44848  0.55018  0.40936  1.0000
  C   C49       1.0  0.37796999999999986  0.57717  0.41754  1.0000
  C   C50       1.0  0.4135299999999999  0.61513  0.45526  1.0000
  C   C51       1.0  0.50292  0.6106200000000002  0.46864  1.0000
  C   C52       1.0  0.36116  0.49346  0.34132  1.0000
  C   C53       1.0  0.3005299999999999  0.45143000000000005  0.32826  1.0000
  C   C54       1.0  0.22090999999999994  0.44021000000000005  0.29822  1.0000
  C   C55       1.0  0.26393999999999995  0.51044  0.29248  1.0000
  C   C56       1.0  0.34417999999999993  0.5238800000000002  0.32256  1.0000
  C   C57       1.0  0.8188199999999998  0.52652  0.46944  1.0000
  C   C58       1.0  0.8982299999999998  0.51023  0.45786  1.0000
  C   C59       1.0  0.8985599999999999  0.51156  0.42132  1.0000
  C   C60       1.0  0.8195799999999998  0.53048  0.41216  1.0000
  C   C61       1.0  0.79279  0.53879  0.37818  1.0000
  C   C62       1.0  0.71944  0.56084  0.37208  1.0000
  C   C63       1.0  0.6949099999999999  0.57541  0.34022  1.0000
  C   C64       1.0  0.62113  0.59893  0.34846  1.0000
  C   C65       1.0  0.60403  0.59833  0.38406  1.0000
  C   C66       1.0  0.84845  0.52425  0.34650000000000003  1.0000
  C   C67       1.0  0.8384099999999998  0.47720999999999997  0.31962  1.0000
  C   C68       1.0  0.89049  0.46488999999999997  0.29078  1.0000
  C   C69       1.0  0.96231  0.54061  0.31282  1.0000
  C   C70       1.0  0.91246  0.55716  0.34292  1.0000
  C   C71       1.0  0.7290799999999997  0.65698  0.47936  1.0000
  C   C72       1.0  0.7530199999999999  0.6985200000000003  0.51524  1.0000
  C   C73       1.0  0.7409899999999998  0.68499  0.54518  1.0000
  C   C74       1.0  0.70947  0.63517  0.52714  1.0000
  C   C75       1.0  0.68591  0.60731  0.54582  1.0000
  C   C76       1.0  0.64967  0.5582700000000003  0.52574  1.0000
  C   C77       1.0  0.63085  0.52565  0.5429  1.0000
  C   C78       1.0  0.6018899999999999  0.48119  0.51238  1.0000
  C   C79       1.0  0.6028499999999999  0.48685  0.4763  1.0000
  C   C80       1.0  0.6955999999999998  0.6299  0.5906  1.0000
  C   C81       1.0  0.78188  0.64458  0.61676  1.0000
  C   C82       1.0  0.7886199999999998  0.66382  0.65764  1.0000
  C   C83       1.0  0.63092  0.65642  0.64904  1.0000
  C   C84       1.0  0.6210799999999997  0.63628  0.60776  1.0000
  C   C85       1.0  0.79555  0.81445  0.8057  1.0000
  C   C86       1.0  0.85936  0.85256  0.83532  1.0000
  C   C87       1.0  0.95171  0.85191  0.83742  1.0000
  C   C88       1.0  0.97692  0.81262  0.80884  1.0000
  C   C89       1.0  0.90804  0.77684  0.78068  1.0000
  C   C90       1.0  0.02601  0.88981  0.86922  1.0000
  C   C91       1.0  0.06422000000000003  0.88222  0.90324  1.0000
  C   C92       1.0  0.035740000000000015  0.84314  0.91128  1.0000
  C   C93       1.0  0.09056000000000002  0.85026  0.94672  1.0000
  C   C94       1.0  0.15470000000000003  0.8929  0.9596  1.0000
  C   C95       1.0  0.05270000000000001  0.9313  0.864  1.0000
  C   C96       1.0  0.00939000000000001  0.94339  0.83298  1.0000
  C   C97       1.0  0.05267000000000001  0.9876700000000002  0.84114  1.0000
  C   C98       1.0  0.12308999999999995  0.0018900000000000084  0.87638  1.0000
  C   C99       1.0  0.38699  0.94279  0.96858  1.0000
  C   C100      1.0  0.44816999999999996  0.9513700000000003  0.005940000000000001  1.0000
  C   C101      1.0  0.4104899999999999  0.97999  0.03578  1.0000
  C   C102      1.0  0.32947999999999994  0.9908800000000002  0.01756  1.0000
  C   C103      1.0  0.36521  0.07891  0.10382  1.0000
  C   C104      1.0  0.3820999999999997  0.0988  0.1456  1.0000
  C   C105      1.0  0.28779999999999994  0.1987  0.2984  1.0000
  C   C106      1.0  0.23275  0.21545000000000003  0.3265  1.0000
  C   C107      1.0  0.15500999999999995  0.18650999999999998  0.32442  1.0000
  C   C108      1.0  0.13052  0.14182  0.29264  1.0000
  C   C109      1.0  0.18895999999999996  0.12696  0.26552  1.0000
  C   C110      1.0  0.90063  0.25273  0.36306  1.0000
  C   C111      1.0  0.91945  0.25645  0.3277  1.0000
  C   C112      1.0  0.9943999999999997  0.2358000000000001  0.3198  1.0000
  C   C113      1.0  0.02435  0.22055  0.3505  1.0000
  C   C114      1.0  0.10007  0.20117  0.35674  1.0000
  C   C115      1.0  0.13211  0.19141  0.38902  1.0000
  C   C116      1.0  0.21220999999999995  0.17311000000000004  0.39682  1.0000
  C   C117      1.0  0.21596  0.16915999999999998  0.43212  1.0000
  C   C118      1.0  0.13487999999999997  0.18348  0.44576  1.0000
  C   C119      1.0  0.028189999999999986  0.31419  0.45558  1.0000
  C   C120      1.0  0.053230000000000006  0.3561300000000001  0.4922599999999999  1.0000
  C   C121      1.0  0.050649999999999994  0.34205  0.5225  1.0000
  C   C122      1.0  0.02367000000000001  0.29107  0.50474  1.0000
  C   C123      1.0  0.12542999999999996  0.30043  0.59046  1.0000
  C   C124      1.0  0.14457999999999993  0.32068  0.63176  1.0000
  C   C125      1.0  0.41434999999999983  0.66535  0.8987  1.0000
  C   C126      1.0  0.35089  0.65439  0.86258  1.0000
  C   C127      1.0  0.31312  0.6071200000000001  0.84744  1.0000
  C   C128      1.0  0.35544  0.59054  0.87528  1.0000
  C   C129      1.0  0.33335  0.54605  0.8753  1.0000
  C   C130      1.0  0.3631799999999999  0.53338  0.90616  1.0000
  C   C131      1.0  0.33716  0.49016  0.91032  1.0000
  C   C132      1.0  0.38285  0.49425  0.9463  1.0000
  C   C133      1.0  0.44146000000000024  0.53936  0.96492  1.0000
  C   C134      1.0  0.26999  0.50829  0.83758  1.0000
  C   C135      1.0  0.30573  0.48953  0.80346  1.0000
  C   C136      1.0  0.25007  0.45307  0.76954  1.0000
  C   C137      1.0  0.1324999999999999  0.453  0.7996  1.0000
  C   C138      1.0  0.1834599999999999  0.48926  0.83492  1.0000
  C   C139      1.0  0.83104  0.34994  0.88488  1.0000
  C   C140      1.0  0.76458  0.32708  0.84696  1.0000
  C   C141      1.0  0.73482  0.28222  0.84144  1.0000
  C   C142      1.0  0.77984  0.2773400000000001  0.87628  1.0000
  C   C143      1.0  0.7631599999999997  0.23926  0.88552  1.0000
  C   C144      1.0  0.79958  0.23868000000000006  0.92216  1.0000
  C   C145      1.0  0.7749899999999997  0.20328999999999997  0.93598  1.0000
  C   C146      1.0  0.82791  0.21991000000000008  0.9754200000000001  1.0000
  C   C147      1.0  0.88057  0.26297  0.98414  1.0000
  C   C148      1.0  0.70284  0.19493999999999995  0.85308  1.0000
  C   C149      1.0  0.73577  0.16726999999999995  0.82034  1.0000
  C   C150      1.0  0.68063  0.12663  0.79006  1.0000
  C   C151      1.0  0.56098  0.13718  0.82236  1.0000
  C   C152      1.0  0.61339  0.17869000000000004  0.85438  1.0000
  C   C153      1.0  0.6749799999999998  0.59258  0.98116  1.0000
  C   C154      1.0  0.7357099999999998  0.59891  0.01682  1.0000
  C   C155      1.0  0.7017099999999997  0.62881  0.04782  1.0000
  C   C156      1.0  0.61933  0.63923  0.03026  1.0000
  C   C157      1.0  0.55983  0.66673  0.05106  1.0000
  C   C158      1.0  0.47721000000000013  0.6740100000000002  0.03262  1.0000
  C   C159      1.0  0.40928  0.6979800000000003  0.05096  1.0000
  C   C160      1.0  0.34189  0.69649  0.02158  1.0000
  C   C161      1.0  0.36773999999999984  0.67164  0.98468  1.0000
  C   C162      1.0  0.5850699999999999  0.68917  0.09554  1.0000
  C   C163      1.0  0.60193  0.7389300000000002  0.11546  1.0000
  C   C164      1.0  0.6306299999999998  0.75973  0.15706  1.0000
  C   C165      1.0  0.6173199999999998  0.6897200000000001  0.16104  1.0000
  C   C166      1.0  0.59109  0.66559  0.12018  1.0000
  C   C167      1.0  0.24276  0.92816  0.38292  1.0000
  C   C168      1.0  0.25644  0.92544  0.34508  1.0000
  C   C169      1.0  0.32467999999999997  0.9002800000000002  0.33616  1.0000
  C   C170      1.0  0.3562  0.8882  0.369  1.0000
  C   C171      1.0  0.4286400000000001  0.86574  0.37408  1.0000
  C   C172      1.0  0.4608799999999999  0.85918  0.40936  1.0000
  C   C173      1.0  0.5395699999999998  0.8403699999999998  0.41754  1.0000
  C   C174      1.0  0.54173  0.84013  0.45526  1.0000
  C   C175      1.0  0.46572  0.85802  0.46864  1.0000
  C   C176      1.0  0.48015999999999975  0.84786  0.34132  1.0000
  C   C177      1.0  0.52773  0.87683  0.32826  1.0000
  C   C178      1.0  0.57731  0.85801  0.29822  1.0000
  C   C179      1.0  0.5285399999999999  0.78204  0.29248  1.0000
  C   C180      1.0  0.4783799999999998  0.79868  0.32256  1.0000
  C   C181      1.0  0.15062  0.94292  0.46944  1.0000
  C   C182      1.0  0.05962999999999994  0.9476300000000001  0.45786  1.0000
  C   C183      1.0  0.022759999999999985  0.90976  0.42132  1.0000
  C   C184      1.0  0.09257999999999993  0.88168  0.41216  1.0000
  C   C185      1.0  0.08539  0.83939  0.37818  1.0000
  C   C186      1.0  0.15264  0.81124  0.37208  1.0000
  C   C187      1.0  0.14531  0.76481  0.34022  1.0000
  C   C188      1.0  0.22732999999999998  0.7495300000000001  0.34846  1.0000
  C   C189      1.0  0.2800299999999999  0.78573  0.38406  1.0000
  C   C190      1.0  0.99805  0.8222500000000003  0.34650000000000003  1.0000
  C   C191      1.0  0.9812099999999998  0.84241  0.31962  1.0000
  C   C192      1.0  0.9002899999999998  0.82589  0.29078  1.0000
  C   C193      1.0  0.8505099999999998  0.77221  0.31282  1.0000
  C   C194      1.0  0.9304599999999997  0.78576  0.34292  1.0000
  C   C195      1.0  0.2502799999999999  0.82238  0.47936  1.0000
  C   C196      1.0  0.26222  0.81672  0.51524  1.0000
  C   C197      1.0  0.30419  0.86019  0.54518  1.0000
  C   C198      1.0  0.3176699999999999  0.89197  0.52714  1.0000
  C   C199      1.0  0.35991  0.9385100000000001  0.54582  1.0000
  C   C200      1.0  0.37606999999999985  0.96747  0.52574  1.0000
  C   C201      1.0  0.4120499999999999  0.01725  0.5429  1.0000
  C   C202      1.0  0.4104899999999999  0.03118999999999998  0.51238  1.0000
  C   C203      1.0  0.3734499999999999  0.98945  0.4763  1.0000
  C   C204      1.0  0.395  0.9607  0.5906  1.0000
  C   C205      1.0  0.33488000000000007  0.9721800000000002  0.61676  1.0000
  C   C206      1.0  0.36902000000000007  0.9938200000000001  0.65764  1.0000
  C   C207      1.0  0.51812  0.99262  0.64904  1.0000
  C   C208      1.0  0.48668  0.97148  0.60776  1.0000
  C   C209      1.0  0.5101499999999999  0.9912499999999999  0.8057  1.0000
  C   C210      1.0  0.4759599999999999  0.98276  0.83532  1.0000
  C   C211      1.0  0.38571  0.98551  0.83742  1.0000
  C   C212      1.0  0.33192  0.99622  0.80884  1.0000
  C   C213      1.0  0.37264  0.0038399999999999836  0.78068  1.0000
  C   C214      1.0  0.34321  0.97941  0.86922  1.0000
  C   C215      1.0  0.33902  0.021019999999999994  0.90324  1.0000
  C   C216      1.0  0.37554  0.06814000000000002  0.91128  1.0000
  C   C217      1.0  0.35616  0.09646000000000002  0.94672  1.0000
  C   C218      1.0  0.3049  0.06670000000000002  0.9596  1.0000
  C   C219      1.0  0.3112999999999999  0.9327000000000001  0.864  1.0000
  C   C220      1.0  0.32359  0.88959  0.83298  1.0000
  C   C221      1.0  0.28847  0.85347  0.84114  1.0000
  C   C222      1.0  0.2532899999999999  0.87449  0.87638  1.0000
  C   C223      1.0  0.08158999999999998  0.025790000000000004  0.96858  1.0000
  C   C224      1.0  0.05776999999999999  0.05457  0.005940000000000001  1.0000
  C   C225      1.0  0.12529  0.05579  0.03578  1.0000
  C   C226      1.0  0.18808  0.026680000000000002  0.01756  1.0000
  C   C227      1.0  0.23860999999999993  0.02491  0.10382  1.0000
  C   C228      1.0  0.2635  0.0468  0.1456  1.0000
  C   C229      1.0  0.5106  0.0997  0.2984  1.0000
  C   C230      1.0  0.5937499999999998  0.11105000000000002  0.3265  1.0000
  C   C231      1.0  0.66941  0.13790999999999998  0.32442  1.0000
  C   C232      1.0  0.66212  0.15082  0.29264  1.0000
  C   C233      1.0  0.5765599999999999  0.13856  0.26552  1.0000
  C   C234      1.0  0.9624299999999998  0.11033  0.36306  1.0000
  C   C235      1.0  0.9082499999999998  0.07125000000000002  0.3277  1.0000
  C   C236      1.0  0.8254  0.08400000000000003  0.3198  1.0000
  C   C237      1.0  0.82615  0.12995  0.3505  1.0000
  C   C238      1.0  0.75667  0.15557  0.35674  1.0000
  C   C239      1.0  0.75691  0.19761  0.38902  1.0000
  C   C240      1.0  0.6846099999999998  0.22371000000000002  0.39682  1.0000
  C   C241      1.0  0.71616  0.26296  0.43212  1.0000
  C   C242      1.0  0.8108799999999998  0.26228  0.44576  1.0000
  C   C243      1.0  0.9273899999999998  0.14139  0.45558  1.0000
  C   C244      1.0  0.93903  0.13612999999999997  0.4922599999999999  1.0000
  C   C245      1.0  0.9718500000000001  0.18045  0.5225  1.0000
  C   C246      1.0  0.98107  0.21367  0.50474  1.0000
  C   C247      1.0  0.9650299999999998  0.29003  0.59046  1.0000
  C   C248      1.0  0.98718  0.31108  0.63176  1.0000
  C   C249      1.0  0.2682699999999999  0.01827  0.03654  1.0000
  C   C250      1.0  0.2914199999999999  0.041420000000000005  0.08284000000000001  1.0000
  C   C251      1.0  0.011770000000000018  0.26177  0.52354  1.0000
  C   C252      1.0  0.03427999999999998  0.28428  0.56856  1.0000
  N   N1        1.0  0.9875899999999999  0.27869  0.90658  1.0000
  N   N2        1.0  0.010129999999999972  0.37833  0.94126  1.0000
  N   N3        1.0  0.10102999999999997  0.33113  0.76646  1.0000
  N   N4        1.0  0.5622199999999997  0.58152  0.90184  1.0000
  N   N5        1.0  0.5867499999999998  0.67765  0.9529  1.0000
  N   N6        1.0  0.69697  0.67707  0.78954  1.0000
  N   N7        1.0  0.8840399999999998  0.37324  0.98848  1.0000
  N   N8        1.0  0.042639999999999983  0.33264  0.99048  1.0000
  N   N9        1.0  0.039290000000000026  0.44259  0.18018  1.0000
  N   N10       1.0  0.5964599999999998  0.49135999999999996  0.39732  1.0000
  N   N11       1.0  0.52596  0.57176  0.441  1.0000
  N   N12       1.0  0.20132999999999995  0.47033  0.28046  1.0000
  N   N13       1.0  0.77138  0.53828  0.44236  1.0000
  N   N14       1.0  0.66093  0.5762300000000001  0.39906  1.0000
  N   N15       1.0  0.9530799999999998  0.49467999999999995  0.28696  1.0000
  N   N16       1.0  0.7025099999999997  0.61871  0.48484000000000005  1.0000
  N   N17       1.0  0.63173  0.5322300000000002  0.48388  1.0000
  N   N18       1.0  0.7128599999999998  0.66936  0.67462  1.0000
  N   N19       1.0  0.81877  0.77607  0.77854  1.0000
  N   N20       1.0  0.13841000000000006  0.91331  0.9336200000000002  1.0000
  N   N21       1.0  0.12364999999999995  0.96855  0.8901  1.0000
  N   N22       1.0  0.3161299999999999  0.96683  0.97586  1.0000
  N   N23       1.0  0.26767  0.15497  0.26954  1.0000
  N   N24       1.0  0.96226  0.23096  0.3766  1.0000
  N   N25       1.0  0.08516  0.19686  0.42052  1.0000
  N   N26       1.0  0.00993999999999999  0.27534  0.4625  1.0000
  N   N27       1.0  0.41899  0.62789  0.90658  1.0000
  N   N28       1.0  0.4311299999999999  0.56293  0.94126  1.0000
  N   N29       1.0  0.1654299999999999  0.43533  0.76646  1.0000
  N   N30       1.0  0.83962  0.32032  0.90184  1.0000
  N   N31       1.0  0.86615  0.27524999999999994  0.9529  1.0000
  N   N32       1.0  0.59257  0.11246999999999997  0.78954  1.0000
  N   N33       1.0  0.60444  0.61524  0.98848  1.0000
  N   N34       1.0  0.44784  0.65784  0.99048  1.0000
  N   N35       1.0  0.6408899999999998  0.73759  0.18018  1.0000
  N   N36       1.0  0.30086  0.90596  0.39732  1.0000
  N   N37       1.0  0.41504  0.8692400000000001  0.441  1.0000
  N   N38       1.0  0.57913  0.8101300000000005  0.28046  1.0000
  N   N39       1.0  0.17098  0.9040800000000001  0.44236  1.0000
  N   N40       1.0  0.23812999999999995  0.82283  0.39906  1.0000
  N   N41       1.0  0.83388  0.79228  0.28696  1.0000
  N   N42       1.0  0.2823299999999999  0.86613  0.48484000000000005  1.0000
  N   N43       1.0  0.35214999999999996  0.95165  0.48388  1.0000
  N   N44       1.0  0.4617599999999999  0.005259999999999996  0.67462  1.0000
  N   N45       1.0  0.45977000000000007  0.0024700000000000295  0.77854  1.0000
  N   N46       1.0  0.2952100000000001  0.020310000000000075  0.9336200000000002  1.0000
  N   N47       1.0  0.26645  0.92155  0.8901  1.0000
  N   N48       1.0  0.15973000000000004  0.009030000000000047  0.97586  1.0000
  N   N49       1.0  0.5018699999999998  0.11456999999999998  0.26954  1.0000
  N   N50       1.0  0.91434  0.14564  0.3766  1.0000
  N   N51       1.0  0.8353599999999999  0.22366  0.42052  1.0000
  N   N52       1.0  0.9525599999999997  0.18716  0.4625  1.0000
  N   N53       1.0  0.33344  0.08344  0.16688  1.0000
  N   N54       1.0  0.07632999999999998  0.32633  0.65266  1.0000
  Fe  Fe7       1.0  0.06164999999999997  0.67275  0.05188  1.0000
  Fe  Fe8       1.0  0.35168  0.44484  0.5575  1.0000
  Fe  Fe9       1.0  0.4902299999999998  0.37913  0.05188  1.0000
  Fe  Fe10      1.0  0.7058199999999999  0.11266000000000001  0.5575  1.0000
  Fe  Fe11      1.0  0.78288  0.03288  0.06576  1.0000
  Fe  Fe12      1.0  0.03955999999999999  0.78956  0.57912  1.0000
  Ag  Ag7       1.0  0.94483  0.53082  0.75254  1.0000
  Ag  Ag8       1.0  0.27526  0.29806  0.25834  1.0000
  Ag  Ag9       1.0  0.30771  0.22172  0.75254  1.0000
  Ag  Ag10      1.0  0.4830799999999998  0.96028  0.25834  1.0000
  Ag  Ag11      1.0  0.63277  0.8827700000000003  0.76554  1.0000
  Ag  Ag12      1.0  0.8906199999999999  0.64062  0.28124  1.0000
  H   H181      1.0  0.03429999999999998  0.7806  0.0844  1.0000
  H   H182      1.0  0.9859999999999998  0.8249  0.1492  1.0000
  H   H183      1.0  0.9445999999999999  0.7659  0.1768  1.0000
  H   H184      1.0  0.9036  0.5723  0.1094  1.0000
  H   H185      1.0  0.9199  0.5143  0.043  1.0000
  H   H186      1.0  0.9919  0.5608  0.0094  1.0000
  H   H187      1.0  0.06360000000000005  0.698  0.1966  1.0000
  H   H188      1.0  0.029499999999999957  0.6933  0.2536  1.0000
  H   H189      1.0  0.7723999999999995  0.641  0.201  1.0000
  H   H190      1.0  0.7986999999999999  0.6432  0.1422  1.0000
  H   H191      1.0  0.4679  0.4857000000000001  0.104  1.0000
  H   H192      1.0  0.41609999999999997  0.5119  0.1708  1.0000
  H   H193      1.0  0.3732  0.4397  0.1814  1.0000
  H   H194      1.0  0.31019999999999986  0.253  0.0786  1.0000
  H   H195      1.0  0.3346  0.2115  0.0072  1.0000
  H   H196      1.0  0.4131  0.2727  0.9908  1.0000
  H   H197      1.0  0.4786999999999999  0.35770000000000013  0.1814  1.0000
  H   H198      1.0  0.43819999999999987  0.3393  0.2316  1.0000
  H   H199      1.0  0.1765  0.3022  0.176  1.0000
  H   H200      1.0  0.21119999999999994  0.3188  0.123  1.0000
  H   H201      1.0  0.22859999999999994  0.6194  0.0452  1.0000
  H   H202      1.0  0.27039999999999986  0.5661999999999999  0.9809999999999999  1.0000
  H   H203      1.0  0.1523  0.5647  0.924  1.0000
  H   H204      1.0  0.832  0.6334  0.9208  1.0000
  H   H205      1.0  0.7622999999999999  0.6847000000000001  0.9749999999999999  1.0000
  H   H206      1.0  0.8731999999999999  0.7067  0.0412  1.0000
  H   H207      1.0  0.9931  0.657  0.8992  1.0000
  H   H208      1.0  0.9740999999999997  0.6235  0.83  1.0000
  H   H209      1.0  0.9422999999999998  0.4952  0.823  1.0000
  H   H210      1.0  0.9684999999999998  0.5236  0.8918  1.0000
  H   H211      1.0  0.3016  0.5473  0.6036  1.0000
  H   H212      1.0  0.3949  0.6097  0.6708  1.0000
  H   H213      1.0  0.5357  0.5797  0.6878  1.0000
  H   H214      1.0  0.6816  0.4290999999999999  0.5992  1.0000
  H   H215      1.0  0.6179999999999998  0.3605  0.5308  1.0000
  H   H216      1.0  0.4573999999999998  0.3681  0.5062  1.0000
  H   H217      1.0  0.6871999999999998  0.5702  0.6602  1.0000
  H   H218      1.0  0.8206  0.5889  0.7102  1.0000
  H   H219      1.0  0.7474  0.4691  0.7204  1.0000
  H   H220      1.0  0.6139  0.4473  0.6698  1.0000
  H   H221      1.0  0.19909999999999997  0.4712  0.5064  1.0000
  H   H222      1.0  0.05689999999999995  0.4999  0.5276  1.0000
  H   H223      1.0  0.056999999999999995  0.4982  0.5948  1.0000
  H   H224      1.0  0.27670000000000006  0.43010000000000004  0.6822  1.0000
  H   H225      1.0  0.4112  0.3873  0.6672  1.0000
  H   H226      1.0  0.4433000000000001  0.38760000000000017  0.6034  1.0000
  H   H227      1.0  0.20440000000000003  0.5465  0.679  1.0000
  H   H228      1.0  0.11940000000000006  0.5677000000000001  0.7278  1.0000
  H   H229      1.0  0.9941  0.4367  0.6896  1.0000
  H   H230      1.0  0.0781  0.4099  0.6394  1.0000
  H   H231      1.0  0.2685  0.3438  0.5464  1.0000
  H   H232      1.0  0.2265  0.2702000000000001  0.4818  1.0000
  H   H233      1.0  0.24819999999999998  0.2946  0.4268  1.0000
  H   H234      1.0  0.36249999999999993  0.4664  0.429  1.0000
  H   H235      1.0  0.4153  0.5475  0.4852  1.0000
  H   H236      1.0  0.4146  0.5384  0.55  1.0000
  H   H237      1.0  0.16369999999999996  0.3588  0.3938  1.0000
  H   H238      1.0  0.1516  0.3262  0.325  1.0000
  H   H239      1.0  0.4229999999999999  0.3387  0.3402  1.0000
  H   H240      1.0  0.43919999999999987  0.3733  0.4092  1.0000
  H   H241      1.0  0.2683  0.1843  0.1954  1.0000
  H   H242      1.0  0.1608  0.12109999999999999  0.146  1.0000
  H   H243      1.0  0.9597999999999998  0.18940000000000007  0.1912  1.0000
  H   H244      1.0  0.0738  0.2495  0.239  1.0000
  H   H245      1.0  0.012699999999999998  0.1831  0.105  1.0000
  H   H246      1.0  0.9131999999999998  0.1697  0.0396  1.0000
  H   H247      1.0  0.7973  0.0945  0.0166  1.0000
  H   H248      1.0  0.0404  0.076  0.1892  1.0000
  H   H249      1.0  0.9613999999999999  0.9943  0.1738  1.0000
  H   H250      1.0  0.8353999999999998  0.9685  0.11140000000000001  1.0000
  H   H251      1.0  0.6048  0.07690000000000001  0.0576  1.0000
  H   H252      1.0  0.49639999999999984  0.060699999999999976  0.9909999999999999  1.0000
  H   H253      1.0  0.5658999999999997  0.009000000000000093  0.9360000000000003  1.0000
  H   H254      1.0  0.5972  0.9095  0.91  1.0000
  H   H255      1.0  0.5684  0.8748  0.8398  1.0000
  H   H256      1.0  0.6587  0.7807  0.7  1.0000
  H   H257      1.0  0.7506  0.7529  0.6528  1.0000
  H   H258      1.0  0.9251999999999998  0.8786000000000002  0.7108  1.0000
  H   H259      1.0  0.8276999999999999  0.9038  0.7564  1.0000
  H   H260      1.0  0.1486  0.7358  0.6246  1.0000
  H   H261      1.0  0.11399999999999999  0.7295000000000003  0.6874  1.0000
  H   H262      1.0  0.9778  0.7678  0.7024  1.0000
  H   H263      1.0  0.744  0.8350000000000004  0.6198  1.0000
  H   H264      1.0  0.7365  0.8411  0.5546  1.0000
  H   H265      1.0  0.8813  0.8167  0.5304  1.0000
  H   H266      1.0  0.9754  0.6865  0.5706  1.0000
  H   H267      1.0  0.9312999999999998  0.6122  0.5048  1.0000
  H   H268      1.0  0.9356  0.6375  0.4494  1.0000
  H   H269      1.0  0.8252999999999997  0.7026  0.4234  1.0000
  H   H270      1.0  0.7928  0.669  0.3538  1.0000
  H   H271      1.0  0.5501  0.3038  0.0844  1.0000
  H   H272      1.0  0.6632  0.3243000000000001  0.1492  1.0000
  H   H273      1.0  0.7321999999999997  0.4109  0.1768  1.0000
  H   H274      1.0  0.7058  0.5371  0.1094  1.0000
  H   H275      1.0  0.6231  0.5287  0.043  1.0000
  H   H276      1.0  0.5175  0.4486  0.0094  1.0000
  H   H277      1.0  0.633  0.4986  0.1966  1.0000
  H   H278      1.0  0.7241  0.5603  0.2536  1.0000
  H   H279      1.0  0.9286  0.56  0.201  1.0000
  H   H280      1.0  0.8435  0.49899999999999994  0.1422  1.0000
  H   H281      1.0  0.13609999999999994  0.6183  0.104  1.0000
  H   H282      1.0  0.2547  0.6589  0.1708  1.0000
  H   H283      1.0  0.30819999999999986  0.7417  0.1814  1.0000
  H   H284      1.0  0.2684  0.8256  0.0786  1.0000
  H   H285      1.0  0.17259999999999995  0.7957  0.0072  1.0000
  H   H286      1.0  0.07769999999999996  0.7181000000000002  0.9908  1.0000
  H   H287      1.0  0.20269999999999994  0.8237  0.1814  1.0000
  H   H288      1.0  0.2933999999999999  0.8923  0.2316  1.0000
  H   H289      1.0  0.4994999999999999  0.8738  0.176  1.0000
  H   H290      1.0  0.4118  0.8042  0.123  1.0000
  H   H291      1.0  0.3166  0.4258  0.0452  1.0000
  H   H292      1.0  0.21059999999999995  0.4147999999999999  0.9809999999999999  1.0000
  H   H293      1.0  0.2716999999999998  0.3593  0.924  1.0000
  H   H294      1.0  0.5888  0.2874  0.9208  1.0000
  H   H295      1.0  0.7126999999999998  0.29029999999999995  0.9749999999999999  1.0000
  H   H296      1.0  0.668  0.3345  0.0412  1.0000
  H   H297      1.0  0.4060999999999999  0.24219999999999997  0.8992  1.0000
  H   H298      1.0  0.3559  0.2065  0.83  1.0000
  H   H299      1.0  0.38069999999999987  0.3278  0.823  1.0000
  H   H300      1.0  0.4232999999999999  0.3682  0.8918  1.0000
  H   H301      1.0  0.8019999999999996  0.05630000000000002  0.6036  1.0000
  H   H302      1.0  0.7759  0.06109999999999999  0.6708  1.0000
  H   H303      1.0  0.6521  0.10809999999999999  0.6878  1.0000
  H   H304      1.0  0.4175999999999999  0.17009999999999995  0.5992  1.0000
  H   H305      1.0  0.4128  0.17029999999999998  0.5308  1.0000
  H   H306      1.0  0.5487999999999997  0.1381  0.5062  1.0000
  H   H307      1.0  0.4729999999999999  0.09000000000000001  0.6602  1.0000
  H   H308      1.0  0.3896  0.12130000000000007  0.7102  1.0000
  H   H309      1.0  0.473  0.2513  0.7204  1.0000
  H   H310      1.0  0.5559  0.22249999999999995  0.6698  1.0000
  H   H311      1.0  0.8073  0.03520000000000001  0.5064  1.0000
  H   H312      1.0  0.9706999999999998  0.027700000000000002  0.5276  1.0000
  H   H313      1.0  0.03780000000000001  0.0966  0.5948  1.0000
  H   H314      1.0  0.9054999999999999  0.2521  0.6822  1.0000
  H   H315      1.0  0.756  0.27990000000000004  0.6672  1.0000
  H   H316      1.0  0.6601  0.21580000000000008  0.6034  1.0000
  H   H317      1.0  0.9746  0.1325  0.679  1.0000
  H   H318      1.0  0.10840000000000005  0.16010000000000005  0.7278  1.0000
  H   H319      1.0  0.19550000000000006  0.2529  0.6896  1.0000
  H   H320      1.0  0.0613  0.22949999999999998  0.6394  1.0000
  H   H321      1.0  0.7778999999999999  0.20260000000000006  0.5464  1.0000
  H   H322      1.0  0.7552999999999997  0.2116  0.4818  1.0000
  H   H323      1.0  0.6786  0.1322  0.4268  1.0000
  H   H324      1.0  0.5664999999999998  0.9626000000000001  0.429  1.0000
  H   H325      1.0  0.5699  0.9377  0.4852  1.0000
  H   H326      1.0  0.6354  0.011599999999999965  0.55  1.0000
  H   H327      1.0  0.7301  0.03500000000000001  0.3938  1.0000
  H   H328      1.0  0.6734  0.9987999999999999  0.325  1.0000
  H   H329      1.0  0.41719999999999996  0.001500000000000025  0.3402  1.0000
  H   H330      1.0  0.47  0.035899999999999994  0.4092  1.0000
  H   H331      1.0  0.4271  0.011099999999999999  0.1954  1.0000
  H   H332      1.0  0.4852  0.024899999999999985  0.146  1.0000
  H   H333      1.0  0.7313999999999998  0.0018000000000000013  0.1912  1.0000
  H   H334      1.0  0.6652  0.9895  0.239  1.0000
  H   H335      1.0  0.5922999999999999  0.9219  0.105  1.0000
  H   H336      1.0  0.6264  0.8699  0.0396  1.0000
  H   H337      1.0  0.7193  0.9221000000000003  0.0166  1.0000
  H   H338      1.0  0.6487999999999999  0.1132  0.1892  1.0000
  H   H339      1.0  0.7124000000000001  0.1795  0.1738  1.0000
  H   H340      1.0  0.776  0.14290000000000003  0.11140000000000001  1.0000
  H   H341      1.0  0.9527999999999998  0.9807  0.0576  1.0000
  H   H342      1.0  0.9945999999999997  0.9303  0.9909999999999999  1.0000
  H   H343      1.0  0.8700999999999998  0.927  0.9360000000000003  1.0000
  H   H344      1.0  0.8127999999999997  0.0005000000000000083  0.91  1.0000
  H   H345      1.0  0.7713999999999998  0.965  0.8398  1.0000
  H   H346      1.0  0.5413  0.9193  0.7  1.0000
  H   H347      1.0  0.4021999999999999  0.8999  0.6528  1.0000
  H   H348      1.0  0.2856  0.8322  0.7108  1.0000
  H   H349      1.0  0.42869999999999997  0.8526000000000002  0.7564  1.0000
  H   H350      1.0  0.976  0.8888  0.6246  1.0000
  H   H351      1.0  0.0733999999999999  0.9579  0.6874  1.0000
  H   H352      1.0  0.2246  0.9346  0.7024  1.0000
  H   H353      1.0  0.3758  0.7848  0.6198  1.0000
  H   H354      1.0  0.3181  0.7135  0.5546  1.0000
  H   H355      1.0  0.14910000000000004  0.7137000000000001  0.5304  1.0000
  H   H356      1.0  0.09519999999999998  0.8840999999999999  0.5706  1.0000
  H   H357      1.0  0.07350000000000001  0.8926  0.5048  1.0000
  H   H358      1.0  0.01380000000000002  0.8119  0.4494  1.0000
  H   H359      1.0  0.09809999999999994  0.7208  0.4234  1.0000
  H   H360      1.0  0.06100000000000001  0.6848  0.3538  1.0000
  C   C253      1.0  0.015650000000000018  0.76665  0.1013  1.0000
  C   C254      1.0  0.98831  0.79181  0.13742  1.0000
  C   C255      1.0  0.9656799999999995  0.75968  0.15256  1.0000
  C   C256      1.0  0.98016  0.71526  0.12472  1.0000
  C   C257      1.0  0.9580499999999995  0.67075  0.12470000000000002  1.0000
  C   C258      1.0  0.95702  0.62722  0.09384  1.0000
  C   C259      1.0  0.92684  0.57984  0.08968  1.0000
  C   C260      1.0  0.93655  0.54795  0.0537  1.0000
  C   C261      1.0  0.9765399999999997  0.57444  0.03508  1.0000
  C   C262      1.0  0.93241  0.67071  0.16242  1.0000
  C   C263      1.0  0.002270000000000001  0.68607  0.19654  1.0000
  C   C264      1.0  0.9805299999999999  0.6835300000000002  0.23046  1.0000
  C   C265      1.0  0.8328999999999995  0.6534  0.2004  1.0000
  C   C266      1.0  0.8485399999999998  0.65434  0.16508  1.0000
  C   C267      1.0  0.44616  0.46506  0.11512  1.0000
  C   C268      1.0  0.41761999999999994  0.48012  0.15304  1.0000
  C   C269      1.0  0.39338000000000006  0.44078  0.15856  1.0000
  C   C270      1.0  0.40355999999999975  0.40106  0.12372  1.0000
  C   C271      1.0  0.37764  0.35374  0.11448  1.0000
  C   C272      1.0  0.3774199999999999  0.31652  0.07784  1.0000
  C   C273      1.0  0.3390099999999998  0.26731  0.06402  1.0000
  C   C274      1.0  0.35248999999999997  0.24449  0.02458  1.0000
  C   C275      1.0  0.3964299999999999  0.27883  0.01586  1.0000
  C   C276      1.0  0.34976  0.34186  0.14692  1.0000
  C   C277      1.0  0.4154299999999999  0.34693  0.17966  1.0000
  C   C278      1.0  0.3905699999999999  0.33657  0.20994  1.0000
  C   C279      1.0  0.23861999999999994  0.31482  0.17764  1.0000
  C   C280      1.0  0.2590099999999999  0.32431  0.14562  1.0000
  C   C281      1.0  0.19381999999999994  0.61142  0.01884  1.0000
  C   C282      1.0  0.21888999999999992  0.58209  0.98318  1.0000
  C   C283      1.0  0.1538899999999999  0.5809900000000001  0.95218  1.0000
  C   C284      1.0  0.08906999999999984  0.6089699999999999  0.9697399999999999  1.0000
  C   C285      1.0  0.008769999999999998  0.61567  0.94894  1.0000
  C   C286      1.0  0.9445900000000002  0.64139  0.96738  1.0000
  C   C287      1.0  0.85832  0.64702  0.94904  1.0000
  C   C288      1.0  0.8203099999999997  0.6749100000000001  0.97842  1.0000
  C   C289      1.0  0.88306  0.68696  0.01532  1.0000
  C   C290      1.0  0.9895299999999998  0.59363  0.90446  1.0000
  C   C291      1.0  0.98647  0.62347  0.88454  1.0000
  C   C292      1.0  0.9735699999999999  0.60267  0.84294  1.0000
  C   C293      1.0  0.9562799999999998  0.52868  0.83896  1.0000
  C   C294      1.0  0.9709099999999998  0.54541  0.87982  1.0000
  C   C295      1.0  0.35984  0.54524  0.61708  1.0000
  C   C296      1.0  0.41136000000000006  0.5803600000000002  0.65492  1.0000
  C   C297      1.0  0.48852  0.56412  0.66384  1.0000
  C   C298      1.0  0.48719999999999997  0.5192  0.631  1.0000
  C   C299      1.0  0.55456  0.49166  0.62592  1.0000
  C   C300      1.0  0.55152  0.44982  0.59064  1.0000
  C   C301      1.0  0.6220299999999999  0.42283  0.58246  1.0000
  C   C302      1.0  0.5864699999999998  0.38487  0.54474  1.0000
  C   C303      1.0  0.4970799999999999  0.38938  0.53136  1.0000
  C   C304      1.0  0.6388399999999999  0.5065399999999998  0.65868  1.0000
  C   C305      1.0  0.6994699999999998  0.5485700000000002  0.67174  1.0000
  C   C306      1.0  0.77909  0.55979  0.70178  1.0000
  C   C307      1.0  0.7360600000000003  0.4895600000000001  0.7075200000000001  1.0000
  C   C308      1.0  0.65582  0.47611999999999993  0.67744  1.0000
  C   C309      1.0  0.18117999999999995  0.47348  0.53056  1.0000
  C   C310      1.0  0.10177  0.48977  0.54214  1.0000
  C   C311      1.0  0.10143999999999996  0.48844  0.57868  1.0000
  C   C312      1.0  0.18042  0.46952  0.58784  1.0000
  C   C313      1.0  0.20721  0.46121  0.62182  1.0000
  C   C314      1.0  0.28056  0.43916  0.62792  1.0000
  C   C315      1.0  0.30509  0.42459  0.65978  1.0000
  C   C316      1.0  0.37887000000000004  0.4010700000000001  0.65154  1.0000
  C   C317      1.0  0.3959699999999999  0.40167  0.61594  1.0000
  C   C318      1.0  0.15155  0.47574999999999995  0.6535  1.0000
  C   C319      1.0  0.16159  0.52279  0.68038  1.0000
  C   C320      1.0  0.10951000000000001  0.53511  0.70922  1.0000
  C   C321      1.0  0.03769000000000004  0.45939000000000013  0.68718  1.0000
  C   C322      1.0  0.08754  0.44284  0.65708  1.0000
  C   C323      1.0  0.2709199999999999  0.3430200000000001  0.52064  1.0000
  C   C324      1.0  0.24697999999999992  0.30148  0.48475999999999997  1.0000
  C   C325      1.0  0.2590099999999999  0.31501  0.45482  1.0000
  C   C326      1.0  0.29053  0.36483  0.47286  1.0000
  C   C327      1.0  0.31409  0.39269  0.45418  1.0000
  C   C328      1.0  0.35033  0.44173  0.47426  1.0000
  C   C329      1.0  0.3691499999999999  0.47435  0.4571  1.0000
  C   C330      1.0  0.39811  0.51881  0.48761999999999994  1.0000
  C   C331      1.0  0.3971499999999999  0.51315  0.5237  1.0000
  C   C332      1.0  0.3044  0.3701  0.4094  1.0000
  C   C333      1.0  0.21811999999999995  0.35542  0.38324  1.0000
  C   C334      1.0  0.21137999999999996  0.33618  0.34236  1.0000
  C   C335      1.0  0.36908  0.34358  0.35096  1.0000
  C   C336      1.0  0.37892  0.36372000000000004  0.39224  1.0000
  C   C337      1.0  0.20445  0.18555  0.1943  1.0000
  C   C338      1.0  0.14064000000000002  0.14744000000000002  0.16468000000000005  1.0000
  C   C339      1.0  0.04828999999999997  0.14809  0.16258  1.0000
  C   C340      1.0  0.023080000000000003  0.18738  0.19116  1.0000
  C   C341      1.0  0.09196000000000001  0.22316  0.21932  1.0000
  C   C342      1.0  0.97399  0.11019000000000001  0.13078  1.0000
  C   C343      1.0  0.9357799999999997  0.11778  0.09676  1.0000
  C   C344      1.0  0.9642599999999999  0.15686  0.08872  1.0000
  C   C345      1.0  0.9094399999999998  0.14974  0.05328  1.0000
  C   C346      1.0  0.8453  0.1071  0.0404  1.0000
  C   C347      1.0  0.9473  0.0687  0.136  1.0000
  C   C348      1.0  0.9906099999999998  0.05661  0.16702  1.0000
  C   C349      1.0  0.94733  0.012330000000000016  0.15886  1.0000
  C   C350      1.0  0.87691  0.99811  0.12362000000000001  1.0000
  C   C351      1.0  0.6130099999999998  0.05721  0.03142  1.0000
  C   C352      1.0  0.5518299999999998  0.048630000000000076  0.9940600000000002  1.0000
  C   C353      1.0  0.5895099999999998  0.02001000000000001  0.96422  1.0000
  C   C354      1.0  0.67052  0.009120000000000026  0.98244  1.0000
  C   C355      1.0  0.6347899999999997  0.92109  0.89618  1.0000
  C   C356      1.0  0.6179  0.9012  0.8544  1.0000
  C   C357      1.0  0.7122  0.8013  0.7016  1.0000
  C   C358      1.0  0.76725  0.78455  0.6735  1.0000
  C   C359      1.0  0.8449899999999998  0.81349  0.67558  1.0000
  C   C360      1.0  0.86948  0.85818  0.70736  1.0000
  C   C361      1.0  0.8110399999999998  0.87304  0.73448  1.0000
  C   C362      1.0  0.09937  0.74727  0.63694  1.0000
  C   C363      1.0  0.08055  0.74355  0.6723  1.0000
  C   C364      1.0  0.005600000000000011  0.7642  0.6802  1.0000
  C   C365      1.0  0.9756499999999999  0.77945  0.6495  1.0000
  C   C366      1.0  0.8999299999999999  0.79883  0.64326  1.0000
  C   C367      1.0  0.8678899999999998  0.80859  0.61098  1.0000
  C   C368      1.0  0.78779  0.8268899999999999  0.60318  1.0000
  C   C369      1.0  0.7840400000000001  0.8308400000000001  0.5678800000000002  1.0000
  C   C370      1.0  0.86512  0.8165200000000001  0.5542400000000001  1.0000
  C   C371      1.0  0.97181  0.68581  0.54442  1.0000
  C   C372      1.0  0.94677  0.64387  0.50774  1.0000
  C   C373      1.0  0.94935  0.65795  0.4775  1.0000
  C   C374      1.0  0.9763299999999998  0.70893  0.4952599999999999  1.0000
  C   C375      1.0  0.8745699999999998  0.69957  0.40954  1.0000
  C   C376      1.0  0.8554199999999997  0.67932  0.36824  1.0000
  C   C377      1.0  0.58565  0.33465  0.1013  1.0000
  C   C378      1.0  0.64911  0.34561  0.13742  1.0000
  C   C379      1.0  0.6868799999999998  0.39288  0.15256  1.0000
  C   C380      1.0  0.64456  0.40946  0.12472  1.0000
  C   C381      1.0  0.66665  0.45395  0.12470000000000002  1.0000
  C   C382      1.0  0.6368199999999998  0.46662000000000003  0.09384  1.0000
  C   C383      1.0  0.66284  0.50984  0.08968  1.0000
  C   C384      1.0  0.61715  0.50575  0.0537  1.0000
  C   C385      1.0  0.55854  0.46064  0.03508  1.0000
  C   C386      1.0  0.73001  0.49171  0.16242  1.0000
  C   C387      1.0  0.6942699999999999  0.51047  0.19654  1.0000
  C   C388      1.0  0.74993  0.54693  0.23046  1.0000
  C   C389      1.0  0.8674999999999998  0.547  0.2004  1.0000
  C   C390      1.0  0.8165399999999998  0.51074  0.16508  1.0000
  C   C391      1.0  0.16896  0.65006  0.11512  1.0000
  C   C392      1.0  0.23542  0.67292  0.15304  1.0000
  C   C393      1.0  0.2651799999999999  0.71778  0.15856  1.0000
  C   C394      1.0  0.22015999999999994  0.72266  0.12372  1.0000
  C   C395      1.0  0.23683999999999997  0.76074  0.11448  1.0000
  C   C396      1.0  0.20041999999999993  0.76132  0.07784  1.0000
  C   C397      1.0  0.22501  0.79671  0.06402  1.0000
  C   C398      1.0  0.17208999999999997  0.78009  0.02458  1.0000
  C   C399      1.0  0.11942999999999994  0.73703  0.01586  1.0000
  C   C400      1.0  0.29716  0.80506  0.14692  1.0000
  C   C401      1.0  0.26422999999999996  0.83273  0.17966  1.0000
  C   C402      1.0  0.31936999999999977  0.87337  0.20994  1.0000
  C   C403      1.0  0.43901999999999997  0.86282  0.17764  1.0000
  C   C404      1.0  0.38661  0.82131  0.14562  1.0000
  C   C405      1.0  0.3250199999999999  0.40742  0.01884  1.0000
  C   C406      1.0  0.26428999999999997  0.40109  0.98318  1.0000
  C   C407      1.0  0.2982899999999999  0.37119  0.95218  1.0000
  C   C408      1.0  0.38066999999999995  0.3607699999999999  0.9697399999999999  1.0000
  C   C409      1.0  0.44017000000000006  0.33327  0.94894  1.0000
  C   C410      1.0  0.52279  0.32599  0.96738  1.0000
  C   C411      1.0  0.59072  0.30202  0.94904  1.0000
  C   C412      1.0  0.6581099999999999  0.30351  0.97842  1.0000
  C   C413      1.0  0.6322599999999998  0.32836  0.01532  1.0000
  C   C414      1.0  0.4149300000000001  0.31083000000000005  0.90446  1.0000
  C   C415      1.0  0.39807  0.26107  0.88454  1.0000
  C   C416      1.0  0.36937  0.24027  0.84294  1.0000
  C   C417      1.0  0.3826799999999999  0.31028  0.83896  1.0000
  C   C418      1.0  0.4089099999999999  0.33441  0.87982  1.0000
  C   C419      1.0  0.75724  0.07184  0.61708  1.0000
  C   C420      1.0  0.74356  0.07456  0.65492  1.0000
  C   C421      1.0  0.67532  0.09971999999999999  0.66384  1.0000
  C   C422      1.0  0.6438  0.1118  0.631  1.0000
  C   C423      1.0  0.57136  0.13426  0.62592  1.0000
  C   C424      1.0  0.5391199999999998  0.14082  0.59064  1.0000
  C   C425      1.0  0.46043  0.15963  0.58246  1.0000
  C   C426      1.0  0.45827  0.15987  0.54474  1.0000
  C   C427      1.0  0.53428  0.14197999999999997  0.53136  1.0000
  C   C428      1.0  0.51984  0.15213999999999994  0.65868  1.0000
  C   C429      1.0  0.47227  0.12317000000000006  0.67174  1.0000
  C   C430      1.0  0.42269  0.14199  0.70178  1.0000
  C   C431      1.0  0.4714600000000001  0.21796000000000004  0.7075200000000001  1.0000
  C   C432      1.0  0.5216199999999998  0.20131999999999994  0.67744  1.0000
  C   C433      1.0  0.84938  0.05708000000000001  0.53056  1.0000
  C   C434      1.0  0.9403699999999998  0.052370000000000055  0.54214  1.0000
  C   C435      1.0  0.97724  0.09023999999999996  0.57868  1.0000
  C   C436      1.0  0.9074199999999998  0.11832000000000001  0.58784  1.0000
  C   C437      1.0  0.9146099999999996  0.16061  0.62182  1.0000
  C   C438      1.0  0.8473599999999998  0.18876000000000007  0.62792  1.0000
  C   C439      1.0  0.85469  0.23518999999999998  0.65978  1.0000
  C   C440      1.0  0.7726699999999997  0.25047  0.65154  1.0000
  C   C441      1.0  0.7199699999999998  0.21427  0.61594  1.0000
  C   C442      1.0  0.0019500000000000066  0.17774999999999994  0.6535  1.0000
  C   C443      1.0  0.018789999999999994  0.15758999999999995  0.68038  1.0000
  C   C444      1.0  0.09970999999999998  0.17411  0.70922  1.0000
  C   C445      1.0  0.14949  0.22779  0.68718  1.0000
  C   C446      1.0  0.06954  0.21424000000000007  0.65708  1.0000
  C   C447      1.0  0.74972  0.17762000000000003  0.52064  1.0000
  C   C448      1.0  0.73778  0.18327999999999997  0.48475999999999997  1.0000
  C   C449      1.0  0.69581  0.13981  0.45482  1.0000
  C   C450      1.0  0.6823299999999998  0.10803  0.47286  1.0000
  C   C451      1.0  0.6400899999999999  0.061489999999999996  0.45418  1.0000
  C   C452      1.0  0.62393  0.03253000000000001  0.47426  1.0000
  C   C453      1.0  0.5879499999999998  0.98275  0.4571  1.0000
  C   C454      1.0  0.5895099999999998  0.96881  0.48761999999999994  1.0000
  C   C455      1.0  0.6265499999999998  0.010550000000000004  0.5237  1.0000
  C   C456      1.0  0.605  0.03930000000000002  0.4094  1.0000
  C   C457      1.0  0.66512  0.027819999999999994  0.38324  1.0000
  C   C458      1.0  0.6309799999999999  0.00618  0.34236  1.0000
  C   C459      1.0  0.48188000000000003  0.007379999999999991  0.35096  1.0000
  C   C460      1.0  0.51332  0.028520000000000004  0.39224  1.0000
  C   C461      1.0  0.4898499999999999  0.008750000000000003  0.1943  1.0000
  C   C462      1.0  0.52404  0.01724000000000002  0.16468000000000005  1.0000
  C   C463      1.0  0.6142899999999998  0.014490000000000003  0.16258  1.0000
  C   C464      1.0  0.66808  0.0037800000000000025  0.19116  1.0000
  C   C465      1.0  0.62736  0.99616  0.21932  1.0000
  C   C466      1.0  0.65679  0.020589999999999997  0.13078  1.0000
  C   C467      1.0  0.66098  0.97898  0.09676  1.0000
  C   C468      1.0  0.62446  0.93186  0.08872  1.0000
  C   C469      1.0  0.64384  0.90354  0.05328  1.0000
  C   C470      1.0  0.6951  0.9333  0.0404  1.0000
  C   C471      1.0  0.6887  0.0673  0.136  1.0000
  C   C472      1.0  0.67641  0.11041  0.16702  1.0000
  C   C473      1.0  0.71153  0.14653  0.15886  1.0000
  C   C474      1.0  0.7467099999999999  0.12551  0.12362000000000001  1.0000
  C   C475      1.0  0.9184099999999997  0.97421  0.03142  1.0000
  C   C476      1.0  0.94223  0.94543  0.9940600000000002  1.0000
  C   C477      1.0  0.87471  0.94421  0.96422  1.0000
  C   C478      1.0  0.8119199999999998  0.97332  0.98244  1.0000
  C   C479      1.0  0.7613899999999999  0.9750899999999999  0.89618  1.0000
  C   C480      1.0  0.7365  0.9532  0.8544  1.0000
  C   C481      1.0  0.48940000000000006  0.9003  0.7016  1.0000
  C   C482      1.0  0.40625  0.88895  0.6735  1.0000
  C   C483      1.0  0.33059  0.86209  0.67558  1.0000
  C   C484      1.0  0.33788  0.84918  0.70736  1.0000
  C   C485      1.0  0.42343999999999987  0.86144  0.73448  1.0000
  C   C486      1.0  0.03756999999999999  0.88967  0.63694  1.0000
  C   C487      1.0  0.09175000000000003  0.9287500000000001  0.6723  1.0000
  C   C488      1.0  0.1745999999999999  0.916  0.6802  1.0000
  C   C489      1.0  0.17384999999999998  0.8700500000000001  0.6495  1.0000
  C   C490      1.0  0.24333000000000007  0.8444300000000005  0.64326  1.0000
  C   C491      1.0  0.24309  0.80239  0.61098  1.0000
  C   C492      1.0  0.31538999999999995  0.77629  0.60318  1.0000
  C   C493      1.0  0.28384000000000015  0.7370400000000004  0.5678800000000002  1.0000
  C   C494      1.0  0.18912000000000004  0.7377200000000002  0.5542400000000001  1.0000
  C   C495      1.0  0.07261  0.85861  0.54442  1.0000
  C   C496      1.0  0.06097000000000007  0.8638700000000001  0.50774  1.0000
  C   C497      1.0  0.028149999999999977  0.81955  0.4775  1.0000
  C   C498      1.0  0.01892999999999997  0.78633  0.4952599999999999  1.0000
  C   C499      1.0  0.03497000000000002  0.70997  0.40954  1.0000
  C   C500      1.0  0.012820000000000038  0.6889200000000001  0.36824  1.0000
  C   C501      1.0  0.73173  0.98173  0.96346  1.0000
  C   C502      1.0  0.7085799999999998  0.95858  0.91716  1.0000
  C   C503      1.0  0.98823  0.73823  0.47646  1.0000
  C   C504      1.0  0.96572  0.71572  0.43144  1.0000
  N   N55       1.0  0.012409999999999984  0.72131  0.09342  1.0000
  N   N56       1.0  0.98987  0.62167  0.05874  1.0000
  N   N57       1.0  0.8989699999999999  0.66887  0.23354  1.0000
  N   N58       1.0  0.4377799999999999  0.41848  0.09816  1.0000
  N   N59       1.0  0.4132499999999999  0.32235  0.0471  1.0000
  N   N60       1.0  0.30303  0.32293  0.21046  1.0000
  N   N61       1.0  0.11595999999999997  0.62676  0.01152  1.0000
  N   N62       1.0  0.9573599999999998  0.66736  0.00952  1.0000
  N   N63       1.0  0.9607099999999997  0.55741  0.81982  1.0000
  N   N64       1.0  0.4035399999999998  0.50864  0.60268  1.0000
  N   N65       1.0  0.4740399999999999  0.42824  0.559  1.0000
  N   N66       1.0  0.79867  0.52967  0.71954  1.0000
  N   N67       1.0  0.22861999999999993  0.46172  0.55764  1.0000
  N   N68       1.0  0.33906999999999987  0.4237699999999999  0.60094  1.0000
  N   N69       1.0  0.046919999999999976  0.50532  0.71304  1.0000
  N   N70       1.0  0.2974899999999999  0.38129  0.51516  1.0000
  N   N71       1.0  0.36827  0.46777  0.51612  1.0000
  N   N72       1.0  0.28713999999999995  0.33064  0.32538  1.0000
  N   N73       1.0  0.18122999999999995  0.22393  0.22146  1.0000
  N   N74       1.0  0.86159  0.08669  0.06638  1.0000
  N   N75       1.0  0.8763500000000001  0.03145  0.1099  1.0000
  N   N76       1.0  0.68387  0.03317  0.02414  1.0000
  N   N77       1.0  0.73233  0.84503  0.73046  1.0000
  N   N78       1.0  0.037740000000000024  0.76904  0.6234  1.0000
  N   N79       1.0  0.9148399999999998  0.80314  0.57948  1.0000
  N   N80       1.0  0.99006  0.72466  0.5375  1.0000
  N   N81       1.0  0.58101  0.37210999999999994  0.09342  1.0000
  N   N82       1.0  0.56887  0.43707  0.05874  1.0000
  N   N83       1.0  0.8345699999999998  0.56467  0.23354  1.0000
  N   N84       1.0  0.16038  0.67968  0.09816  1.0000
  N   N85       1.0  0.13385  0.72475  0.0471  1.0000
  N   N86       1.0  0.40743  0.8875300000000003  0.21046  1.0000
  N   N87       1.0  0.39556  0.38476  0.01152  1.0000
  N   N88       1.0  0.55216  0.34216  0.00952  1.0000
  N   N89       1.0  0.3591099999999999  0.26241  0.81982  1.0000
  N   N90       1.0  0.69914  0.09403999999999994  0.60268  1.0000
  N   N91       1.0  0.5849599999999998  0.13076000000000004  0.559  1.0000
  N   N92       1.0  0.4208700000000001  0.18987000000000007  0.71954  1.0000
  N   N93       1.0  0.8290199999999998  0.09592  0.55764  1.0000
  N   N94       1.0  0.76187  0.17716999999999994  0.60094  1.0000
  N   N95       1.0  0.16611999999999988  0.20772  0.71304  1.0000
  N   N96       1.0  0.71767  0.13387  0.51516  1.0000
  N   N97       1.0  0.6478499999999998  0.048350000000000004  0.51612  1.0000
  N   N98       1.0  0.5382399999999999  0.9947400000000002  0.32538  1.0000
  N   N99       1.0  0.54023  0.9975300000000001  0.22146  1.0000
  N   N100      1.0  0.7047899999999998  0.97969  0.06638  1.0000
  N   N101      1.0  0.73355  0.07845  0.1099  1.0000
  N   N102      1.0  0.84027  0.9909700000000002  0.02414  1.0000
  N   N103      1.0  0.49812999999999996  0.88543  0.73046  1.0000
  N   N104      1.0  0.08566000000000001  0.85436  0.6234  1.0000
  N   N105      1.0  0.16463999999999995  0.77634  0.57948  1.0000
  N   N106      1.0  0.04743999999999998  0.81284  0.5375  1.0000
  N   N107      1.0  0.66656  0.91656  0.83312  1.0000
  N   N108      1.0  0.9236699999999999  0.67367  0.34734  1.0000
