data_image0
_chemical_formula_structural       Cu2O13NHC3HC2HC2HC3HCHC3HC4HCHC2HC2HC2HC2HC4HC2HC2HC4HC3HCHCu2O13NHC3HC2HC2HC3HCHC3HC4HCHC2HC2HC2HC2HC4HC2HC2HC4HC3HCHCu2O13NHC3HC2HC2HC3HCHC3HC4HCHC2HC2HC2HC2HC4HC2HC2HC4HC3HCHCu2O13NHC3HC2HC2HC3HCHC3HC4HCHC2HC2HC2HC2HC4HC2HC2HC4HC3HCHCu2O13NHC3HC2HC2HC3HCHC3HC4HCHC2HC2HC2HC2HC4HC2HC2HC4HC3HCHCu2O13NHC3HC2HC2HC3HCHC3HC4HCHC2HC2HC2HC2HC4HC2HC2HC4HC3HCHCu2O13NHC3HC2HC2HC3HCHC3HC4HCHC2HC2HC2HC2HC4HC2HC2HC4HC3HCHCu2O13NHC3HC2HC2HC3HCHC3HC4HCHC2HC2HC2HC2HC4HC2HC2HC4HC3HCHCu2O13NHC3HC2HC2HC3HCHC3HC4HCHC2HC2HC2HC2HC4HC2HC2HC4HC3HCHCu2O13NHC3HC2HC2HC3HCHC3HC4HCHC2HC2HC2HC2HC4HC2HC2HC4HC3HCHCu2O13NHC3HC2HC2HC3HCHC3HC4HCHC2HC2HC2HC2HC4HC2HC2HC4HC3HCHCu2O13NHC3HC2HC2HC3HCHC3HC4HCHC2HC2HC2HC2HC4HC2HC2HC4HC3HCHCu2O13NHC3HC2HC2HC3HCHC3HC4HCHC2HC2HC2HC2HC4HC2HC2HC4HC3HCHCu2O13NHC3HC2HC2HC3HCHC3HC4HCHC2HC2HC2HC2HC4HC2HC2HC4HC3HCHCu2O13NHC3HC2HC2HC3HCHC3HC4HCHC2HC2HC2HC2HC4HC2HC2HC4HC3HCHCu2O13NHC3HC2HC2HC3HCHC3HC4HCHC2HC2HC2HC2HC4HC2HC2HC4HC3HCHCu16ONHCONHCONHCONHCONHCONHCONHCONHC
_chemical_formula_sum              "Cu48 O216 N24 H312 C696"
_cell_length_a       30.988
_cell_length_b       30.988
_cell_length_c       45.964
_cell_angle_alpha    90.0
_cell_angle_beta     90.0
_cell_angle_gamma    90.0

_symmetry_space_group_name_H-M    'P 1'
_symmetry_Int_Tables_number       1

loop_
  _symmetry_equiv_pos_as_xyz
  'x,y,z'

loop_
  _atom_site_type_symbol
  _atom_site_label
  _atom_site_symmetry_multiplicity
  _atom_site_fract_x
  _atom_site_fract_y
  _atom_site_fract_z
  _atom_site_occupancy
  Cu  Cu1       1.0  0.10332  0.14538  0.12778  1.0000
  Cu  Cu2       1.0  0.13893999999999995  0.19598999999999994  0.16779  1.0000
  O   O1        1.0  0.15905999999999998  0.14729999999999993  0.10844999999999999  1.0000
  O   O2        1.0  0.18719  0.19420999999999994  0.14057999999999998  1.0000
  O   O3        1.0  0.24647999999999995  0.08812999999999997  0.030159999999999992  1.0000
  O   O4        1.0  0.31779  0.10222999999999999  0.029479999999999992  1.0000
  O   O5        1.0  0.40000999999999987  0.3746  0.3469  1.0000
  O   O6        1.0  0.35778  0.3404099999999999  0.31462  1.0000
  O   O7        1.0  0.55279  0.34821999999999986  0.34767  1.0000
  O   O8        1.0  0.5845499999999998  0.31181  0.3109  1.0000
  O   O9        1.0  0.08745  0.19917999999999994  0.10876999999999998  1.0000
  O   O10       1.0  0.11059999999999998  0.24148  0.14523  1.0000
  O   O11       1.0  0.9986699999999998  0.25901  0.0307  1.0000
  O   O12       1.0  0.9851799999999997  0.3308  0.030659999999999993  1.0000
  O   O13       1.0  0.35669  0.23903999999999995  0.19808999999999996  1.0000
  N   N1        1.0  0.4552299999999999  0.2709499999999999  0.14472  1.0000
  H   H1        1.0  0.4770999999999999  0.27739999999999987  0.13329999999999997  1.0000
  C   C1        1.0  0.18906999999999993  0.17057  0.11835999999999998  1.0000
  C   C2        1.0  0.23126  0.16876  0.10195  1.0000
  C   C3        1.0  0.23514999999999994  0.14224  0.07796999999999998  1.0000
  H   H2        1.0  0.21069999999999994  0.1268  0.0711  1.0000
  C   C4        1.0  0.2740299999999999  0.13799  0.06394999999999999  1.0000
  C   C5        1.0  0.3101699999999999  0.1614  0.07393  1.0000
  H   H3        1.0  0.3372  0.15869999999999995  0.06429999999999998  1.0000
  C   C6        1.0  0.30599  0.18837999999999994  0.09783  1.0000
  C   C7        1.0  0.26689  0.19184999999999994  0.11149999999999997  1.0000
  H   H4        1.0  0.2641  0.2104  0.1278  1.0000
  C   C8        1.0  0.27952  0.10653  0.03938  1.0000
  C   C9        1.0  0.34556999999999993  0.21197  0.10949999999999999  1.0000
  C   C10       1.0  0.3783499999999999  0.22531999999999996  0.09181999999999997  1.0000
  H   H5        1.0  0.3757999999999999  0.22129999999999994  0.07139999999999999  1.0000
  C   C11       1.0  0.41565  0.24486999999999995  0.10299  1.0000
  H   H6        1.0  0.4378999999999999  0.2539  0.09019999999999997  1.0000
  C   C12       1.0  0.42014  0.25105  0.13289  1.0000
  C   C13       1.0  0.38467  0.23934999999999995  0.15127  1.0000
  C   C14       1.0  0.34871999999999986  0.22018999999999994  0.13929  1.0000
  H   H7        1.0  0.3253999999999999  0.21239999999999995  0.1516  1.0000
  C   C15       1.0  0.3859299999999999  0.24821999999999994  0.18195  1.0000
  C   C16       1.0  0.4258399999999999  0.2690099999999999  0.19304  1.0000
  C   C17       1.0  0.4578599999999999  0.28108  0.17289999999999997  1.0000
  C   C18       1.0  0.49599999999999994  0.2998599999999999  0.18545  1.0000
  H   H8        1.0  0.5199999999999998  0.3053  0.17309999999999998  1.0000
  C   C19       1.0  0.49925999999999987  0.30999  0.21354999999999996  1.0000
  H   H9        1.0  0.5242999999999998  0.32429999999999987  0.22049999999999995  1.0000
  C   C20       1.0  0.46515  0.29945  0.23315999999999995  1.0000
  C   C21       1.0  0.42977999999999994  0.27885  0.22225999999999996  1.0000
  H   H10       1.0  0.4070999999999999  0.2709999999999999  0.23509999999999995  1.0000
  C   C22       1.0  0.4680399999999999  0.31263999999999986  0.26377  1.0000
  C   C23       1.0  0.50789  0.31451  0.27856999999999993  1.0000
  H   H11       1.0  0.5334999999999998  0.3062  0.2687  1.0000
  C   C24       1.0  0.5106  0.32839  0.30743999999999994  1.0000
  C   C25       1.0  0.4731399999999999  0.3409099999999999  0.32182  1.0000
  H   H12       1.0  0.4748  0.3511999999999999  0.34119999999999995  1.0000
  C   C26       1.0  0.4335999999999999  0.33845  0.30811  1.0000
  C   C27       1.0  0.43087  0.32414  0.27951  1.0000
  H   H13       1.0  0.4034  0.3220999999999999  0.2704  1.0000
  C   C28       1.0  0.5526099999999998  0.32945  0.32304  1.0000
  C   C29       1.0  0.39399  0.3517499999999999  0.32484  1.0000
  C   C30       1.0  0.09054  0.23469  0.12207  1.0000
  C   C31       1.0  0.04865999999999999  0.2675999999999999  0.0812  1.0000
  H   H14       1.0  0.05119999999999999  0.24089999999999995  0.0711  1.0000
  C   C32       1.0  0.02596  0.30146  0.06899  1.0000
  C   C33       1.0  0.02206  0.3408899999999999  0.08414999999999999  1.0000
  H   H15       1.0  0.006799999999999998  0.3642999999999999  0.07559999999999999  1.0000
  C   C34       1.0  0.04055  0.3455899999999999  0.1117  1.0000
  C   C35       1.0  0.06445  0.31141  0.12307999999999997  1.0000
  H   H16       1.0  0.0787  0.3147  0.1413  1.0000
  C   C36       1.0  0.06768999999999997  0.27293  0.10824999999999999  1.0000
  C   C37       1.0  0.0016999999999999995  0.2958699999999999  0.04086999999999999  1.0000
  C   C38       1.0  0.033289999999999986  0.38621  0.12796  1.0000
  C   C39       1.0  0.023  0.42415  0.11310999999999999  1.0000
  H   H17       1.0  0.02319999999999999  0.4241  0.09239999999999998  1.0000
  C   C40       1.0  0.012129999999999997  0.4630399999999999  0.12819999999999998  1.0000
  C   C41       1.0  0.01079  0.46353  0.15827999999999998  1.0000
  C   C42       1.0  0.02046999999999999  0.4254099999999999  0.17323  1.0000
  H   H18       1.0  0.0193  0.425  0.1939  1.0000
  C   C43       1.0  0.03205  0.3871499999999999  0.15783  1.0000
  H   H19       1.0  0.03909999999999999  0.3617999999999999  0.16839999999999997  1.0000
  Cu  Cu3       1.0  0.8966799999999998  0.85462  0.12778  1.0000
  Cu  Cu4       1.0  0.86106  0.80401  0.16779  1.0000
  O   O14       1.0  0.8409399999999998  0.8526999999999998  0.10844999999999999  1.0000
  O   O15       1.0  0.8128099999999998  0.8057899999999998  0.14057999999999998  1.0000
  O   O16       1.0  0.7535199999999997  0.9118699999999997  0.030159999999999992  1.0000
  O   O17       1.0  0.68221  0.8977699999999997  0.029479999999999992  1.0000
  O   O18       1.0  0.59999  0.6254  0.3469  1.0000
  O   O19       1.0  0.64222  0.6595899999999998  0.31462  1.0000
  O   O20       1.0  0.4472099999999999  0.65178  0.34767  1.0000
  O   O21       1.0  0.4154499999999999  0.6881899999999999  0.3109  1.0000
  O   O22       1.0  0.9125499999999998  0.8008199999999998  0.10876999999999998  1.0000
  O   O23       1.0  0.8893999999999997  0.7585199999999997  0.14523  1.0000
  O   O24       1.0  0.00133  0.74099  0.0307  1.0000
  O   O25       1.0  0.01482  0.6692  0.030659999999999993  1.0000
  O   O26       1.0  0.64331  0.7609599999999997  0.19808999999999996  1.0000
  N   N2        1.0  0.54477  0.7290499999999998  0.14472  1.0000
  H   H20       1.0  0.5229  0.7225999999999998  0.13329999999999997  1.0000
  C   C44       1.0  0.81093  0.8294299999999998  0.11835999999999998  1.0000
  C   C45       1.0  0.76874  0.83124  0.10195  1.0000
  C   C46       1.0  0.76485  0.85776  0.07796999999999998  1.0000
  H   H21       1.0  0.7892999999999998  0.8731999999999998  0.0711  1.0000
  C   C47       1.0  0.7259699999999998  0.8620099999999998  0.06394999999999999  1.0000
  C   C48       1.0  0.6898299999999998  0.8385999999999998  0.07393  1.0000
  H   H22       1.0  0.6627999999999997  0.8413  0.06429999999999998  1.0000
  C   C49       1.0  0.69401  0.8116199999999998  0.09783  1.0000
  C   C50       1.0  0.73311  0.80815  0.11149999999999997  1.0000
  H   H23       1.0  0.7359  0.7895999999999997  0.1278  1.0000
  C   C51       1.0  0.72048  0.8934699999999998  0.03938  1.0000
  C   C52       1.0  0.6544299999999997  0.7880299999999998  0.10949999999999999  1.0000
  C   C53       1.0  0.6216499999999998  0.7746799999999998  0.09181999999999997  1.0000
  H   H24       1.0  0.6242  0.7786999999999997  0.07139999999999999  1.0000
  C   C54       1.0  0.58435  0.7551299999999997  0.10299  1.0000
  H   H25       1.0  0.5620999999999998  0.7461  0.09019999999999997  1.0000
  C   C55       1.0  0.57986  0.74895  0.13289  1.0000
  C   C56       1.0  0.61533  0.76065  0.15127  1.0000
  C   C57       1.0  0.6512799999999999  0.7798099999999998  0.13929  1.0000
  H   H26       1.0  0.6745999999999998  0.7875999999999999  0.1516  1.0000
  C   C58       1.0  0.61407  0.7517799999999999  0.18195  1.0000
  C   C59       1.0  0.5741599999999998  0.73099  0.19304  1.0000
  C   C60       1.0  0.54214  0.7189199999999998  0.17289999999999997  1.0000
  C   C61       1.0  0.504  0.70014  0.18545  1.0000
  H   H27       1.0  0.47999999999999987  0.6946999999999999  0.17309999999999998  1.0000
  C   C62       1.0  0.50074  0.69001  0.21354999999999996  1.0000
  H   H28       1.0  0.4757  0.6757  0.22049999999999995  1.0000
  C   C63       1.0  0.5348499999999998  0.7005499999999998  0.23315999999999995  1.0000
  C   C64       1.0  0.5702199999999997  0.72115  0.22225999999999996  1.0000
  H   H29       1.0  0.5929  0.729  0.23509999999999995  1.0000
  C   C65       1.0  0.5319599999999998  0.6873599999999997  0.26377  1.0000
  C   C66       1.0  0.4921099999999999  0.68549  0.27856999999999993  1.0000
  H   H30       1.0  0.4664999999999999  0.6938  0.2687  1.0000
  C   C67       1.0  0.4893999999999999  0.67161  0.30743999999999994  1.0000
  C   C68       1.0  0.5268599999999998  0.65909  0.32182  1.0000
  H   H31       1.0  0.5251999999999998  0.6488  0.34119999999999995  1.0000
  C   C69       1.0  0.5663999999999998  0.6615499999999997  0.30811  1.0000
  C   C70       1.0  0.5691299999999998  0.67586  0.27951  1.0000
  H   H32       1.0  0.5966  0.6778999999999997  0.2704  1.0000
  C   C71       1.0  0.4473899999999999  0.67055  0.32304  1.0000
  C   C72       1.0  0.6060099999999998  0.64825  0.32484  1.0000
  C   C73       1.0  0.9094599999999998  0.76531  0.12207  1.0000
  C   C74       1.0  0.9513399999999997  0.7324  0.0812  1.0000
  H   H33       1.0  0.9488  0.7590999999999998  0.0711  1.0000
  C   C75       1.0  0.97404  0.69854  0.06899  1.0000
  C   C76       1.0  0.9779399999999998  0.6591099999999998  0.08414999999999999  1.0000
  H   H34       1.0  0.9931999999999997  0.6356999999999998  0.07559999999999999  1.0000
  C   C77       1.0  0.95945  0.65441  0.1117  1.0000
  C   C78       1.0  0.93555  0.68859  0.12307999999999997  1.0000
  H   H35       1.0  0.9212999999999998  0.6853  0.1413  1.0000
  C   C79       1.0  0.93231  0.7270699999999998  0.10824999999999999  1.0000
  C   C80       1.0  0.9982999999999997  0.7041299999999998  0.04086999999999999  1.0000
  C   C81       1.0  0.9667099999999997  0.61379  0.12796  1.0000
  C   C82       1.0  0.9769999999999998  0.57585  0.11310999999999999  1.0000
  H   H36       1.0  0.9767999999999998  0.5758999999999997  0.09239999999999998  1.0000
  C   C83       1.0  0.9878699999999998  0.5369599999999998  0.12819999999999998  1.0000
  C   C84       1.0  0.9892099999999998  0.53647  0.15827999999999998  1.0000
  C   C85       1.0  0.9795299999999998  0.57459  0.17323  1.0000
  H   H37       1.0  0.9807  0.5749999999999997  0.1939  1.0000
  C   C86       1.0  0.9679499999999998  0.61285  0.15783  1.0000
  H   H38       1.0  0.9608999999999998  0.6381999999999998  0.16839999999999997  1.0000
  Cu  Cu5       1.0  0.85462  0.10332  0.12778  1.0000
  Cu  Cu6       1.0  0.80401  0.13893999999999995  0.16779  1.0000
  O   O27       1.0  0.8526999999999998  0.15905999999999998  0.10844999999999999  1.0000
  O   O28       1.0  0.8057899999999998  0.18719  0.14057999999999998  1.0000
  O   O29       1.0  0.9118699999999997  0.24647999999999995  0.030159999999999992  1.0000
  O   O30       1.0  0.8977699999999997  0.31779  0.029479999999999992  1.0000
  O   O31       1.0  0.6254  0.40000999999999987  0.3469  1.0000
  O   O32       1.0  0.6595899999999998  0.35778  0.31462  1.0000
  O   O33       1.0  0.65178  0.55279  0.34767  1.0000
  O   O34       1.0  0.6881899999999999  0.5845499999999998  0.3109  1.0000
  O   O35       1.0  0.8008199999999998  0.08745  0.10876999999999998  1.0000
  O   O36       1.0  0.7585199999999997  0.11059999999999998  0.14523  1.0000
  O   O37       1.0  0.74099  0.9986699999999998  0.0307  1.0000
  O   O38       1.0  0.6692  0.9851799999999997  0.030659999999999993  1.0000
  O   O39       1.0  0.7609599999999997  0.35669  0.19808999999999996  1.0000
  N   N3        1.0  0.7290499999999998  0.4552299999999999  0.14472  1.0000
  H   H39       1.0  0.7225999999999998  0.4770999999999999  0.13329999999999997  1.0000
  C   C87       1.0  0.8294299999999998  0.18906999999999993  0.11835999999999998  1.0000
  C   C88       1.0  0.83124  0.23126  0.10195  1.0000
  C   C89       1.0  0.85776  0.23514999999999994  0.07796999999999998  1.0000
  H   H40       1.0  0.8731999999999998  0.21069999999999994  0.0711  1.0000
  C   C90       1.0  0.8620099999999998  0.2740299999999999  0.06394999999999999  1.0000
  C   C91       1.0  0.8385999999999998  0.3101699999999999  0.07393  1.0000
  H   H41       1.0  0.8413  0.3372  0.06429999999999998  1.0000
  C   C92       1.0  0.8116199999999998  0.30599  0.09783  1.0000
  C   C93       1.0  0.80815  0.26689  0.11149999999999997  1.0000
  H   H42       1.0  0.7895999999999997  0.2641  0.1278  1.0000
  C   C94       1.0  0.8934699999999998  0.27952  0.03938  1.0000
  C   C95       1.0  0.7880299999999998  0.34556999999999993  0.10949999999999999  1.0000
  C   C96       1.0  0.7746799999999998  0.3783499999999999  0.09181999999999997  1.0000
  H   H43       1.0  0.7786999999999997  0.3757999999999999  0.07139999999999999  1.0000
  C   C97       1.0  0.7551299999999997  0.41565  0.10299  1.0000
  H   H44       1.0  0.7461  0.4378999999999999  0.09019999999999997  1.0000
  C   C98       1.0  0.74895  0.42014  0.13289  1.0000
  C   C99       1.0  0.76065  0.38467  0.15127  1.0000
  C   C100      1.0  0.7798099999999998  0.34871999999999986  0.13929  1.0000
  H   H45       1.0  0.7875999999999999  0.3253999999999999  0.1516  1.0000
  C   C101      1.0  0.7517799999999999  0.3859299999999999  0.18195  1.0000
  C   C102      1.0  0.73099  0.4258399999999999  0.19304  1.0000
  C   C103      1.0  0.7189199999999998  0.4578599999999999  0.17289999999999997  1.0000
  C   C104      1.0  0.70014  0.49599999999999994  0.18545  1.0000
  H   H46       1.0  0.6946999999999999  0.5199999999999998  0.17309999999999998  1.0000
  C   C105      1.0  0.69001  0.49925999999999987  0.21354999999999996  1.0000
  H   H47       1.0  0.6757  0.5242999999999998  0.22049999999999995  1.0000
  C   C106      1.0  0.7005499999999998  0.46515  0.23315999999999995  1.0000
  C   C107      1.0  0.72115  0.42977999999999994  0.22225999999999996  1.0000
  H   H48       1.0  0.729  0.4070999999999999  0.23509999999999995  1.0000
  C   C108      1.0  0.6873599999999997  0.4680399999999999  0.26377  1.0000
  C   C109      1.0  0.68549  0.50789  0.27856999999999993  1.0000
  H   H49       1.0  0.6938  0.5334999999999998  0.2687  1.0000
  C   C110      1.0  0.67161  0.5106  0.30743999999999994  1.0000
  C   C111      1.0  0.65909  0.4731399999999999  0.32182  1.0000
  H   H50       1.0  0.6488  0.4748  0.34119999999999995  1.0000
  C   C112      1.0  0.6615499999999997  0.4335999999999999  0.30811  1.0000
  C   C113      1.0  0.67586  0.43087  0.27951  1.0000
  H   H51       1.0  0.6778999999999997  0.4034  0.2704  1.0000
  C   C114      1.0  0.67055  0.5526099999999998  0.32304  1.0000
  C   C115      1.0  0.64825  0.39399  0.32484  1.0000
  C   C116      1.0  0.76531  0.09054  0.12207  1.0000
  C   C117      1.0  0.7324  0.04865999999999999  0.0812  1.0000
  H   H52       1.0  0.7590999999999998  0.05119999999999999  0.0711  1.0000
  C   C118      1.0  0.69854  0.02596  0.06899  1.0000
  C   C119      1.0  0.6591099999999998  0.02206  0.08414999999999999  1.0000
  H   H53       1.0  0.6356999999999998  0.006799999999999998  0.07559999999999999  1.0000
  C   C120      1.0  0.65441  0.04055  0.1117  1.0000
  C   C121      1.0  0.68859  0.06445  0.12307999999999997  1.0000
  H   H54       1.0  0.6853  0.0787  0.1413  1.0000
  C   C122      1.0  0.7270699999999998  0.06768999999999997  0.10824999999999999  1.0000
  C   C123      1.0  0.7041299999999998  0.0016999999999999995  0.04086999999999999  1.0000
  C   C124      1.0  0.61379  0.033289999999999986  0.12796  1.0000
  C   C125      1.0  0.57585  0.023  0.11310999999999999  1.0000
  H   H55       1.0  0.5758999999999997  0.02319999999999999  0.09239999999999998  1.0000
  C   C126      1.0  0.5369599999999998  0.012129999999999997  0.12819999999999998  1.0000
  C   C127      1.0  0.53647  0.01079  0.15827999999999998  1.0000
  C   C128      1.0  0.57459  0.02046999999999999  0.17323  1.0000
  H   H56       1.0  0.5749999999999997  0.0193  0.1939  1.0000
  C   C129      1.0  0.61285  0.03205  0.15783  1.0000
  H   H57       1.0  0.6381999999999998  0.03909999999999999  0.16839999999999997  1.0000
  Cu  Cu7       1.0  0.14538  0.8966799999999998  0.12778  1.0000
  Cu  Cu8       1.0  0.19598999999999994  0.86106  0.16779  1.0000
  O   O40       1.0  0.14729999999999993  0.8409399999999998  0.10844999999999999  1.0000
  O   O41       1.0  0.19420999999999994  0.8128099999999998  0.14057999999999998  1.0000
  O   O42       1.0  0.08812999999999997  0.7535199999999997  0.030159999999999992  1.0000
  O   O43       1.0  0.10222999999999999  0.68221  0.029479999999999992  1.0000
  O   O44       1.0  0.3746  0.59999  0.3469  1.0000
  O   O45       1.0  0.3404099999999999  0.64222  0.31462  1.0000
  O   O46       1.0  0.34821999999999986  0.4472099999999999  0.34767  1.0000
  O   O47       1.0  0.31181  0.4154499999999999  0.3109  1.0000
  O   O48       1.0  0.19917999999999994  0.9125499999999998  0.10876999999999998  1.0000
  O   O49       1.0  0.24148  0.8893999999999997  0.14523  1.0000
  O   O50       1.0  0.25901  0.00133  0.0307  1.0000
  O   O51       1.0  0.3308  0.01482  0.030659999999999993  1.0000
  O   O52       1.0  0.23903999999999995  0.64331  0.19808999999999996  1.0000
  N   N4        1.0  0.2709499999999999  0.54477  0.14472  1.0000
  H   H58       1.0  0.27739999999999987  0.5229  0.13329999999999997  1.0000
  C   C130      1.0  0.17057  0.81093  0.11835999999999998  1.0000
  C   C131      1.0  0.16876  0.76874  0.10195  1.0000
  C   C132      1.0  0.14224  0.76485  0.07796999999999998  1.0000
  H   H59       1.0  0.1268  0.7892999999999998  0.0711  1.0000
  C   C133      1.0  0.13799  0.7259699999999998  0.06394999999999999  1.0000
  C   C134      1.0  0.1614  0.6898299999999998  0.07393  1.0000
  H   H60       1.0  0.15869999999999995  0.6627999999999997  0.06429999999999998  1.0000
  C   C135      1.0  0.18837999999999994  0.69401  0.09783  1.0000
  C   C136      1.0  0.19184999999999994  0.73311  0.11149999999999997  1.0000
  H   H61       1.0  0.2104  0.7359  0.1278  1.0000
  C   C137      1.0  0.10653  0.72048  0.03938  1.0000
  C   C138      1.0  0.21197  0.6544299999999997  0.10949999999999999  1.0000
  C   C139      1.0  0.22531999999999996  0.6216499999999998  0.09181999999999997  1.0000
  H   H62       1.0  0.22129999999999994  0.6242  0.07139999999999999  1.0000
  C   C140      1.0  0.24486999999999995  0.58435  0.10299  1.0000
  H   H63       1.0  0.2539  0.5620999999999998  0.09019999999999997  1.0000
  C   C141      1.0  0.25105  0.57986  0.13289  1.0000
  C   C142      1.0  0.23934999999999995  0.61533  0.15127  1.0000
  C   C143      1.0  0.22018999999999994  0.6512799999999999  0.13929  1.0000
  H   H64       1.0  0.21239999999999995  0.6745999999999998  0.1516  1.0000
  C   C144      1.0  0.24821999999999994  0.61407  0.18195  1.0000
  C   C145      1.0  0.2690099999999999  0.5741599999999998  0.19304  1.0000
  C   C146      1.0  0.28108  0.54214  0.17289999999999997  1.0000
  C   C147      1.0  0.2998599999999999  0.504  0.18545  1.0000
  H   H65       1.0  0.3053  0.47999999999999987  0.17309999999999998  1.0000
  C   C148      1.0  0.30999  0.50074  0.21354999999999996  1.0000
  H   H66       1.0  0.32429999999999987  0.4757  0.22049999999999995  1.0000
  C   C149      1.0  0.29945  0.5348499999999998  0.23315999999999995  1.0000
  C   C150      1.0  0.27885  0.5702199999999997  0.22225999999999996  1.0000
  H   H67       1.0  0.2709999999999999  0.5929  0.23509999999999995  1.0000
  C   C151      1.0  0.31263999999999986  0.5319599999999998  0.26377  1.0000
  C   C152      1.0  0.31451  0.4921099999999999  0.27856999999999993  1.0000
  H   H68       1.0  0.3062  0.4664999999999999  0.2687  1.0000
  C   C153      1.0  0.32839  0.4893999999999999  0.30743999999999994  1.0000
  C   C154      1.0  0.3409099999999999  0.5268599999999998  0.32182  1.0000
  H   H69       1.0  0.3511999999999999  0.5251999999999998  0.34119999999999995  1.0000
  C   C155      1.0  0.33845  0.5663999999999998  0.30811  1.0000
  C   C156      1.0  0.32414  0.5691299999999998  0.27951  1.0000
  H   H70       1.0  0.3220999999999999  0.5966  0.2704  1.0000
  C   C157      1.0  0.32945  0.4473899999999999  0.32304  1.0000
  C   C158      1.0  0.3517499999999999  0.6060099999999998  0.32484  1.0000
  C   C159      1.0  0.23469  0.9094599999999998  0.12207  1.0000
  C   C160      1.0  0.2675999999999999  0.9513399999999997  0.0812  1.0000
  H   H71       1.0  0.24089999999999995  0.9488  0.0711  1.0000
  C   C161      1.0  0.30146  0.97404  0.06899  1.0000
  C   C162      1.0  0.3408899999999999  0.9779399999999998  0.08414999999999999  1.0000
  H   H72       1.0  0.3642999999999999  0.9931999999999997  0.07559999999999999  1.0000
  C   C163      1.0  0.3455899999999999  0.95945  0.1117  1.0000
  C   C164      1.0  0.31141  0.93555  0.12307999999999997  1.0000
  H   H73       1.0  0.3147  0.9212999999999998  0.1413  1.0000
  C   C165      1.0  0.27293  0.93231  0.10824999999999999  1.0000
  C   C166      1.0  0.2958699999999999  0.9982999999999997  0.04086999999999999  1.0000
  C   C167      1.0  0.38621  0.9667099999999997  0.12796  1.0000
  C   C168      1.0  0.42415  0.9769999999999998  0.11310999999999999  1.0000
  H   H74       1.0  0.4241  0.9767999999999998  0.09239999999999998  1.0000
  C   C169      1.0  0.4630399999999999  0.9878699999999998  0.12819999999999998  1.0000
  C   C170      1.0  0.46353  0.9892099999999998  0.15827999999999998  1.0000
  C   C171      1.0  0.4254099999999999  0.9795299999999998  0.17323  1.0000
  H   H75       1.0  0.425  0.9807  0.1939  1.0000
  C   C172      1.0  0.3871499999999999  0.9679499999999998  0.15783  1.0000
  H   H76       1.0  0.3617999999999999  0.9608999999999998  0.16839999999999997  1.0000
  Cu  Cu9       1.0  0.39668  0.6453799999999998  0.37221999999999994  1.0000
  Cu  Cu10      1.0  0.3610599999999999  0.6959899999999998  0.33220999999999995  1.0000
  O   O53       1.0  0.3409399999999999  0.6473  0.39154999999999995  1.0000
  O   O54       1.0  0.31281  0.69421  0.35942  1.0000
  O   O55       1.0  0.25352  0.58813  0.4698399999999999  1.0000
  O   O56       1.0  0.18221  0.60223  0.4705199999999999  1.0000
  O   O57       1.0  0.09998999999999997  0.8745999999999998  0.15309999999999999  1.0000
  O   O58       1.0  0.14222  0.84041  0.18537999999999996  1.0000
  O   O59       1.0  0.9472099999999998  0.8482199999999998  0.15232999999999997  1.0000
  O   O60       1.0  0.91545  0.81181  0.18909999999999996  1.0000
  O   O61       1.0  0.41254999999999986  0.69918  0.39122999999999997  1.0000
  O   O62       1.0  0.3894  0.74148  0.3547699999999999  1.0000
  O   O63       1.0  0.50133  0.7590099999999997  0.4692999999999999  1.0000
  O   O64       1.0  0.51482  0.8307999999999998  0.46933999999999987  1.0000
  O   O65       1.0  0.14331  0.73904  0.30191  1.0000
  N   N5        1.0  0.04476999999999998  0.77095  0.35528  1.0000
  H   H77       1.0  0.022899999999999993  0.7774  0.3667  1.0000
  C   C173      1.0  0.31093  0.67057  0.38164  1.0000
  C   C174      1.0  0.26873999999999987  0.6687599999999998  0.39804999999999996  1.0000
  C   C175      1.0  0.26485  0.6422399999999998  0.42203  1.0000
  H   H78       1.0  0.2893  0.6268  0.4288999999999999  1.0000
  C   C176      1.0  0.22596999999999995  0.63799  0.43604999999999994  1.0000
  C   C177      1.0  0.18982999999999994  0.6614  0.42606999999999995  1.0000
  H   H79       1.0  0.1628  0.6586999999999997  0.4356999999999999  1.0000
  C   C178      1.0  0.19400999999999993  0.68838  0.4021699999999999  1.0000
  C   C179      1.0  0.23311  0.6918499999999997  0.3884999999999999  1.0000
  H   H80       1.0  0.2359  0.7104  0.3722  1.0000
  C   C180      1.0  0.22047999999999995  0.60653  0.46062  1.0000
  C   C181      1.0  0.15443  0.71197  0.39049999999999996  1.0000
  C   C182      1.0  0.12165  0.72532  0.40818  1.0000
  H   H81       1.0  0.1242  0.7213  0.4285999999999999  1.0000
  C   C183      1.0  0.08434999999999997  0.74487  0.39701  1.0000
  H   H82       1.0  0.0621  0.7538999999999998  0.4098  1.0000
  C   C184      1.0  0.07985999999999997  0.7510499999999998  0.36710999999999994  1.0000
  C   C185      1.0  0.11532999999999997  0.7393499999999997  0.34873  1.0000
  C   C186      1.0  0.15128  0.72019  0.36070999999999986  1.0000
  H   H83       1.0  0.17459999999999995  0.7124  0.34839999999999993  1.0000
  C   C187      1.0  0.11407  0.74822  0.31804999999999994  1.0000
  C   C188      1.0  0.07415999999999998  0.7690099999999997  0.30695999999999996  1.0000
  C   C189      1.0  0.04214  0.78108  0.3271  1.0000
  C   C190      1.0  0.004  0.7998599999999998  0.31455  1.0000
  H   H84       1.0  0.98  0.8053  0.3269  1.0000
  C   C191      1.0  0.0007399999999999998  0.8099899999999998  0.28645  1.0000
  H   H85       1.0  0.9757  0.8242999999999998  0.2795  1.0000
  C   C192      1.0  0.03485  0.79945  0.26684  1.0000
  C   C193      1.0  0.07022  0.7788499999999998  0.27774  1.0000
  H   H86       1.0  0.09289999999999997  0.7709999999999998  0.2649  1.0000
  C   C194      1.0  0.031959999999999995  0.81264  0.23622999999999997  1.0000
  C   C195      1.0  0.9921099999999998  0.8145099999999997  0.22143  1.0000
  H   H87       1.0  0.9665  0.8061999999999998  0.2313  1.0000
  C   C196      1.0  0.9894  0.8283899999999998  0.19256  1.0000
  C   C197      1.0  0.02686  0.8409099999999998  0.17817999999999995  1.0000
  H   H88       1.0  0.025199999999999993  0.8511999999999997  0.15879999999999997  1.0000
  C   C198      1.0  0.0664  0.83845  0.19188999999999995  1.0000
  C   C199      1.0  0.06913  0.8241399999999998  0.22048999999999996  1.0000
  H   H89       1.0  0.09659999999999998  0.8221  0.22959999999999997  1.0000
  C   C200      1.0  0.94739  0.8294499999999998  0.17695999999999998  1.0000
  C   C201      1.0  0.10600999999999998  0.8517499999999998  0.17516  1.0000
  C   C202      1.0  0.40946  0.7346899999999997  0.37793  1.0000
  C   C203      1.0  0.45134  0.7675999999999997  0.41879999999999995  1.0000
  H   H90       1.0  0.44879999999999987  0.7409  0.4288999999999999  1.0000
  C   C204      1.0  0.4740399999999999  0.8014599999999997  0.43100999999999995  1.0000
  C   C205      1.0  0.47794  0.84089  0.41585  1.0000
  H   H91       1.0  0.4931999999999999  0.8643  0.42439999999999994  1.0000
  C   C206      1.0  0.4594499999999999  0.8455899999999997  0.3883  1.0000
  C   C207      1.0  0.43555  0.8114099999999997  0.37692  1.0000
  H   H92       1.0  0.4212999999999999  0.8146999999999998  0.3586999999999999  1.0000
  C   C208      1.0  0.43231  0.77293  0.39175  1.0000
  C   C209      1.0  0.4982999999999999  0.79587  0.4591299999999999  1.0000
  C   C210      1.0  0.4667099999999999  0.8862099999999998  0.37203999999999987  1.0000
  C   C211      1.0  0.4769999999999999  0.9241499999999998  0.3868899999999999  1.0000
  H   H93       1.0  0.4767999999999999  0.9241  0.40759999999999996  1.0000
  C   C212      1.0  0.48787  0.96304  0.3718  1.0000
  C   C213      1.0  0.48920999999999987  0.9635299999999998  0.34172  1.0000
  C   C214      1.0  0.47953  0.9254099999999997  0.32677  1.0000
  H   H94       1.0  0.4807  0.925  0.3061  1.0000
  C   C215      1.0  0.46794999999999987  0.8871499999999998  0.34217  1.0000
  H   H95       1.0  0.4609  0.8618  0.33159999999999995  1.0000
  Cu  Cu11      1.0  0.60332  0.3546199999999999  0.37221999999999994  1.0000
  Cu  Cu12      1.0  0.6389399999999997  0.30401  0.33220999999999995  1.0000
  O   O66       1.0  0.65906  0.3527  0.39154999999999995  1.0000
  O   O67       1.0  0.68719  0.30578999999999995  0.35942  1.0000
  O   O68       1.0  0.74648  0.41186999999999996  0.4698399999999999  1.0000
  O   O69       1.0  0.8177899999999998  0.39777  0.4705199999999999  1.0000
  O   O70       1.0  0.9000099999999998  0.1254  0.15309999999999999  1.0000
  O   O71       1.0  0.8577799999999998  0.15958999999999995  0.18537999999999996  1.0000
  O   O72       1.0  0.05279  0.15178  0.15232999999999997  1.0000
  O   O73       1.0  0.08454999999999997  0.18819  0.18909999999999996  1.0000
  O   O74       1.0  0.58745  0.3008199999999999  0.39122999999999997  1.0000
  O   O75       1.0  0.6106  0.25852  0.3547699999999999  1.0000
  O   O76       1.0  0.4986699999999999  0.24098999999999995  0.4692999999999999  1.0000
  O   O77       1.0  0.4851799999999999  0.1692  0.46933999999999987  1.0000
  O   O78       1.0  0.8566899999999997  0.2609599999999999  0.30191  1.0000
  N   N6        1.0  0.9552299999999998  0.22904999999999995  0.35528  1.0000
  H   H96       1.0  0.9770999999999997  0.2226  0.3667  1.0000
  C   C216      1.0  0.6890699999999997  0.3294299999999999  0.38164  1.0000
  C   C217      1.0  0.7312599999999998  0.33123999999999987  0.39804999999999996  1.0000
  C   C218      1.0  0.7351499999999997  0.3577599999999999  0.42203  1.0000
  H   H97       1.0  0.7107  0.37319999999999987  0.4288999999999999  1.0000
  C   C219      1.0  0.77403  0.3620099999999999  0.43604999999999994  1.0000
  C   C220      1.0  0.81017  0.3385999999999999  0.42606999999999995  1.0000
  H   H98       1.0  0.8372  0.3413  0.4356999999999999  1.0000
  C   C221      1.0  0.8059899999999998  0.31162  0.4021699999999999  1.0000
  C   C222      1.0  0.7668899999999997  0.30814999999999987  0.3884999999999999  1.0000
  H   H99       1.0  0.7640999999999998  0.2895999999999999  0.3722  1.0000
  C   C223      1.0  0.7795199999999998  0.3934699999999999  0.46062  1.0000
  C   C224      1.0  0.84557  0.2880299999999999  0.39049999999999996  1.0000
  C   C225      1.0  0.87835  0.27468  0.40818  1.0000
  H   H100      1.0  0.8757999999999998  0.2787  0.4285999999999999  1.0000
  C   C226      1.0  0.9156499999999997  0.25513  0.39701  1.0000
  H   H101      1.0  0.9379  0.24609999999999996  0.4098  1.0000
  C   C227      1.0  0.9201399999999997  0.24894999999999995  0.36710999999999994  1.0000
  C   C228      1.0  0.8846699999999997  0.26065  0.34873  1.0000
  C   C229      1.0  0.84872  0.27981  0.36070999999999986  1.0000
  H   H102      1.0  0.8254  0.2876  0.34839999999999993  1.0000
  C   C230      1.0  0.8859299999999998  0.25178  0.31804999999999994  1.0000
  C   C231      1.0  0.92584  0.23098999999999995  0.30695999999999996  1.0000
  C   C232      1.0  0.9578599999999998  0.21892  0.3271  1.0000
  C   C233      1.0  0.996  0.20013999999999996  0.31455  1.0000
  H   H103      1.0  0.019999999999999993  0.1947  0.3269  1.0000
  C   C234      1.0  0.9992599999999998  0.19001  0.28645  1.0000
  H   H104      1.0  0.024299999999999992  0.1757  0.2795  1.0000
  C   C235      1.0  0.96515  0.20054999999999995  0.26684  1.0000
  C   C236      1.0  0.92978  0.22115  0.27774  1.0000
  H   H105      1.0  0.9070999999999998  0.22899999999999995  0.2649  1.0000
  C   C237      1.0  0.96804  0.18735999999999994  0.23622999999999997  1.0000
  C   C238      1.0  0.00789  0.18549  0.22143  1.0000
  H   H106      1.0  0.03349999999999999  0.19379999999999994  0.2313  1.0000
  C   C239      1.0  0.0106  0.17160999999999996  0.19256  1.0000
  C   C240      1.0  0.97314  0.15909  0.17817999999999995  1.0000
  H   H107      1.0  0.9748  0.14879999999999993  0.15879999999999997  1.0000
  C   C241      1.0  0.9336  0.16155  0.19188999999999995  1.0000
  C   C242      1.0  0.93087  0.17586  0.22048999999999996  1.0000
  H   H108      1.0  0.9033999999999998  0.17789999999999995  0.22959999999999997  1.0000
  C   C243      1.0  0.05261  0.17054999999999995  0.17695999999999998  1.0000
  C   C244      1.0  0.89399  0.14825  0.17516  1.0000
  C   C245      1.0  0.59054  0.2653099999999999  0.37793  1.0000
  C   C246      1.0  0.54866  0.23239999999999994  0.41879999999999995  1.0000
  H   H109      1.0  0.5511999999999998  0.2590999999999999  0.4288999999999999  1.0000
  C   C247      1.0  0.5259599999999998  0.19854  0.43100999999999995  1.0000
  C   C248      1.0  0.52206  0.15910999999999995  0.41585  1.0000
  H   H110      1.0  0.5068  0.13569999999999993  0.42439999999999994  1.0000
  C   C249      1.0  0.5405499999999999  0.15441  0.3883  1.0000
  C   C250      1.0  0.5644499999999998  0.18858999999999995  0.37692  1.0000
  H   H111      1.0  0.5787  0.18529999999999994  0.3586999999999999  1.0000
  C   C251      1.0  0.5676899999999998  0.22706999999999994  0.39175  1.0000
  C   C252      1.0  0.5017  0.20413  0.4591299999999999  1.0000
  C   C253      1.0  0.53329  0.11379  0.37203999999999987  1.0000
  C   C254      1.0  0.523  0.07585  0.3868899999999999  1.0000
  H   H112      1.0  0.5232  0.0759  0.40759999999999996  1.0000
  C   C255      1.0  0.5121299999999999  0.03696  0.3718  1.0000
  C   C256      1.0  0.51079  0.03647  0.34172  1.0000
  C   C257      1.0  0.52047  0.07459  0.32677  1.0000
  H   H113      1.0  0.5192999999999998  0.075  0.3061  1.0000
  C   C258      1.0  0.53205  0.11284999999999998  0.34217  1.0000
  H   H114      1.0  0.5391  0.13819999999999996  0.33159999999999995  1.0000
  Cu  Cu13      1.0  0.6453799999999998  0.60332  0.37221999999999994  1.0000
  Cu  Cu14      1.0  0.6959899999999998  0.6389399999999997  0.33220999999999995  1.0000
  O   O79       1.0  0.6473  0.65906  0.39154999999999995  1.0000
  O   O80       1.0  0.69421  0.68719  0.35942  1.0000
  O   O81       1.0  0.58813  0.74648  0.4698399999999999  1.0000
  O   O82       1.0  0.60223  0.8177899999999998  0.4705199999999999  1.0000
  O   O83       1.0  0.8745999999999998  0.9000099999999998  0.15309999999999999  1.0000
  O   O84       1.0  0.84041  0.8577799999999998  0.18537999999999996  1.0000
  O   O85       1.0  0.8482199999999998  0.05279  0.15232999999999997  1.0000
  O   O86       1.0  0.81181  0.08454999999999997  0.18909999999999996  1.0000
  O   O87       1.0  0.69918  0.58745  0.39122999999999997  1.0000
  O   O88       1.0  0.74148  0.6106  0.3547699999999999  1.0000
  O   O89       1.0  0.7590099999999997  0.4986699999999999  0.4692999999999999  1.0000
  O   O90       1.0  0.8307999999999998  0.4851799999999999  0.46933999999999987  1.0000
  O   O91       1.0  0.73904  0.8566899999999997  0.30191  1.0000
  N   N7        1.0  0.77095  0.9552299999999998  0.35528  1.0000
  H   H115      1.0  0.7774  0.9770999999999997  0.3667  1.0000
  C   C259      1.0  0.67057  0.6890699999999997  0.38164  1.0000
  C   C260      1.0  0.6687599999999998  0.7312599999999998  0.39804999999999996  1.0000
  C   C261      1.0  0.6422399999999998  0.7351499999999997  0.42203  1.0000
  H   H116      1.0  0.6268  0.7107  0.4288999999999999  1.0000
  C   C262      1.0  0.63799  0.77403  0.43604999999999994  1.0000
  C   C263      1.0  0.6614  0.81017  0.42606999999999995  1.0000
  H   H117      1.0  0.6586999999999997  0.8372  0.4356999999999999  1.0000
  C   C264      1.0  0.68838  0.8059899999999998  0.4021699999999999  1.0000
  C   C265      1.0  0.6918499999999997  0.7668899999999997  0.3884999999999999  1.0000
  H   H118      1.0  0.7104  0.7640999999999998  0.3722  1.0000
  C   C266      1.0  0.60653  0.7795199999999998  0.46062  1.0000
  C   C267      1.0  0.71197  0.84557  0.39049999999999996  1.0000
  C   C268      1.0  0.72532  0.87835  0.40818  1.0000
  H   H119      1.0  0.7213  0.8757999999999998  0.4285999999999999  1.0000
  C   C269      1.0  0.74487  0.9156499999999997  0.39701  1.0000
  H   H120      1.0  0.7538999999999998  0.9379  0.4098  1.0000
  C   C270      1.0  0.7510499999999998  0.9201399999999997  0.36710999999999994  1.0000
  C   C271      1.0  0.7393499999999997  0.8846699999999997  0.34873  1.0000
  C   C272      1.0  0.72019  0.84872  0.36070999999999986  1.0000
  H   H121      1.0  0.7124  0.8254  0.34839999999999993  1.0000
  C   C273      1.0  0.74822  0.8859299999999998  0.31804999999999994  1.0000
  C   C274      1.0  0.7690099999999997  0.92584  0.30695999999999996  1.0000
  C   C275      1.0  0.78108  0.9578599999999998  0.3271  1.0000
  C   C276      1.0  0.7998599999999998  0.996  0.31455  1.0000
  H   H122      1.0  0.8053  0.019999999999999993  0.3269  1.0000
  C   C277      1.0  0.8099899999999998  0.9992599999999998  0.28645  1.0000
  H   H123      1.0  0.8242999999999998  0.024299999999999992  0.2795  1.0000
  C   C278      1.0  0.79945  0.96515  0.26684  1.0000
  C   C279      1.0  0.7788499999999998  0.92978  0.27774  1.0000
  H   H124      1.0  0.7709999999999998  0.9070999999999998  0.2649  1.0000
  C   C280      1.0  0.81264  0.96804  0.23622999999999997  1.0000
  C   C281      1.0  0.8145099999999997  0.00789  0.22143  1.0000
  H   H125      1.0  0.8061999999999998  0.03349999999999999  0.2313  1.0000
  C   C282      1.0  0.8283899999999998  0.0106  0.19256  1.0000
  C   C283      1.0  0.8409099999999998  0.97314  0.17817999999999995  1.0000
  H   H126      1.0  0.8511999999999997  0.9748  0.15879999999999997  1.0000
  C   C284      1.0  0.83845  0.9336  0.19188999999999995  1.0000
  C   C285      1.0  0.8241399999999998  0.93087  0.22048999999999996  1.0000
  H   H127      1.0  0.8221  0.9033999999999998  0.22959999999999997  1.0000
  C   C286      1.0  0.8294499999999998  0.05261  0.17695999999999998  1.0000
  C   C287      1.0  0.8517499999999998  0.89399  0.17516  1.0000
  C   C288      1.0  0.7346899999999997  0.59054  0.37793  1.0000
  C   C289      1.0  0.7675999999999997  0.54866  0.41879999999999995  1.0000
  H   H128      1.0  0.7409  0.5511999999999998  0.4288999999999999  1.0000
  C   C290      1.0  0.8014599999999997  0.5259599999999998  0.43100999999999995  1.0000
  C   C291      1.0  0.84089  0.52206  0.41585  1.0000
  H   H129      1.0  0.8643  0.5068  0.42439999999999994  1.0000
  C   C292      1.0  0.8455899999999997  0.5405499999999999  0.3883  1.0000
  C   C293      1.0  0.8114099999999997  0.5644499999999998  0.37692  1.0000
  H   H130      1.0  0.8146999999999998  0.5787  0.3586999999999999  1.0000
  C   C294      1.0  0.77293  0.5676899999999998  0.39175  1.0000
  C   C295      1.0  0.79587  0.5017  0.4591299999999999  1.0000
  C   C296      1.0  0.8862099999999998  0.53329  0.37203999999999987  1.0000
  C   C297      1.0  0.9241499999999998  0.523  0.3868899999999999  1.0000
  H   H131      1.0  0.9241  0.5232  0.40759999999999996  1.0000
  C   C298      1.0  0.96304  0.5121299999999999  0.3718  1.0000
  C   C299      1.0  0.9635299999999998  0.51079  0.34172  1.0000
  C   C300      1.0  0.9254099999999997  0.52047  0.32677  1.0000
  H   H132      1.0  0.925  0.5192999999999998  0.3061  1.0000
  C   C301      1.0  0.8871499999999998  0.53205  0.34217  1.0000
  H   H133      1.0  0.8618  0.5391  0.33159999999999995  1.0000
  Cu  Cu15      1.0  0.3546199999999999  0.39668  0.37221999999999994  1.0000
  Cu  Cu16      1.0  0.30401  0.3610599999999999  0.33220999999999995  1.0000
  O   O92       1.0  0.3527  0.3409399999999999  0.39154999999999995  1.0000
  O   O93       1.0  0.30578999999999995  0.31281  0.35942  1.0000
  O   O94       1.0  0.41186999999999996  0.25352  0.4698399999999999  1.0000
  O   O95       1.0  0.39777  0.18221  0.4705199999999999  1.0000
  O   O96       1.0  0.1254  0.09998999999999997  0.15309999999999999  1.0000
  O   O97       1.0  0.15958999999999995  0.14222  0.18537999999999996  1.0000
  O   O98       1.0  0.15178  0.9472099999999998  0.15232999999999997  1.0000
  O   O99       1.0  0.18819  0.91545  0.18909999999999996  1.0000
  O   O100      1.0  0.3008199999999999  0.41254999999999986  0.39122999999999997  1.0000
  O   O101      1.0  0.25852  0.3894  0.3547699999999999  1.0000
  O   O102      1.0  0.24098999999999995  0.50133  0.4692999999999999  1.0000
  O   O103      1.0  0.1692  0.51482  0.46933999999999987  1.0000
  O   O104      1.0  0.2609599999999999  0.14331  0.30191  1.0000
  N   N8        1.0  0.22904999999999995  0.04476999999999998  0.35528  1.0000
  H   H134      1.0  0.2226  0.022899999999999993  0.3667  1.0000
  C   C302      1.0  0.3294299999999999  0.31093  0.38164  1.0000
  C   C303      1.0  0.33123999999999987  0.26873999999999987  0.39804999999999996  1.0000
  C   C304      1.0  0.3577599999999999  0.26485  0.42203  1.0000
  H   H135      1.0  0.37319999999999987  0.2893  0.4288999999999999  1.0000
  C   C305      1.0  0.3620099999999999  0.22596999999999995  0.43604999999999994  1.0000
  C   C306      1.0  0.3385999999999999  0.18982999999999994  0.42606999999999995  1.0000
  H   H136      1.0  0.3413  0.1628  0.4356999999999999  1.0000
  C   C307      1.0  0.31162  0.19400999999999993  0.4021699999999999  1.0000
  C   C308      1.0  0.30814999999999987  0.23311  0.3884999999999999  1.0000
  H   H137      1.0  0.2895999999999999  0.2359  0.3722  1.0000
  C   C309      1.0  0.3934699999999999  0.22047999999999995  0.46062  1.0000
  C   C310      1.0  0.2880299999999999  0.15443  0.39049999999999996  1.0000
  C   C311      1.0  0.27468  0.12165  0.40818  1.0000
  H   H138      1.0  0.2787  0.1242  0.4285999999999999  1.0000
  C   C312      1.0  0.25513  0.08434999999999997  0.39701  1.0000
  H   H139      1.0  0.24609999999999996  0.0621  0.4098  1.0000
  C   C313      1.0  0.24894999999999995  0.07985999999999997  0.36710999999999994  1.0000
  C   C314      1.0  0.26065  0.11532999999999997  0.34873  1.0000
  C   C315      1.0  0.27981  0.15128  0.36070999999999986  1.0000
  H   H140      1.0  0.2876  0.17459999999999995  0.34839999999999993  1.0000
  C   C316      1.0  0.25178  0.11407  0.31804999999999994  1.0000
  C   C317      1.0  0.23098999999999995  0.07415999999999998  0.30695999999999996  1.0000
  C   C318      1.0  0.21892  0.04214  0.3271  1.0000
  C   C319      1.0  0.20013999999999996  0.004  0.31455  1.0000
  H   H141      1.0  0.1947  0.98  0.3269  1.0000
  C   C320      1.0  0.19001  0.0007399999999999998  0.28645  1.0000
  H   H142      1.0  0.1757  0.9757  0.2795  1.0000
  C   C321      1.0  0.20054999999999995  0.03485  0.26684  1.0000
  C   C322      1.0  0.22115  0.07022  0.27774  1.0000
  H   H143      1.0  0.22899999999999995  0.09289999999999997  0.2649  1.0000
  C   C323      1.0  0.18735999999999994  0.031959999999999995  0.23622999999999997  1.0000
  C   C324      1.0  0.18549  0.9921099999999998  0.22143  1.0000
  H   H144      1.0  0.19379999999999994  0.9665  0.2313  1.0000
  C   C325      1.0  0.17160999999999996  0.9894  0.19256  1.0000
  C   C326      1.0  0.15909  0.02686  0.17817999999999995  1.0000
  H   H145      1.0  0.14879999999999993  0.025199999999999993  0.15879999999999997  1.0000
  C   C327      1.0  0.16155  0.0664  0.19188999999999995  1.0000
  C   C328      1.0  0.17586  0.06913  0.22048999999999996  1.0000
  H   H146      1.0  0.17789999999999995  0.09659999999999998  0.22959999999999997  1.0000
  C   C329      1.0  0.17054999999999995  0.94739  0.17695999999999998  1.0000
  C   C330      1.0  0.14825  0.10600999999999998  0.17516  1.0000
  C   C331      1.0  0.2653099999999999  0.40946  0.37793  1.0000
  C   C332      1.0  0.23239999999999994  0.45134  0.41879999999999995  1.0000
  H   H147      1.0  0.2590999999999999  0.44879999999999987  0.4288999999999999  1.0000
  C   C333      1.0  0.19854  0.4740399999999999  0.43100999999999995  1.0000
  C   C334      1.0  0.15910999999999995  0.47794  0.41585  1.0000
  H   H148      1.0  0.13569999999999993  0.4931999999999999  0.42439999999999994  1.0000
  C   C335      1.0  0.15441  0.4594499999999999  0.3883  1.0000
  C   C336      1.0  0.18858999999999995  0.43555  0.37692  1.0000
  H   H149      1.0  0.18529999999999994  0.4212999999999999  0.3586999999999999  1.0000
  C   C337      1.0  0.22706999999999994  0.43231  0.39175  1.0000
  C   C338      1.0  0.20413  0.4982999999999999  0.4591299999999999  1.0000
  C   C339      1.0  0.11379  0.4667099999999999  0.37203999999999987  1.0000
  C   C340      1.0  0.07585  0.4769999999999999  0.3868899999999999  1.0000
  H   H150      1.0  0.0759  0.4767999999999999  0.40759999999999996  1.0000
  C   C341      1.0  0.03696  0.48787  0.3718  1.0000
  C   C342      1.0  0.03647  0.48920999999999987  0.34172  1.0000
  C   C343      1.0  0.07459  0.47953  0.32677  1.0000
  H   H151      1.0  0.075  0.4807  0.3061  1.0000
  C   C344      1.0  0.11284999999999998  0.46794999999999987  0.34217  1.0000
  H   H152      1.0  0.13819999999999996  0.4609  0.33159999999999995  1.0000
  Cu  Cu17      1.0  0.8966799999999998  0.85462  0.8722199999999999  1.0000
  Cu  Cu18      1.0  0.86106  0.80401  0.83221  1.0000
  O   O105      1.0  0.8409399999999998  0.8526999999999998  0.89155  1.0000
  O   O106      1.0  0.8128099999999998  0.8057899999999998  0.8594199999999997  1.0000
  O   O107      1.0  0.7535199999999997  0.9118699999999997  0.9698399999999998  1.0000
  O   O108      1.0  0.68221  0.8977699999999997  0.97052  1.0000
  O   O109      1.0  0.59999  0.6254  0.6531  1.0000
  O   O110      1.0  0.64222  0.6595899999999998  0.6853799999999999  1.0000
  O   O111      1.0  0.4472099999999999  0.65178  0.65233  1.0000
  O   O112      1.0  0.4154499999999999  0.6881899999999999  0.6890999999999999  1.0000
  O   O113      1.0  0.9125499999999998  0.8008199999999998  0.8912299999999999  1.0000
  O   O114      1.0  0.8893999999999997  0.7585199999999997  0.8547699999999999  1.0000
  O   O115      1.0  0.00133  0.74099  0.9692999999999999  1.0000
  O   O116      1.0  0.01482  0.6692  0.96934  1.0000
  O   O117      1.0  0.64331  0.7609599999999997  0.80191  1.0000
  N   N9        1.0  0.54477  0.7290499999999998  0.8552799999999999  1.0000
  H   H153      1.0  0.5229  0.7225999999999998  0.8667  1.0000
  C   C345      1.0  0.81093  0.8294299999999998  0.88164  1.0000
  C   C346      1.0  0.76874  0.83124  0.8980499999999998  1.0000
  C   C347      1.0  0.76485  0.85776  0.92203  1.0000
  H   H154      1.0  0.7892999999999998  0.8731999999999998  0.9288999999999997  1.0000
  C   C348      1.0  0.7259699999999998  0.8620099999999998  0.93605  1.0000
  C   C349      1.0  0.6898299999999998  0.8385999999999998  0.9260699999999998  1.0000
  H   H155      1.0  0.6627999999999997  0.8413  0.9357  1.0000
  C   C350      1.0  0.69401  0.8116199999999998  0.9021699999999998  1.0000
  C   C351      1.0  0.73311  0.80815  0.8885  1.0000
  H   H156      1.0  0.7359  0.7895999999999997  0.8722  1.0000
  C   C352      1.0  0.72048  0.8934699999999998  0.9606199999999998  1.0000
  C   C353      1.0  0.6544299999999997  0.7880299999999998  0.8904999999999998  1.0000
  C   C354      1.0  0.6216499999999998  0.7746799999999998  0.9081799999999999  1.0000
  H   H157      1.0  0.6242  0.7786999999999997  0.9285999999999998  1.0000
  C   C355      1.0  0.58435  0.7551299999999997  0.8970099999999998  1.0000
  H   H158      1.0  0.5620999999999998  0.7461  0.9098  1.0000
  C   C356      1.0  0.57986  0.74895  0.8671099999999998  1.0000
  C   C357      1.0  0.61533  0.76065  0.84873  1.0000
  C   C358      1.0  0.6512799999999999  0.7798099999999998  0.8607099999999998  1.0000
  H   H159      1.0  0.6745999999999998  0.7875999999999999  0.8483999999999998  1.0000
  C   C359      1.0  0.61407  0.7517799999999999  0.81805  1.0000
  C   C360      1.0  0.5741599999999998  0.73099  0.8069599999999999  1.0000
  C   C361      1.0  0.54214  0.7189199999999998  0.8271  1.0000
  C   C362      1.0  0.504  0.70014  0.8145499999999999  1.0000
  H   H160      1.0  0.47999999999999987  0.6946999999999999  0.8268999999999997  1.0000
  C   C363      1.0  0.50074  0.69001  0.7864499999999999  1.0000
  H   H161      1.0  0.4757  0.6757  0.7795  1.0000
  C   C364      1.0  0.5348499999999998  0.7005499999999998  0.76684  1.0000
  C   C365      1.0  0.5702199999999997  0.72115  0.7777399999999999  1.0000
  H   H162      1.0  0.5929  0.729  0.7648999999999998  1.0000
  C   C366      1.0  0.5319599999999998  0.6873599999999997  0.73623  1.0000
  C   C367      1.0  0.4921099999999999  0.68549  0.7214299999999998  1.0000
  H   H163      1.0  0.4664999999999999  0.6938  0.7312999999999998  1.0000
  C   C368      1.0  0.4893999999999999  0.67161  0.69256  1.0000
  C   C369      1.0  0.5268599999999998  0.65909  0.67818  1.0000
  H   H164      1.0  0.5251999999999998  0.6488  0.6588  1.0000
  C   C370      1.0  0.5663999999999998  0.6615499999999997  0.69189  1.0000
  C   C371      1.0  0.5691299999999998  0.67586  0.7204899999999999  1.0000
  H   H165      1.0  0.5966  0.6778999999999997  0.7296  1.0000
  C   C372      1.0  0.4473899999999999  0.67055  0.67696  1.0000
  C   C373      1.0  0.6060099999999998  0.64825  0.67516  1.0000
  C   C374      1.0  0.9094599999999998  0.76531  0.8779299999999999  1.0000
  C   C375      1.0  0.9513399999999997  0.7324  0.9188  1.0000
  H   H166      1.0  0.9488  0.7590999999999998  0.9288999999999997  1.0000
  C   C376      1.0  0.97404  0.69854  0.9310099999999999  1.0000
  C   C377      1.0  0.9779399999999998  0.6591099999999998  0.91585  1.0000
  H   H167      1.0  0.9931999999999997  0.6356999999999998  0.9243999999999999  1.0000
  C   C378      1.0  0.95945  0.65441  0.8882999999999998  1.0000
  C   C379      1.0  0.93555  0.68859  0.87692  1.0000
  H   H168      1.0  0.9212999999999998  0.6853  0.8586999999999998  1.0000
  C   C380      1.0  0.93231  0.7270699999999998  0.8917499999999999  1.0000
  C   C381      1.0  0.9982999999999997  0.7041299999999998  0.9591299999999999  1.0000
  C   C382      1.0  0.9667099999999997  0.61379  0.87204  1.0000
  C   C383      1.0  0.9769999999999998  0.57585  0.8868899999999997  1.0000
  H   H169      1.0  0.9767999999999998  0.5758999999999997  0.9076  1.0000
  C   C384      1.0  0.9878699999999998  0.5369599999999998  0.8717999999999999  1.0000
  C   C385      1.0  0.9892099999999998  0.53647  0.8417199999999999  1.0000
  C   C386      1.0  0.9795299999999998  0.57459  0.8267699999999998  1.0000
  H   H170      1.0  0.9807  0.5749999999999997  0.8060999999999999  1.0000
  C   C387      1.0  0.9679499999999998  0.61285  0.84217  1.0000
  H   H171      1.0  0.9608999999999998  0.6381999999999998  0.8316  1.0000
  Cu  Cu19      1.0  0.10332  0.14538  0.8722199999999999  1.0000
  Cu  Cu20      1.0  0.13893999999999995  0.19598999999999994  0.83221  1.0000
  O   O118      1.0  0.15905999999999998  0.14729999999999993  0.89155  1.0000
  O   O119      1.0  0.18719  0.19420999999999994  0.8594199999999997  1.0000
  O   O120      1.0  0.24647999999999995  0.08812999999999997  0.9698399999999998  1.0000
  O   O121      1.0  0.31779  0.10222999999999999  0.97052  1.0000
  O   O122      1.0  0.40000999999999987  0.3746  0.6531  1.0000
  O   O123      1.0  0.35778  0.3404099999999999  0.6853799999999999  1.0000
  O   O124      1.0  0.55279  0.34821999999999986  0.65233  1.0000
  O   O125      1.0  0.5845499999999998  0.31181  0.6890999999999999  1.0000
  O   O126      1.0  0.08745  0.19917999999999994  0.8912299999999999  1.0000
  O   O127      1.0  0.11059999999999998  0.24148  0.8547699999999999  1.0000
  O   O128      1.0  0.9986699999999998  0.25901  0.9692999999999999  1.0000
  O   O129      1.0  0.9851799999999997  0.3308  0.96934  1.0000
  O   O130      1.0  0.35669  0.23903999999999995  0.80191  1.0000
  N   N10       1.0  0.4552299999999999  0.2709499999999999  0.8552799999999999  1.0000
  H   H172      1.0  0.4770999999999999  0.27739999999999987  0.8667  1.0000
  C   C388      1.0  0.18906999999999993  0.17057  0.88164  1.0000
  C   C389      1.0  0.23126  0.16876  0.8980499999999998  1.0000
  C   C390      1.0  0.23514999999999994  0.14224  0.92203  1.0000
  H   H173      1.0  0.21069999999999994  0.1268  0.9288999999999997  1.0000
  C   C391      1.0  0.2740299999999999  0.13799  0.93605  1.0000
  C   C392      1.0  0.3101699999999999  0.1614  0.9260699999999998  1.0000
  H   H174      1.0  0.3372  0.15869999999999995  0.9357  1.0000
  C   C393      1.0  0.30599  0.18837999999999994  0.9021699999999998  1.0000
  C   C394      1.0  0.26689  0.19184999999999994  0.8885  1.0000
  H   H175      1.0  0.2641  0.2104  0.8722  1.0000
  C   C395      1.0  0.27952  0.10653  0.9606199999999998  1.0000
  C   C396      1.0  0.34556999999999993  0.21197  0.8904999999999998  1.0000
  C   C397      1.0  0.3783499999999999  0.22531999999999996  0.9081799999999999  1.0000
  H   H176      1.0  0.3757999999999999  0.22129999999999994  0.9285999999999998  1.0000
  C   C398      1.0  0.41565  0.24486999999999995  0.8970099999999998  1.0000
  H   H177      1.0  0.4378999999999999  0.2539  0.9098  1.0000
  C   C399      1.0  0.42014  0.25105  0.8671099999999998  1.0000
  C   C400      1.0  0.38467  0.23934999999999995  0.84873  1.0000
  C   C401      1.0  0.34871999999999986  0.22018999999999994  0.8607099999999998  1.0000
  H   H178      1.0  0.3253999999999999  0.21239999999999995  0.8483999999999998  1.0000
  C   C402      1.0  0.3859299999999999  0.24821999999999994  0.81805  1.0000
  C   C403      1.0  0.4258399999999999  0.2690099999999999  0.8069599999999999  1.0000
  C   C404      1.0  0.4578599999999999  0.28108  0.8271  1.0000
  C   C405      1.0  0.49599999999999994  0.2998599999999999  0.8145499999999999  1.0000
  H   H179      1.0  0.5199999999999998  0.3053  0.8268999999999997  1.0000
  C   C406      1.0  0.49925999999999987  0.30999  0.7864499999999999  1.0000
  H   H180      1.0  0.5242999999999998  0.32429999999999987  0.7795  1.0000
  C   C407      1.0  0.46515  0.29945  0.76684  1.0000
  C   C408      1.0  0.42977999999999994  0.27885  0.7777399999999999  1.0000
  H   H181      1.0  0.4070999999999999  0.2709999999999999  0.7648999999999998  1.0000
  C   C409      1.0  0.4680399999999999  0.31263999999999986  0.73623  1.0000
  C   C410      1.0  0.50789  0.31451  0.7214299999999998  1.0000
  H   H182      1.0  0.5334999999999998  0.3062  0.7312999999999998  1.0000
  C   C411      1.0  0.5106  0.32839  0.69256  1.0000
  C   C412      1.0  0.4731399999999999  0.3409099999999999  0.67818  1.0000
  H   H183      1.0  0.4748  0.3511999999999999  0.6588  1.0000
  C   C413      1.0  0.4335999999999999  0.33845  0.69189  1.0000
  C   C414      1.0  0.43087  0.32414  0.7204899999999999  1.0000
  H   H184      1.0  0.4034  0.3220999999999999  0.7296  1.0000
  C   C415      1.0  0.5526099999999998  0.32945  0.67696  1.0000
  C   C416      1.0  0.39399  0.3517499999999999  0.67516  1.0000
  C   C417      1.0  0.09054  0.23469  0.8779299999999999  1.0000
  C   C418      1.0  0.04865999999999999  0.2675999999999999  0.9188  1.0000
  H   H185      1.0  0.05119999999999999  0.24089999999999995  0.9288999999999997  1.0000
  C   C419      1.0  0.02596  0.30146  0.9310099999999999  1.0000
  C   C420      1.0  0.02206  0.3408899999999999  0.91585  1.0000
  H   H186      1.0  0.006799999999999998  0.3642999999999999  0.9243999999999999  1.0000
  C   C421      1.0  0.04055  0.3455899999999999  0.8882999999999998  1.0000
  C   C422      1.0  0.06445  0.31141  0.87692  1.0000
  H   H187      1.0  0.0787  0.3147  0.8586999999999998  1.0000
  C   C423      1.0  0.06768999999999997  0.27293  0.8917499999999999  1.0000
  C   C424      1.0  0.0016999999999999995  0.2958699999999999  0.9591299999999999  1.0000
  C   C425      1.0  0.033289999999999986  0.38621  0.87204  1.0000
  C   C426      1.0  0.023  0.42415  0.8868899999999997  1.0000
  H   H188      1.0  0.02319999999999999  0.4241  0.9076  1.0000
  C   C427      1.0  0.012129999999999997  0.4630399999999999  0.8717999999999999  1.0000
  C   C428      1.0  0.01079  0.46353  0.8417199999999999  1.0000
  C   C429      1.0  0.02046999999999999  0.4254099999999999  0.8267699999999998  1.0000
  H   H189      1.0  0.0193  0.425  0.8060999999999999  1.0000
  C   C430      1.0  0.03205  0.3871499999999999  0.84217  1.0000
  H   H190      1.0  0.03909999999999999  0.3617999999999999  0.8316  1.0000
  Cu  Cu21      1.0  0.14538  0.8966799999999998  0.8722199999999999  1.0000
  Cu  Cu22      1.0  0.19598999999999994  0.86106  0.83221  1.0000
  O   O131      1.0  0.14729999999999993  0.8409399999999998  0.89155  1.0000
  O   O132      1.0  0.19420999999999994  0.8128099999999998  0.8594199999999997  1.0000
  O   O133      1.0  0.08812999999999997  0.7535199999999997  0.9698399999999998  1.0000
  O   O134      1.0  0.10222999999999999  0.68221  0.97052  1.0000
  O   O135      1.0  0.3746  0.59999  0.6531  1.0000
  O   O136      1.0  0.3404099999999999  0.64222  0.6853799999999999  1.0000
  O   O137      1.0  0.34821999999999986  0.4472099999999999  0.65233  1.0000
  O   O138      1.0  0.31181  0.4154499999999999  0.6890999999999999  1.0000
  O   O139      1.0  0.19917999999999994  0.9125499999999998  0.8912299999999999  1.0000
  O   O140      1.0  0.24148  0.8893999999999997  0.8547699999999999  1.0000
  O   O141      1.0  0.25901  0.00133  0.9692999999999999  1.0000
  O   O142      1.0  0.3308  0.01482  0.96934  1.0000
  O   O143      1.0  0.23903999999999995  0.64331  0.80191  1.0000
  N   N11       1.0  0.2709499999999999  0.54477  0.8552799999999999  1.0000
  H   H191      1.0  0.27739999999999987  0.5229  0.8667  1.0000
  C   C431      1.0  0.17057  0.81093  0.88164  1.0000
  C   C432      1.0  0.16876  0.76874  0.8980499999999998  1.0000
  C   C433      1.0  0.14224  0.76485  0.92203  1.0000
  H   H192      1.0  0.1268  0.7892999999999998  0.9288999999999997  1.0000
  C   C434      1.0  0.13799  0.7259699999999998  0.93605  1.0000
  C   C435      1.0  0.1614  0.6898299999999998  0.9260699999999998  1.0000
  H   H193      1.0  0.15869999999999995  0.6627999999999997  0.9357  1.0000
  C   C436      1.0  0.18837999999999994  0.69401  0.9021699999999998  1.0000
  C   C437      1.0  0.19184999999999994  0.73311  0.8885  1.0000
  H   H194      1.0  0.2104  0.7359  0.8722  1.0000
  C   C438      1.0  0.10653  0.72048  0.9606199999999998  1.0000
  C   C439      1.0  0.21197  0.6544299999999997  0.8904999999999998  1.0000
  C   C440      1.0  0.22531999999999996  0.6216499999999998  0.9081799999999999  1.0000
  H   H195      1.0  0.22129999999999994  0.6242  0.9285999999999998  1.0000
  C   C441      1.0  0.24486999999999995  0.58435  0.8970099999999998  1.0000
  H   H196      1.0  0.2539  0.5620999999999998  0.9098  1.0000
  C   C442      1.0  0.25105  0.57986  0.8671099999999998  1.0000
  C   C443      1.0  0.23934999999999995  0.61533  0.84873  1.0000
  C   C444      1.0  0.22018999999999994  0.6512799999999999  0.8607099999999998  1.0000
  H   H197      1.0  0.21239999999999995  0.6745999999999998  0.8483999999999998  1.0000
  C   C445      1.0  0.24821999999999994  0.61407  0.81805  1.0000
  C   C446      1.0  0.2690099999999999  0.5741599999999998  0.8069599999999999  1.0000
  C   C447      1.0  0.28108  0.54214  0.8271  1.0000
  C   C448      1.0  0.2998599999999999  0.504  0.8145499999999999  1.0000
  H   H198      1.0  0.3053  0.47999999999999987  0.8268999999999997  1.0000
  C   C449      1.0  0.30999  0.50074  0.7864499999999999  1.0000
  H   H199      1.0  0.32429999999999987  0.4757  0.7795  1.0000
  C   C450      1.0  0.29945  0.5348499999999998  0.76684  1.0000
  C   C451      1.0  0.27885  0.5702199999999997  0.7777399999999999  1.0000
  H   H200      1.0  0.2709999999999999  0.5929  0.7648999999999998  1.0000
  C   C452      1.0  0.31263999999999986  0.5319599999999998  0.73623  1.0000
  C   C453      1.0  0.31451  0.4921099999999999  0.7214299999999998  1.0000
  H   H201      1.0  0.3062  0.4664999999999999  0.7312999999999998  1.0000
  C   C454      1.0  0.32839  0.4893999999999999  0.69256  1.0000
  C   C455      1.0  0.3409099999999999  0.5268599999999998  0.67818  1.0000
  H   H202      1.0  0.3511999999999999  0.5251999999999998  0.6588  1.0000
  C   C456      1.0  0.33845  0.5663999999999998  0.69189  1.0000
  C   C457      1.0  0.32414  0.5691299999999998  0.7204899999999999  1.0000
  H   H203      1.0  0.3220999999999999  0.5966  0.7296  1.0000
  C   C458      1.0  0.32945  0.4473899999999999  0.67696  1.0000
  C   C459      1.0  0.3517499999999999  0.6060099999999998  0.67516  1.0000
  C   C460      1.0  0.23469  0.9094599999999998  0.8779299999999999  1.0000
  C   C461      1.0  0.2675999999999999  0.9513399999999997  0.9188  1.0000
  H   H204      1.0  0.24089999999999995  0.9488  0.9288999999999997  1.0000
  C   C462      1.0  0.30146  0.97404  0.9310099999999999  1.0000
  C   C463      1.0  0.3408899999999999  0.9779399999999998  0.91585  1.0000
  H   H205      1.0  0.3642999999999999  0.9931999999999997  0.9243999999999999  1.0000
  C   C464      1.0  0.3455899999999999  0.95945  0.8882999999999998  1.0000
  C   C465      1.0  0.31141  0.93555  0.87692  1.0000
  H   H206      1.0  0.3147  0.9212999999999998  0.8586999999999998  1.0000
  C   C466      1.0  0.27293  0.93231  0.8917499999999999  1.0000
  C   C467      1.0  0.2958699999999999  0.9982999999999997  0.9591299999999999  1.0000
  C   C468      1.0  0.38621  0.9667099999999997  0.87204  1.0000
  C   C469      1.0  0.42415  0.9769999999999998  0.8868899999999997  1.0000
  H   H207      1.0  0.4241  0.9767999999999998  0.9076  1.0000
  C   C470      1.0  0.4630399999999999  0.9878699999999998  0.8717999999999999  1.0000
  C   C471      1.0  0.46353  0.9892099999999998  0.8417199999999999  1.0000
  C   C472      1.0  0.4254099999999999  0.9795299999999998  0.8267699999999998  1.0000
  H   H208      1.0  0.425  0.9807  0.8060999999999999  1.0000
  C   C473      1.0  0.3871499999999999  0.9679499999999998  0.84217  1.0000
  H   H209      1.0  0.3617999999999999  0.9608999999999998  0.8316  1.0000
  Cu  Cu23      1.0  0.85462  0.10332  0.8722199999999999  1.0000
  Cu  Cu24      1.0  0.80401  0.13893999999999995  0.83221  1.0000
  O   O144      1.0  0.8526999999999998  0.15905999999999998  0.89155  1.0000
  O   O145      1.0  0.8057899999999998  0.18719  0.8594199999999997  1.0000
  O   O146      1.0  0.9118699999999997  0.24647999999999995  0.9698399999999998  1.0000
  O   O147      1.0  0.8977699999999997  0.31779  0.97052  1.0000
  O   O148      1.0  0.6254  0.40000999999999987  0.6531  1.0000
  O   O149      1.0  0.6595899999999998  0.35778  0.6853799999999999  1.0000
  O   O150      1.0  0.65178  0.55279  0.65233  1.0000
  O   O151      1.0  0.6881899999999999  0.5845499999999998  0.6890999999999999  1.0000
  O   O152      1.0  0.8008199999999998  0.08745  0.8912299999999999  1.0000
  O   O153      1.0  0.7585199999999997  0.11059999999999998  0.8547699999999999  1.0000
  O   O154      1.0  0.74099  0.9986699999999998  0.9692999999999999  1.0000
  O   O155      1.0  0.6692  0.9851799999999997  0.96934  1.0000
  O   O156      1.0  0.7609599999999997  0.35669  0.80191  1.0000
  N   N12       1.0  0.7290499999999998  0.4552299999999999  0.8552799999999999  1.0000
  H   H210      1.0  0.7225999999999998  0.4770999999999999  0.8667  1.0000
  C   C474      1.0  0.8294299999999998  0.18906999999999993  0.88164  1.0000
  C   C475      1.0  0.83124  0.23126  0.8980499999999998  1.0000
  C   C476      1.0  0.85776  0.23514999999999994  0.92203  1.0000
  H   H211      1.0  0.8731999999999998  0.21069999999999994  0.9288999999999997  1.0000
  C   C477      1.0  0.8620099999999998  0.2740299999999999  0.93605  1.0000
  C   C478      1.0  0.8385999999999998  0.3101699999999999  0.9260699999999998  1.0000
  H   H212      1.0  0.8413  0.3372  0.9357  1.0000
  C   C479      1.0  0.8116199999999998  0.30599  0.9021699999999998  1.0000
  C   C480      1.0  0.80815  0.26689  0.8885  1.0000
  H   H213      1.0  0.7895999999999997  0.2641  0.8722  1.0000
  C   C481      1.0  0.8934699999999998  0.27952  0.9606199999999998  1.0000
  C   C482      1.0  0.7880299999999998  0.34556999999999993  0.8904999999999998  1.0000
  C   C483      1.0  0.7746799999999998  0.3783499999999999  0.9081799999999999  1.0000
  H   H214      1.0  0.7786999999999997  0.3757999999999999  0.9285999999999998  1.0000
  C   C484      1.0  0.7551299999999997  0.41565  0.8970099999999998  1.0000
  H   H215      1.0  0.7461  0.4378999999999999  0.9098  1.0000
  C   C485      1.0  0.74895  0.42014  0.8671099999999998  1.0000
  C   C486      1.0  0.76065  0.38467  0.84873  1.0000
  C   C487      1.0  0.7798099999999998  0.34871999999999986  0.8607099999999998  1.0000
  H   H216      1.0  0.7875999999999999  0.3253999999999999  0.8483999999999998  1.0000
  C   C488      1.0  0.7517799999999999  0.3859299999999999  0.81805  1.0000
  C   C489      1.0  0.73099  0.4258399999999999  0.8069599999999999  1.0000
  C   C490      1.0  0.7189199999999998  0.4578599999999999  0.8271  1.0000
  C   C491      1.0  0.70014  0.49599999999999994  0.8145499999999999  1.0000
  H   H217      1.0  0.6946999999999999  0.5199999999999998  0.8268999999999997  1.0000
  C   C492      1.0  0.69001  0.49925999999999987  0.7864499999999999  1.0000
  H   H218      1.0  0.6757  0.5242999999999998  0.7795  1.0000
  C   C493      1.0  0.7005499999999998  0.46515  0.76684  1.0000
  C   C494      1.0  0.72115  0.42977999999999994  0.7777399999999999  1.0000
  H   H219      1.0  0.729  0.4070999999999999  0.7648999999999998  1.0000
  C   C495      1.0  0.6873599999999997  0.4680399999999999  0.73623  1.0000
  C   C496      1.0  0.68549  0.50789  0.7214299999999998  1.0000
  H   H220      1.0  0.6938  0.5334999999999998  0.7312999999999998  1.0000
  C   C497      1.0  0.67161  0.5106  0.69256  1.0000
  C   C498      1.0  0.65909  0.4731399999999999  0.67818  1.0000
  H   H221      1.0  0.6488  0.4748  0.6588  1.0000
  C   C499      1.0  0.6615499999999997  0.4335999999999999  0.69189  1.0000
  C   C500      1.0  0.67586  0.43087  0.7204899999999999  1.0000
  H   H222      1.0  0.6778999999999997  0.4034  0.7296  1.0000
  C   C501      1.0  0.67055  0.5526099999999998  0.67696  1.0000
  C   C502      1.0  0.64825  0.39399  0.67516  1.0000
  C   C503      1.0  0.76531  0.09054  0.8779299999999999  1.0000
  C   C504      1.0  0.7324  0.04865999999999999  0.9188  1.0000
  H   H223      1.0  0.7590999999999998  0.05119999999999999  0.9288999999999997  1.0000
  C   C505      1.0  0.69854  0.02596  0.9310099999999999  1.0000
  C   C506      1.0  0.6591099999999998  0.02206  0.91585  1.0000
  H   H224      1.0  0.6356999999999998  0.006799999999999998  0.9243999999999999  1.0000
  C   C507      1.0  0.65441  0.04055  0.8882999999999998  1.0000
  C   C508      1.0  0.68859  0.06445  0.87692  1.0000
  H   H225      1.0  0.6853  0.0787  0.8586999999999998  1.0000
  C   C509      1.0  0.7270699999999998  0.06768999999999997  0.8917499999999999  1.0000
  C   C510      1.0  0.7041299999999998  0.0016999999999999995  0.9591299999999999  1.0000
  C   C511      1.0  0.61379  0.033289999999999986  0.87204  1.0000
  C   C512      1.0  0.57585  0.023  0.8868899999999997  1.0000
  H   H226      1.0  0.5758999999999997  0.02319999999999999  0.9076  1.0000
  C   C513      1.0  0.5369599999999998  0.012129999999999997  0.8717999999999999  1.0000
  C   C514      1.0  0.53647  0.01079  0.8417199999999999  1.0000
  C   C515      1.0  0.57459  0.02046999999999999  0.8267699999999998  1.0000
  H   H227      1.0  0.5749999999999997  0.0193  0.8060999999999999  1.0000
  C   C516      1.0  0.61285  0.03205  0.84217  1.0000
  H   H228      1.0  0.6381999999999998  0.03909999999999999  0.8316  1.0000
  Cu  Cu25      1.0  0.60332  0.3546199999999999  0.62778  1.0000
  Cu  Cu26      1.0  0.6389399999999997  0.30401  0.6677899999999999  1.0000
  O   O157      1.0  0.65906  0.3527  0.6084499999999999  1.0000
  O   O158      1.0  0.68719  0.30578999999999995  0.64058  1.0000
  O   O159      1.0  0.74648  0.41186999999999996  0.53016  1.0000
  O   O160      1.0  0.8177899999999998  0.39777  0.52948  1.0000
  O   O161      1.0  0.9000099999999998  0.1254  0.8468999999999998  1.0000
  O   O162      1.0  0.8577799999999998  0.15958999999999995  0.81462  1.0000
  O   O163      1.0  0.05279  0.15178  0.8476699999999998  1.0000
  O   O164      1.0  0.08454999999999997  0.18819  0.8108999999999998  1.0000
  O   O165      1.0  0.58745  0.3008199999999999  0.6087699999999999  1.0000
  O   O166      1.0  0.6106  0.25852  0.64523  1.0000
  O   O167      1.0  0.4986699999999999  0.24098999999999995  0.5307  1.0000
  O   O168      1.0  0.4851799999999999  0.1692  0.53066  1.0000
  O   O169      1.0  0.8566899999999997  0.2609599999999999  0.6980899999999999  1.0000
  N   N13       1.0  0.9552299999999998  0.22904999999999995  0.6447199999999998  1.0000
  H   H229      1.0  0.9770999999999997  0.2226  0.6333  1.0000
  C   C517      1.0  0.6890699999999997  0.3294299999999999  0.6183599999999999  1.0000
  C   C518      1.0  0.7312599999999998  0.33123999999999987  0.60195  1.0000
  C   C519      1.0  0.7351499999999997  0.3577599999999999  0.57797  1.0000
  H   H230      1.0  0.7107  0.37319999999999987  0.5711  1.0000
  C   C520      1.0  0.77403  0.3620099999999999  0.56395  1.0000
  C   C521      1.0  0.81017  0.3385999999999999  0.5739299999999999  1.0000
  H   H231      1.0  0.8372  0.3413  0.5643  1.0000
  C   C522      1.0  0.8059899999999998  0.31162  0.59783  1.0000
  C   C523      1.0  0.7668899999999997  0.30814999999999987  0.6115  1.0000
  H   H232      1.0  0.7640999999999998  0.2895999999999999  0.6277999999999999  1.0000
  C   C524      1.0  0.7795199999999998  0.3934699999999999  0.53938  1.0000
  C   C525      1.0  0.84557  0.2880299999999999  0.6094999999999999  1.0000
  C   C526      1.0  0.87835  0.27468  0.5918199999999999  1.0000
  H   H233      1.0  0.8757999999999998  0.2787  0.5714  1.0000
  C   C527      1.0  0.9156499999999997  0.25513  0.60299  1.0000
  H   H234      1.0  0.9379  0.24609999999999996  0.5901999999999998  1.0000
  C   C528      1.0  0.9201399999999997  0.24894999999999995  0.63289  1.0000
  C   C529      1.0  0.8846699999999997  0.26065  0.6512699999999999  1.0000
  C   C530      1.0  0.84872  0.27981  0.63929  1.0000
  H   H235      1.0  0.8254  0.2876  0.6516  1.0000
  C   C531      1.0  0.8859299999999998  0.25178  0.68195  1.0000
  C   C532      1.0  0.92584  0.23098999999999995  0.6930399999999999  1.0000
  C   C533      1.0  0.9578599999999998  0.21892  0.6728999999999999  1.0000
  C   C534      1.0  0.996  0.20013999999999996  0.6854499999999999  1.0000
  H   H236      1.0  0.019999999999999993  0.1947  0.6731  1.0000
  C   C535      1.0  0.9992599999999998  0.19001  0.71355  1.0000
  H   H237      1.0  0.024299999999999992  0.1757  0.7204999999999999  1.0000
  C   C536      1.0  0.96515  0.20054999999999995  0.7331599999999999  1.0000
  C   C537      1.0  0.92978  0.22115  0.72226  1.0000
  H   H238      1.0  0.9070999999999998  0.22899999999999995  0.7351  1.0000
  C   C538      1.0  0.96804  0.18735999999999994  0.76377  1.0000
  C   C539      1.0  0.00789  0.18549  0.77857  1.0000
  H   H239      1.0  0.03349999999999999  0.19379999999999994  0.7687  1.0000
  C   C540      1.0  0.0106  0.17160999999999996  0.8074399999999999  1.0000
  C   C541      1.0  0.97314  0.15909  0.82182  1.0000
  H   H240      1.0  0.9748  0.14879999999999993  0.8411999999999998  1.0000
  C   C542      1.0  0.9336  0.16155  0.8081099999999998  1.0000
  C   C543      1.0  0.93087  0.17586  0.77951  1.0000
  H   H241      1.0  0.9033999999999998  0.17789999999999995  0.7703999999999999  1.0000
  C   C544      1.0  0.05261  0.17054999999999995  0.8230399999999998  1.0000
  C   C545      1.0  0.89399  0.14825  0.8248399999999998  1.0000
  C   C546      1.0  0.59054  0.2653099999999999  0.6220699999999999  1.0000
  C   C547      1.0  0.54866  0.23239999999999994  0.5811999999999999  1.0000
  H   H242      1.0  0.5511999999999998  0.2590999999999999  0.5711  1.0000
  C   C548      1.0  0.5259599999999998  0.19854  0.56899  1.0000
  C   C549      1.0  0.52206  0.15910999999999995  0.5841499999999998  1.0000
  H   H243      1.0  0.5068  0.13569999999999993  0.5756  1.0000
  C   C550      1.0  0.5405499999999999  0.15441  0.6117  1.0000
  C   C551      1.0  0.5644499999999998  0.18858999999999995  0.62308  1.0000
  H   H244      1.0  0.5787  0.18529999999999994  0.6413  1.0000
  C   C552      1.0  0.5676899999999998  0.22706999999999994  0.60825  1.0000
  C   C553      1.0  0.5017  0.20413  0.54087  1.0000
  C   C554      1.0  0.53329  0.11379  0.62796  1.0000
  C   C555      1.0  0.523  0.07585  0.61311  1.0000
  H   H245      1.0  0.5232  0.0759  0.5923999999999999  1.0000
  C   C556      1.0  0.5121299999999999  0.03696  0.6281999999999999  1.0000
  C   C557      1.0  0.51079  0.03647  0.6582799999999999  1.0000
  C   C558      1.0  0.52047  0.07459  0.67323  1.0000
  H   H246      1.0  0.5192999999999998  0.075  0.6938999999999999  1.0000
  C   C559      1.0  0.53205  0.11284999999999998  0.65783  1.0000
  H   H247      1.0  0.5391  0.13819999999999996  0.6684  1.0000
  Cu  Cu27      1.0  0.39668  0.6453799999999998  0.62778  1.0000
  Cu  Cu28      1.0  0.3610599999999999  0.6959899999999998  0.6677899999999999  1.0000
  O   O170      1.0  0.3409399999999999  0.6473  0.6084499999999999  1.0000
  O   O171      1.0  0.31281  0.69421  0.64058  1.0000
  O   O172      1.0  0.25352  0.58813  0.53016  1.0000
  O   O173      1.0  0.18221  0.60223  0.52948  1.0000
  O   O174      1.0  0.09998999999999997  0.8745999999999998  0.8468999999999998  1.0000
  O   O175      1.0  0.14222  0.84041  0.81462  1.0000
  O   O176      1.0  0.9472099999999998  0.8482199999999998  0.8476699999999998  1.0000
  O   O177      1.0  0.91545  0.81181  0.8108999999999998  1.0000
  O   O178      1.0  0.41254999999999986  0.69918  0.6087699999999999  1.0000
  O   O179      1.0  0.3894  0.74148  0.64523  1.0000
  O   O180      1.0  0.50133  0.7590099999999997  0.5307  1.0000
  O   O181      1.0  0.51482  0.8307999999999998  0.53066  1.0000
  O   O182      1.0  0.14331  0.73904  0.6980899999999999  1.0000
  N   N14       1.0  0.04476999999999998  0.77095  0.6447199999999998  1.0000
  H   H248      1.0  0.022899999999999993  0.7774  0.6333  1.0000
  C   C560      1.0  0.31093  0.67057  0.6183599999999999  1.0000
  C   C561      1.0  0.26873999999999987  0.6687599999999998  0.60195  1.0000
  C   C562      1.0  0.26485  0.6422399999999998  0.57797  1.0000
  H   H249      1.0  0.2893  0.6268  0.5711  1.0000
  C   C563      1.0  0.22596999999999995  0.63799  0.56395  1.0000
  C   C564      1.0  0.18982999999999994  0.6614  0.5739299999999999  1.0000
  H   H250      1.0  0.1628  0.6586999999999997  0.5643  1.0000
  C   C565      1.0  0.19400999999999993  0.68838  0.59783  1.0000
  C   C566      1.0  0.23311  0.6918499999999997  0.6115  1.0000
  H   H251      1.0  0.2359  0.7104  0.6277999999999999  1.0000
  C   C567      1.0  0.22047999999999995  0.60653  0.53938  1.0000
  C   C568      1.0  0.15443  0.71197  0.6094999999999999  1.0000
  C   C569      1.0  0.12165  0.72532  0.5918199999999999  1.0000
  H   H252      1.0  0.1242  0.7213  0.5714  1.0000
  C   C570      1.0  0.08434999999999997  0.74487  0.60299  1.0000
  H   H253      1.0  0.0621  0.7538999999999998  0.5901999999999998  1.0000
  C   C571      1.0  0.07985999999999997  0.7510499999999998  0.63289  1.0000
  C   C572      1.0  0.11532999999999997  0.7393499999999997  0.6512699999999999  1.0000
  C   C573      1.0  0.15128  0.72019  0.63929  1.0000
  H   H254      1.0  0.17459999999999995  0.7124  0.6516  1.0000
  C   C574      1.0  0.11407  0.74822  0.68195  1.0000
  C   C575      1.0  0.07415999999999998  0.7690099999999997  0.6930399999999999  1.0000
  C   C576      1.0  0.04214  0.78108  0.6728999999999999  1.0000
  C   C577      1.0  0.004  0.7998599999999998  0.6854499999999999  1.0000
  H   H255      1.0  0.98  0.8053  0.6731  1.0000
  C   C578      1.0  0.0007399999999999998  0.8099899999999998  0.71355  1.0000
  H   H256      1.0  0.9757  0.8242999999999998  0.7204999999999999  1.0000
  C   C579      1.0  0.03485  0.79945  0.7331599999999999  1.0000
  C   C580      1.0  0.07022  0.7788499999999998  0.72226  1.0000
  H   H257      1.0  0.09289999999999997  0.7709999999999998  0.7351  1.0000
  C   C581      1.0  0.031959999999999995  0.81264  0.76377  1.0000
  C   C582      1.0  0.9921099999999998  0.8145099999999997  0.77857  1.0000
  H   H258      1.0  0.9665  0.8061999999999998  0.7687  1.0000
  C   C583      1.0  0.9894  0.8283899999999998  0.8074399999999999  1.0000
  C   C584      1.0  0.02686  0.8409099999999998  0.82182  1.0000
  H   H259      1.0  0.025199999999999993  0.8511999999999997  0.8411999999999998  1.0000
  C   C585      1.0  0.0664  0.83845  0.8081099999999998  1.0000
  C   C586      1.0  0.06913  0.8241399999999998  0.77951  1.0000
  H   H260      1.0  0.09659999999999998  0.8221  0.7703999999999999  1.0000
  C   C587      1.0  0.94739  0.8294499999999998  0.8230399999999998  1.0000
  C   C588      1.0  0.10600999999999998  0.8517499999999998  0.8248399999999998  1.0000
  C   C589      1.0  0.40946  0.7346899999999997  0.6220699999999999  1.0000
  C   C590      1.0  0.45134  0.7675999999999997  0.5811999999999999  1.0000
  H   H261      1.0  0.44879999999999987  0.7409  0.5711  1.0000
  C   C591      1.0  0.4740399999999999  0.8014599999999997  0.56899  1.0000
  C   C592      1.0  0.47794  0.84089  0.5841499999999998  1.0000
  H   H262      1.0  0.4931999999999999  0.8643  0.5756  1.0000
  C   C593      1.0  0.4594499999999999  0.8455899999999997  0.6117  1.0000
  C   C594      1.0  0.43555  0.8114099999999997  0.62308  1.0000
  H   H263      1.0  0.4212999999999999  0.8146999999999998  0.6413  1.0000
  C   C595      1.0  0.43231  0.77293  0.60825  1.0000
  C   C596      1.0  0.4982999999999999  0.79587  0.54087  1.0000
  C   C597      1.0  0.4667099999999999  0.8862099999999998  0.62796  1.0000
  C   C598      1.0  0.4769999999999999  0.9241499999999998  0.61311  1.0000
  H   H264      1.0  0.4767999999999999  0.9241  0.5923999999999999  1.0000
  C   C599      1.0  0.48787  0.96304  0.6281999999999999  1.0000
  C   C600      1.0  0.48920999999999987  0.9635299999999998  0.6582799999999999  1.0000
  C   C601      1.0  0.47953  0.9254099999999997  0.67323  1.0000
  H   H265      1.0  0.4807  0.925  0.6938999999999999  1.0000
  C   C602      1.0  0.46794999999999987  0.8871499999999998  0.65783  1.0000
  H   H266      1.0  0.4609  0.8618  0.6684  1.0000
  Cu  Cu29      1.0  0.3546199999999999  0.39668  0.62778  1.0000
  Cu  Cu30      1.0  0.30401  0.3610599999999999  0.6677899999999999  1.0000
  O   O183      1.0  0.3527  0.3409399999999999  0.6084499999999999  1.0000
  O   O184      1.0  0.30578999999999995  0.31281  0.64058  1.0000
  O   O185      1.0  0.41186999999999996  0.25352  0.53016  1.0000
  O   O186      1.0  0.39777  0.18221  0.52948  1.0000
  O   O187      1.0  0.1254  0.09998999999999997  0.8468999999999998  1.0000
  O   O188      1.0  0.15958999999999995  0.14222  0.81462  1.0000
  O   O189      1.0  0.15178  0.9472099999999998  0.8476699999999998  1.0000
  O   O190      1.0  0.18819  0.91545  0.8108999999999998  1.0000
  O   O191      1.0  0.3008199999999999  0.41254999999999986  0.6087699999999999  1.0000
  O   O192      1.0  0.25852  0.3894  0.64523  1.0000
  O   O193      1.0  0.24098999999999995  0.50133  0.5307  1.0000
  O   O194      1.0  0.1692  0.51482  0.53066  1.0000
  O   O195      1.0  0.2609599999999999  0.14331  0.6980899999999999  1.0000
  N   N15       1.0  0.22904999999999995  0.04476999999999998  0.6447199999999998  1.0000
  H   H267      1.0  0.2226  0.022899999999999993  0.6333  1.0000
  C   C603      1.0  0.3294299999999999  0.31093  0.6183599999999999  1.0000
  C   C604      1.0  0.33123999999999987  0.26873999999999987  0.60195  1.0000
  C   C605      1.0  0.3577599999999999  0.26485  0.57797  1.0000
  H   H268      1.0  0.37319999999999987  0.2893  0.5711  1.0000
  C   C606      1.0  0.3620099999999999  0.22596999999999995  0.56395  1.0000
  C   C607      1.0  0.3385999999999999  0.18982999999999994  0.5739299999999999  1.0000
  H   H269      1.0  0.3413  0.1628  0.5643  1.0000
  C   C608      1.0  0.31162  0.19400999999999993  0.59783  1.0000
  C   C609      1.0  0.30814999999999987  0.23311  0.6115  1.0000
  H   H270      1.0  0.2895999999999999  0.2359  0.6277999999999999  1.0000
  C   C610      1.0  0.3934699999999999  0.22047999999999995  0.53938  1.0000
  C   C611      1.0  0.2880299999999999  0.15443  0.6094999999999999  1.0000
  C   C612      1.0  0.27468  0.12165  0.5918199999999999  1.0000
  H   H271      1.0  0.2787  0.1242  0.5714  1.0000
  C   C613      1.0  0.25513  0.08434999999999997  0.60299  1.0000
  H   H272      1.0  0.24609999999999996  0.0621  0.5901999999999998  1.0000
  C   C614      1.0  0.24894999999999995  0.07985999999999997  0.63289  1.0000
  C   C615      1.0  0.26065  0.11532999999999997  0.6512699999999999  1.0000
  C   C616      1.0  0.27981  0.15128  0.63929  1.0000
  H   H273      1.0  0.2876  0.17459999999999995  0.6516  1.0000
  C   C617      1.0  0.25178  0.11407  0.68195  1.0000
  C   C618      1.0  0.23098999999999995  0.07415999999999998  0.6930399999999999  1.0000
  C   C619      1.0  0.21892  0.04214  0.6728999999999999  1.0000
  C   C620      1.0  0.20013999999999996  0.004  0.6854499999999999  1.0000
  H   H274      1.0  0.1947  0.98  0.6731  1.0000
  C   C621      1.0  0.19001  0.0007399999999999998  0.71355  1.0000
  H   H275      1.0  0.1757  0.9757  0.7204999999999999  1.0000
  C   C622      1.0  0.20054999999999995  0.03485  0.7331599999999999  1.0000
  C   C623      1.0  0.22115  0.07022  0.72226  1.0000
  H   H276      1.0  0.22899999999999995  0.09289999999999997  0.7351  1.0000
  C   C624      1.0  0.18735999999999994  0.031959999999999995  0.76377  1.0000
  C   C625      1.0  0.18549  0.9921099999999998  0.77857  1.0000
  H   H277      1.0  0.19379999999999994  0.9665  0.7687  1.0000
  C   C626      1.0  0.17160999999999996  0.9894  0.8074399999999999  1.0000
  C   C627      1.0  0.15909  0.02686  0.82182  1.0000
  H   H278      1.0  0.14879999999999993  0.025199999999999993  0.8411999999999998  1.0000
  C   C628      1.0  0.16155  0.0664  0.8081099999999998  1.0000
  C   C629      1.0  0.17586  0.06913  0.77951  1.0000
  H   H279      1.0  0.17789999999999995  0.09659999999999998  0.7703999999999999  1.0000
  C   C630      1.0  0.17054999999999995  0.94739  0.8230399999999998  1.0000
  C   C631      1.0  0.14825  0.10600999999999998  0.8248399999999998  1.0000
  C   C632      1.0  0.2653099999999999  0.40946  0.6220699999999999  1.0000
  C   C633      1.0  0.23239999999999994  0.45134  0.5811999999999999  1.0000
  H   H280      1.0  0.2590999999999999  0.44879999999999987  0.5711  1.0000
  C   C634      1.0  0.19854  0.4740399999999999  0.56899  1.0000
  C   C635      1.0  0.15910999999999995  0.47794  0.5841499999999998  1.0000
  H   H281      1.0  0.13569999999999993  0.4931999999999999  0.5756  1.0000
  C   C636      1.0  0.15441  0.4594499999999999  0.6117  1.0000
  C   C637      1.0  0.18858999999999995  0.43555  0.62308  1.0000
  H   H282      1.0  0.18529999999999994  0.4212999999999999  0.6413  1.0000
  C   C638      1.0  0.22706999999999994  0.43231  0.60825  1.0000
  C   C639      1.0  0.20413  0.4982999999999999  0.54087  1.0000
  C   C640      1.0  0.11379  0.4667099999999999  0.62796  1.0000
  C   C641      1.0  0.07585  0.4769999999999999  0.61311  1.0000
  H   H283      1.0  0.0759  0.4767999999999999  0.5923999999999999  1.0000
  C   C642      1.0  0.03696  0.48787  0.6281999999999999  1.0000
  C   C643      1.0  0.03647  0.48920999999999987  0.6582799999999999  1.0000
  C   C644      1.0  0.07459  0.47953  0.67323  1.0000
  H   H284      1.0  0.075  0.4807  0.6938999999999999  1.0000
  C   C645      1.0  0.11284999999999998  0.46794999999999987  0.65783  1.0000
  H   H285      1.0  0.13819999999999996  0.4609  0.6684  1.0000
  Cu  Cu31      1.0  0.6453799999999998  0.60332  0.62778  1.0000
  Cu  Cu32      1.0  0.6959899999999998  0.6389399999999997  0.6677899999999999  1.0000
  O   O196      1.0  0.6473  0.65906  0.6084499999999999  1.0000
  O   O197      1.0  0.69421  0.68719  0.64058  1.0000
  O   O198      1.0  0.58813  0.74648  0.53016  1.0000
  O   O199      1.0  0.60223  0.8177899999999998  0.52948  1.0000
  O   O200      1.0  0.8745999999999998  0.9000099999999998  0.8468999999999998  1.0000
  O   O201      1.0  0.84041  0.8577799999999998  0.81462  1.0000
  O   O202      1.0  0.8482199999999998  0.05279  0.8476699999999998  1.0000
  O   O203      1.0  0.81181  0.08454999999999997  0.8108999999999998  1.0000
  O   O204      1.0  0.69918  0.58745  0.6087699999999999  1.0000
  O   O205      1.0  0.74148  0.6106  0.64523  1.0000
  O   O206      1.0  0.7590099999999997  0.4986699999999999  0.5307  1.0000
  O   O207      1.0  0.8307999999999998  0.4851799999999999  0.53066  1.0000
  O   O208      1.0  0.73904  0.8566899999999997  0.6980899999999999  1.0000
  N   N16       1.0  0.77095  0.9552299999999998  0.6447199999999998  1.0000
  H   H286      1.0  0.7774  0.9770999999999997  0.6333  1.0000
  C   C646      1.0  0.67057  0.6890699999999997  0.6183599999999999  1.0000
  C   C647      1.0  0.6687599999999998  0.7312599999999998  0.60195  1.0000
  C   C648      1.0  0.6422399999999998  0.7351499999999997  0.57797  1.0000
  H   H287      1.0  0.6268  0.7107  0.5711  1.0000
  C   C649      1.0  0.63799  0.77403  0.56395  1.0000
  C   C650      1.0  0.6614  0.81017  0.5739299999999999  1.0000
  H   H288      1.0  0.6586999999999997  0.8372  0.5643  1.0000
  C   C651      1.0  0.68838  0.8059899999999998  0.59783  1.0000
  C   C652      1.0  0.6918499999999997  0.7668899999999997  0.6115  1.0000
  H   H289      1.0  0.7104  0.7640999999999998  0.6277999999999999  1.0000
  C   C653      1.0  0.60653  0.7795199999999998  0.53938  1.0000
  C   C654      1.0  0.71197  0.84557  0.6094999999999999  1.0000
  C   C655      1.0  0.72532  0.87835  0.5918199999999999  1.0000
  H   H290      1.0  0.7213  0.8757999999999998  0.5714  1.0000
  C   C656      1.0  0.74487  0.9156499999999997  0.60299  1.0000
  H   H291      1.0  0.7538999999999998  0.9379  0.5901999999999998  1.0000
  C   C657      1.0  0.7510499999999998  0.9201399999999997  0.63289  1.0000
  C   C658      1.0  0.7393499999999997  0.8846699999999997  0.6512699999999999  1.0000
  C   C659      1.0  0.72019  0.84872  0.63929  1.0000
  H   H292      1.0  0.7124  0.8254  0.6516  1.0000
  C   C660      1.0  0.74822  0.8859299999999998  0.68195  1.0000
  C   C661      1.0  0.7690099999999997  0.92584  0.6930399999999999  1.0000
  C   C662      1.0  0.78108  0.9578599999999998  0.6728999999999999  1.0000
  C   C663      1.0  0.7998599999999998  0.996  0.6854499999999999  1.0000
  H   H293      1.0  0.8053  0.019999999999999993  0.6731  1.0000
  C   C664      1.0  0.8099899999999998  0.9992599999999998  0.71355  1.0000
  H   H294      1.0  0.8242999999999998  0.024299999999999992  0.7204999999999999  1.0000
  C   C665      1.0  0.79945  0.96515  0.7331599999999999  1.0000
  C   C666      1.0  0.7788499999999998  0.92978  0.72226  1.0000
  H   H295      1.0  0.7709999999999998  0.9070999999999998  0.7351  1.0000
  C   C667      1.0  0.81264  0.96804  0.76377  1.0000
  C   C668      1.0  0.8145099999999997  0.00789  0.77857  1.0000
  H   H296      1.0  0.8061999999999998  0.03349999999999999  0.7687  1.0000
  C   C669      1.0  0.8283899999999998  0.0106  0.8074399999999999  1.0000
  C   C670      1.0  0.8409099999999998  0.97314  0.82182  1.0000
  H   H297      1.0  0.8511999999999997  0.9748  0.8411999999999998  1.0000
  C   C671      1.0  0.83845  0.9336  0.8081099999999998  1.0000
  C   C672      1.0  0.8241399999999998  0.93087  0.77951  1.0000
  H   H298      1.0  0.8221  0.9033999999999998  0.7703999999999999  1.0000
  C   C673      1.0  0.8294499999999998  0.05261  0.8230399999999998  1.0000
  C   C674      1.0  0.8517499999999998  0.89399  0.8248399999999998  1.0000
  C   C675      1.0  0.7346899999999997  0.59054  0.6220699999999999  1.0000
  C   C676      1.0  0.7675999999999997  0.54866  0.5811999999999999  1.0000
  H   H299      1.0  0.7409  0.5511999999999998  0.5711  1.0000
  C   C677      1.0  0.8014599999999997  0.5259599999999998  0.56899  1.0000
  C   C678      1.0  0.84089  0.52206  0.5841499999999998  1.0000
  H   H300      1.0  0.8643  0.5068  0.5756  1.0000
  C   C679      1.0  0.8455899999999997  0.5405499999999999  0.6117  1.0000
  C   C680      1.0  0.8114099999999997  0.5644499999999998  0.62308  1.0000
  H   H301      1.0  0.8146999999999998  0.5787  0.6413  1.0000
  C   C681      1.0  0.77293  0.5676899999999998  0.60825  1.0000
  C   C682      1.0  0.79587  0.5017  0.54087  1.0000
  C   C683      1.0  0.8862099999999998  0.53329  0.62796  1.0000
  C   C684      1.0  0.9241499999999998  0.523  0.61311  1.0000
  H   H302      1.0  0.9241  0.5232  0.5923999999999999  1.0000
  C   C685      1.0  0.96304  0.5121299999999999  0.6281999999999999  1.0000
  C   C686      1.0  0.9635299999999998  0.51079  0.6582799999999999  1.0000
  C   C687      1.0  0.9254099999999997  0.52047  0.67323  1.0000
  H   H303      1.0  0.925  0.5192999999999998  0.6938999999999999  1.0000
  C   C688      1.0  0.8871499999999998  0.53205  0.65783  1.0000
  H   H304      1.0  0.8618  0.5391  0.6684  1.0000
  Cu  Cu33      1.0  0.33065  0.059009999999999986  0.0  1.0000
  Cu  Cu34      1.0  0.24603999999999995  0.04364999999999999  0.0  1.0000
  Cu  Cu35      1.0  0.66935  0.9409899999999998  0.0  1.0000
  Cu  Cu36      1.0  0.75396  0.9563499999999998  0.0  1.0000
  Cu  Cu37      1.0  0.9409899999999998  0.33065  0.0  1.0000
  Cu  Cu38      1.0  0.9563499999999998  0.24603999999999995  0.0  1.0000
  Cu  Cu39      1.0  0.059009999999999986  0.66935  0.0  1.0000
  Cu  Cu40      1.0  0.04364999999999999  0.75396  0.0  1.0000
  Cu  Cu41      1.0  0.16935  0.55901  0.4999999999999999  1.0000
  Cu  Cu42      1.0  0.25396  0.54365  0.4999999999999999  1.0000
  Cu  Cu43      1.0  0.8306499999999998  0.4409899999999999  0.4999999999999999  1.0000
  Cu  Cu44      1.0  0.7460399999999999  0.45634999999999987  0.4999999999999999  1.0000
  Cu  Cu45      1.0  0.55901  0.8306499999999998  0.4999999999999999  1.0000
  Cu  Cu46      1.0  0.54365  0.7460399999999999  0.4999999999999999  1.0000
  Cu  Cu47      1.0  0.4409899999999999  0.16935  0.4999999999999999  1.0000
  Cu  Cu48      1.0  0.45634999999999987  0.25396  0.4999999999999999  1.0000
  O   O209      1.0  0.0  0.4999999999999999  0.0848  1.0000
  N   N17       1.0  0.0  0.4999999999999999  0.17218  1.0000
  H   H305      1.0  0.0  0.4999999999999999  0.19129999999999997  1.0000
  C   C689      1.0  0.0  0.4999999999999999  0.11214999999999999  1.0000
  O   O210      1.0  0.4999999999999999  0.0  0.0848  1.0000
  N   N18       1.0  0.4999999999999999  0.0  0.17218  1.0000
  H   H306      1.0  0.4999999999999999  0.0  0.19129999999999997  1.0000
  C   C690      1.0  0.4999999999999999  0.0  0.11214999999999999  1.0000
  O   O211      1.0  0.4999999999999999  0.0  0.4152  1.0000
  N   N19       1.0  0.4999999999999999  0.0  0.32782  1.0000
  H   H307      1.0  0.4999999999999999  0.0  0.3087  1.0000
  C   C691      1.0  0.4999999999999999  0.0  0.38784999999999986  1.0000
  O   O212      1.0  0.0  0.4999999999999999  0.4152  1.0000
  N   N20       1.0  0.0  0.4999999999999999  0.32782  1.0000
  H   H308      1.0  0.0  0.4999999999999999  0.3087  1.0000
  C   C692      1.0  0.0  0.4999999999999999  0.38784999999999986  1.0000
  O   O213      1.0  0.0  0.4999999999999999  0.9152  1.0000
  N   N21       1.0  0.0  0.4999999999999999  0.82782  1.0000
  H   H309      1.0  0.0  0.4999999999999999  0.8087  1.0000
  C   C693      1.0  0.0  0.4999999999999999  0.8878499999999999  1.0000
  O   O214      1.0  0.4999999999999999  0.0  0.9152  1.0000
  N   N22       1.0  0.4999999999999999  0.0  0.82782  1.0000
  H   H310      1.0  0.4999999999999999  0.0  0.8087  1.0000
  C   C694      1.0  0.4999999999999999  0.0  0.8878499999999999  1.0000
  O   O215      1.0  0.4999999999999999  0.0  0.5847999999999999  1.0000
  N   N23       1.0  0.4999999999999999  0.0  0.67218  1.0000
  H   H311      1.0  0.4999999999999999  0.0  0.6913  1.0000
  C   C695      1.0  0.4999999999999999  0.0  0.6121499999999999  1.0000
  O   O216      1.0  0.0  0.4999999999999999  0.5847999999999999  1.0000
  N   N24       1.0  0.0  0.4999999999999999  0.67218  1.0000
  H   H312      1.0  0.0  0.4999999999999999  0.6913  1.0000
  C   C696      1.0  0.0  0.4999999999999999  0.6121499999999999  1.0000
