data_image0
_chemical_formula_structural       N4C4HC2H2CHN4C4HC2H2CHN4C4HC2H2CHN4C4HC2H2CHN4C4HC2H2CHN4C4HC2H2CHN4C4HC2H2CHN4C4HC2H2CHN4C4HC2H2CHN4C4HC2H2CHN4C4HC2H2CHN4C4HC2H2CHN4C4HC2H2CHN4C4HC2H2CHN4C4HC2H2CHN4C4HC2H2CHN4C4HC2H2CHN4C4HC2H2CHN4C4HC2H2CHN4C4HC2H2CHN4C4HC2H2CHN4C4HC2H2CHN4C4HC2H2CHN4C4HC2H2CHN4C4HC2H2CHN4C4HC2H2CHN4C4HC2H2CHN4C4HC2H2CHN4C4HC2H2CHN4C4HC2H2CHN4C4HC2H2CHN4C4HC2H2CHN4C4HC2H2CHN4C4HC2H2CHN4C4HC2H2CHN4C4HC2H2CHN4C4HC2H2CHN4C4HC2H2CHN4C4HC2H2CHN4C4HC2H2CHN4C4HC2H2CHN4C4HC2H2CHN4C4HC2H2CHN4C4HC2H2CHN4C4HC2H2CHN4C4HC2H2CHN4C4HC2H2CHN4C4HC2H2CHN4C4HC2H2CHN4C4HC2H2CHN4C4HC2H2CHN4C4HC2H2CHN4C4HC2H2CHN4C4HC2H2CHN4C4HC2H2CHN4C4HC2H2CHN4C4HC2H2CHN4C4HC2H2CHN4C4HC2H2CHN4C4HC2H2CHN4C4HC2H2CHN4C4HC2H2CHN4C4HC2H2CHN4C4HC2H2CHN4C4HC2H2CHN4C4HC2H2CHN4C4HC2H2CHN4C4HC2H2CHN4C4HC2H2CHN4C4HC2H2CHN4C4HC2H2CHN4C4HC2H2CHN4C4HC2H2CHN4C4HC2H2CHN4C4HC2H2CHN4C4HC2H2CHN4C4HC2H2CHN4C4HC2H2CHN4C4HC2H2CHN4C4HC2H2CHN4C4HC2H2CHN4C4HC2H2CHN4C4HC2H2CHN4C4HC2H2CHN4C4HC2H2CHN4C4HC2H2CHN4C4HC2H2CHN4C4HC2H2CHN4C4HC2H2CHN4C4HC2H2CHN4C4HC2H2CHN4C4HC2H2CHN4C4HC2H2CHN4C4HC2H2CHN4C4HC2H2CHN4C4HC2H2CHMn48Si24
_chemical_formula_sum              "N384 C672 H384 Mn48 Si24"
_cell_length_a       36.7051
_cell_length_b       36.7051
_cell_length_c       36.7051
_cell_angle_alpha    90.0
_cell_angle_beta     90.0
_cell_angle_gamma    90.0

_symmetry_space_group_name_H-M    'P 1'
_symmetry_Int_Tables_number       1

loop_
  _symmetry_equiv_pos_as_xyz
  'x,y,z'

loop_
  _atom_site_type_symbol
  _atom_site_label
  _atom_site_symmetry_multiplicity
  _atom_site_fract_x
  _atom_site_fract_y
  _atom_site_fract_z
  _atom_site_occupancy
  N   N1        1.0  0.5578000000000002  0.4907000000000001  0.5117  1.0000
  N   N2        1.0  0.5794  0.5125  0.5335  1.0000
  N   N3        1.0  0.5782  0.4636  0.4997  1.0000
  N   N4        1.0  0.6138  0.5  0.5363  1.0000
  C   C1        1.0  0.6115  0.4698  0.5152  1.0000
  C   C2        1.0  0.6461  0.4462  0.5105000000000001  1.0000
  C   C3        1.0  0.679  0.45250000000000007  0.5342000000000001  1.0000
  C   C4        1.0  0.6478  0.4226  0.48340000000000005  1.0000
  H   H1        1.0  0.6799  0.4713000000000001  0.5519  1.0000
  C   C5        1.0  0.7074  0.4291  0.5283  1.0000
  C   C6        1.0  0.6763000000000002  0.4018  0.47980000000000006  1.0000
  H   H2        1.0  0.6283000000000001  0.42080000000000006  0.4666  1.0000
  H   H3        1.0  0.7284000000000002  0.4313  0.5431  1.0000
  C   C7        1.0  0.7069000000000002  0.4022  0.5018  1.0000
  H   H4        1.0  0.6761  0.3848000000000001  0.46030000000000004  1.0000
  N   N5        1.0  0.0578  0.9907  0.0117  1.0000
  N   N6        1.0  0.07940000000000001  0.0125  0.0335  1.0000
  N   N7        1.0  0.0782  0.9636  0.9997000000000001  1.0000
  N   N8        1.0  0.11380000000000001  0.0  0.036300000000000006  1.0000
  C   C8        1.0  0.11150000000000002  0.9698  0.015200000000000002  1.0000
  C   C9        1.0  0.1461  0.9462  0.0105  1.0000
  C   C10       1.0  0.179  0.9525  0.03420000000000001  1.0000
  C   C11       1.0  0.1478  0.9226000000000001  0.9834  1.0000
  H   H5        1.0  0.1799  0.9713  0.0519  1.0000
  C   C12       1.0  0.2074  0.9291000000000001  0.0283  1.0000
  C   C13       1.0  0.1763  0.9018  0.9798000000000001  1.0000
  H   H6        1.0  0.1283  0.9208000000000001  0.9666000000000001  1.0000
  H   H7        1.0  0.2284  0.9313  0.0431  1.0000
  C   C14       1.0  0.20690000000000006  0.9022000000000001  0.0018000000000000002  1.0000
  H   H8        1.0  0.1761  0.8848000000000001  0.9603000000000002  1.0000
  N   N9        1.0  0.9422000000000001  0.5093  0.0117  1.0000
  N   N10       1.0  0.9206000000000001  0.4875  0.0335  1.0000
  N   N11       1.0  0.9218000000000001  0.5364000000000002  0.9997000000000001  1.0000
  N   N12       1.0  0.8862  0.5  0.036300000000000006  1.0000
  C   C15       1.0  0.8885000000000001  0.5302000000000002  0.015200000000000002  1.0000
  C   C16       1.0  0.8539000000000001  0.5538  0.0105  1.0000
  C   C17       1.0  0.8210000000000001  0.5475  0.03420000000000001  1.0000
  C   C18       1.0  0.8522000000000002  0.5774  0.9834  1.0000
  H   H9        1.0  0.8201000000000003  0.5287  0.0519  1.0000
  C   C19       1.0  0.7926000000000002  0.5709000000000001  0.0283  1.0000
  C   C20       1.0  0.8237  0.5982  0.9798000000000001  1.0000
  H   H10       1.0  0.8717  0.5792000000000002  0.9666000000000001  1.0000
  H   H11       1.0  0.7716  0.5687  0.0431  1.0000
  C   C21       1.0  0.7931  0.5978  0.0018000000000000002  1.0000
  H   H12       1.0  0.8239000000000002  0.6152000000000002  0.9603000000000002  1.0000
  N   N13       1.0  0.44220000000000004  0.0093  0.5117  1.0000
  N   N14       1.0  0.4206  0.9875000000000002  0.5335  1.0000
  N   N15       1.0  0.4218  0.0364  0.4997  1.0000
  N   N16       1.0  0.3862  0.0  0.5363  1.0000
  C   C22       1.0  0.3885  0.030200000000000005  0.5152  1.0000
  C   C23       1.0  0.35390000000000005  0.05380000000000001  0.5105000000000001  1.0000
  C   C24       1.0  0.32100000000000006  0.0475  0.5342000000000001  1.0000
  C   C25       1.0  0.3522  0.0774  0.48340000000000005  1.0000
  H   H13       1.0  0.3201  0.0287  0.5519  1.0000
  C   C26       1.0  0.29260000000000014  0.0709  0.5283  1.0000
  C   C27       1.0  0.32370000000000004  0.09820000000000002  0.47980000000000006  1.0000
  H   H14       1.0  0.3717  0.07920000000000002  0.4666  1.0000
  H   H15       1.0  0.2716000000000001  0.0687  0.5431  1.0000
  C   C28       1.0  0.2931  0.0978  0.5018  1.0000
  H   H16       1.0  0.3239  0.11520000000000001  0.46030000000000004  1.0000
  N   N17       1.0  0.44220000000000004  0.9907  0.9883  1.0000
  N   N18       1.0  0.4206  0.0125  0.9665000000000001  1.0000
  N   N19       1.0  0.4218  0.9636  0.0003000000000000001  1.0000
  N   N20       1.0  0.3862  0.0  0.9637  1.0000
  C   C29       1.0  0.3885  0.9698  0.9848000000000001  1.0000
  C   C30       1.0  0.35390000000000005  0.9462  0.9895  1.0000
  C   C31       1.0  0.32100000000000006  0.9525  0.9658000000000001  1.0000
  C   C32       1.0  0.3522  0.9226000000000001  0.0166  1.0000
  H   H17       1.0  0.3201  0.9713  0.9481000000000002  1.0000
  C   C33       1.0  0.29260000000000014  0.9291000000000001  0.9717  1.0000
  C   C34       1.0  0.32370000000000004  0.9018  0.0202  1.0000
  H   H18       1.0  0.3717  0.9208000000000001  0.0334  1.0000
  H   H19       1.0  0.2716000000000001  0.9313  0.9569  1.0000
  C   C35       1.0  0.2931  0.9022000000000001  0.9982000000000001  1.0000
  H   H20       1.0  0.3239  0.8848000000000001  0.039700000000000006  1.0000
  N   N21       1.0  0.9422000000000001  0.4907000000000001  0.4883  1.0000
  N   N22       1.0  0.9206000000000001  0.5125  0.4665  1.0000
  N   N23       1.0  0.9218000000000001  0.4636  0.5003  1.0000
  N   N24       1.0  0.8862  0.5  0.46370000000000006  1.0000
  C   C36       1.0  0.8885000000000001  0.4698  0.4848  1.0000
  C   C37       1.0  0.8539000000000001  0.4462  0.48950000000000005  1.0000
  C   C38       1.0  0.8210000000000001  0.45250000000000007  0.4658  1.0000
  C   C39       1.0  0.8522000000000002  0.4226  0.5166000000000001  1.0000
  H   H21       1.0  0.8201000000000003  0.4713000000000001  0.44810000000000005  1.0000
  C   C40       1.0  0.7926000000000002  0.4291  0.4717000000000001  1.0000
  C   C41       1.0  0.8237  0.4018  0.5202  1.0000
  H   H22       1.0  0.8717  0.42080000000000006  0.5334000000000001  1.0000
  H   H23       1.0  0.7716  0.4313  0.45690000000000003  1.0000
  C   C42       1.0  0.7931  0.4022  0.49820000000000003  1.0000
  H   H24       1.0  0.8239000000000002  0.3848000000000001  0.5397  1.0000
  N   N25       1.0  0.0578  0.0093  0.4883  1.0000
  N   N26       1.0  0.07940000000000001  0.9875000000000002  0.4665  1.0000
  N   N27       1.0  0.0782  0.0364  0.5003  1.0000
  N   N28       1.0  0.11380000000000001  0.0  0.46370000000000006  1.0000
  C   C43       1.0  0.11150000000000002  0.030200000000000005  0.4848  1.0000
  C   C44       1.0  0.1461  0.05380000000000001  0.48950000000000005  1.0000
  C   C45       1.0  0.179  0.0475  0.4658  1.0000
  C   C46       1.0  0.1478  0.0774  0.5166000000000001  1.0000
  H   H25       1.0  0.1799  0.0287  0.44810000000000005  1.0000
  C   C47       1.0  0.2074  0.0709  0.4717000000000001  1.0000
  C   C48       1.0  0.1763  0.09820000000000002  0.5202  1.0000
  H   H26       1.0  0.1283  0.07920000000000002  0.5334000000000001  1.0000
  H   H27       1.0  0.2284  0.0687  0.45690000000000003  1.0000
  C   C49       1.0  0.20690000000000006  0.0978  0.49820000000000003  1.0000
  H   H28       1.0  0.1761  0.11520000000000001  0.5397  1.0000
  N   N29       1.0  0.5578000000000002  0.5093  0.9883  1.0000
  N   N30       1.0  0.5794  0.4875  0.9665000000000001  1.0000
  N   N31       1.0  0.5782  0.5364000000000002  0.0003000000000000001  1.0000
  N   N32       1.0  0.6138  0.5  0.9637  1.0000
  C   C50       1.0  0.6115  0.5302000000000002  0.9848000000000001  1.0000
  C   C51       1.0  0.6461  0.5538  0.9895  1.0000
  C   C52       1.0  0.679  0.5475  0.9658000000000001  1.0000
  C   C53       1.0  0.6478  0.5774  0.0166  1.0000
  H   H29       1.0  0.6799  0.5287  0.9481000000000002  1.0000
  C   C54       1.0  0.7074  0.5709000000000001  0.9717  1.0000
  C   C55       1.0  0.6763000000000002  0.5982  0.0202  1.0000
  H   H30       1.0  0.6283000000000001  0.5792000000000002  0.0334  1.0000
  H   H31       1.0  0.7284000000000002  0.5687  0.9569  1.0000
  C   C56       1.0  0.7069000000000002  0.5978  0.9982000000000001  1.0000
  H   H32       1.0  0.6761  0.6152000000000002  0.039700000000000006  1.0000
  N   N33       1.0  0.5117  0.5578000000000002  0.4907000000000001  1.0000
  N   N34       1.0  0.5335  0.5794  0.5125  1.0000
  N   N35       1.0  0.4997  0.5782  0.4636  1.0000
  N   N36       1.0  0.5363  0.6138  0.5  1.0000
  C   C57       1.0  0.5152  0.6115  0.4698  1.0000
  C   C58       1.0  0.5105000000000001  0.6461  0.4462  1.0000
  C   C59       1.0  0.5342000000000001  0.679  0.45250000000000007  1.0000
  C   C60       1.0  0.48340000000000005  0.6478  0.4226  1.0000
  H   H33       1.0  0.5519  0.6799  0.4713000000000001  1.0000
  C   C61       1.0  0.5283  0.7074  0.4291  1.0000
  C   C62       1.0  0.47980000000000006  0.6763000000000002  0.4018  1.0000
  H   H34       1.0  0.4666  0.6283000000000001  0.42080000000000006  1.0000
  H   H35       1.0  0.5431  0.7284000000000002  0.4313  1.0000
  C   C63       1.0  0.5018  0.7069000000000002  0.4022  1.0000
  H   H36       1.0  0.46030000000000004  0.6761  0.3848000000000001  1.0000
  N   N37       1.0  0.0117  0.0578  0.9907  1.0000
  N   N38       1.0  0.0335  0.07940000000000001  0.0125  1.0000
  N   N39       1.0  0.9997000000000001  0.0782  0.9636  1.0000
  N   N40       1.0  0.036300000000000006  0.11380000000000001  0.0  1.0000
  C   C64       1.0  0.015200000000000002  0.11150000000000002  0.9698  1.0000
  C   C65       1.0  0.0105  0.1461  0.9462  1.0000
  C   C66       1.0  0.03420000000000001  0.179  0.9525  1.0000
  C   C67       1.0  0.9834  0.1478  0.9226000000000001  1.0000
  H   H37       1.0  0.0519  0.1799  0.9713  1.0000
  C   C68       1.0  0.0283  0.2074  0.9291000000000001  1.0000
  C   C69       1.0  0.9798000000000001  0.1763  0.9018  1.0000
  H   H38       1.0  0.9666000000000001  0.1283  0.9208000000000001  1.0000
  H   H39       1.0  0.0431  0.2284  0.9313  1.0000
  C   C70       1.0  0.0018000000000000002  0.20690000000000006  0.9022000000000001  1.0000
  H   H40       1.0  0.9603000000000002  0.1761  0.8848000000000001  1.0000
  N   N41       1.0  0.0117  0.9422000000000001  0.5093  1.0000
  N   N42       1.0  0.0335  0.9206000000000001  0.4875  1.0000
  N   N43       1.0  0.9997000000000001  0.9218000000000001  0.5364000000000002  1.0000
  N   N44       1.0  0.036300000000000006  0.8862  0.5  1.0000
  C   C71       1.0  0.015200000000000002  0.8885000000000001  0.5302000000000002  1.0000
  C   C72       1.0  0.0105  0.8539000000000001  0.5538  1.0000
  C   C73       1.0  0.03420000000000001  0.8210000000000001  0.5475  1.0000
  C   C74       1.0  0.9834  0.8522000000000002  0.5774  1.0000
  H   H41       1.0  0.0519  0.8201000000000003  0.5287  1.0000
  C   C75       1.0  0.0283  0.7926000000000002  0.5709000000000001  1.0000
  C   C76       1.0  0.9798000000000001  0.8237  0.5982  1.0000
  H   H42       1.0  0.9666000000000001  0.8717  0.5792000000000002  1.0000
  H   H43       1.0  0.0431  0.7716  0.5687  1.0000
  C   C77       1.0  0.0018000000000000002  0.7931  0.5978  1.0000
  H   H44       1.0  0.9603000000000002  0.8239000000000002  0.6152000000000002  1.0000
  N   N45       1.0  0.5117  0.44220000000000004  0.0093  1.0000
  N   N46       1.0  0.5335  0.4206  0.9875000000000002  1.0000
  N   N47       1.0  0.4997  0.4218  0.0364  1.0000
  N   N48       1.0  0.5363  0.3862  0.0  1.0000
  C   C78       1.0  0.5152  0.3885  0.030200000000000005  1.0000
  C   C79       1.0  0.5105000000000001  0.35390000000000005  0.05380000000000001  1.0000
  C   C80       1.0  0.5342000000000001  0.32100000000000006  0.0475  1.0000
  C   C81       1.0  0.48340000000000005  0.3522  0.0774  1.0000
  H   H45       1.0  0.5519  0.3201  0.0287  1.0000
  C   C82       1.0  0.5283  0.29260000000000014  0.0709  1.0000
  C   C83       1.0  0.47980000000000006  0.32370000000000004  0.09820000000000002  1.0000
  H   H46       1.0  0.4666  0.3717  0.07920000000000002  1.0000
  H   H47       1.0  0.5431  0.2716000000000001  0.0687  1.0000
  C   C84       1.0  0.5018  0.2931  0.0978  1.0000
  H   H48       1.0  0.46030000000000004  0.3239  0.11520000000000001  1.0000
  N   N49       1.0  0.9883  0.44220000000000004  0.9907  1.0000
  N   N50       1.0  0.9665000000000001  0.4206  0.0125  1.0000
  N   N51       1.0  0.0003000000000000001  0.4218  0.9636  1.0000
  N   N52       1.0  0.9637  0.3862  0.0  1.0000
  C   C85       1.0  0.9848000000000001  0.3885  0.9698  1.0000
  C   C86       1.0  0.9895  0.35390000000000005  0.9462  1.0000
  C   C87       1.0  0.9658000000000001  0.32100000000000006  0.9525  1.0000
  C   C88       1.0  0.0166  0.3522  0.9226000000000001  1.0000
  H   H49       1.0  0.9481000000000002  0.3201  0.9713  1.0000
  C   C89       1.0  0.9717  0.29260000000000014  0.9291000000000001  1.0000
  C   C90       1.0  0.0202  0.32370000000000004  0.9018  1.0000
  H   H50       1.0  0.0334  0.3717  0.9208000000000001  1.0000
  H   H51       1.0  0.9569  0.2716000000000001  0.9313  1.0000
  C   C91       1.0  0.9982000000000001  0.2931  0.9022000000000001  1.0000
  H   H52       1.0  0.039700000000000006  0.3239  0.8848000000000001  1.0000
  N   N53       1.0  0.4883  0.9422000000000001  0.4907000000000001  1.0000
  N   N54       1.0  0.4665  0.9206000000000001  0.5125  1.0000
  N   N55       1.0  0.5003  0.9218000000000001  0.4636  1.0000
  N   N56       1.0  0.46370000000000006  0.8862  0.5  1.0000
  C   C92       1.0  0.4848  0.8885000000000001  0.4698  1.0000
  C   C93       1.0  0.48950000000000005  0.8539000000000001  0.4462  1.0000
  C   C94       1.0  0.4658  0.8210000000000001  0.45250000000000007  1.0000
  C   C95       1.0  0.5166000000000001  0.8522000000000002  0.4226  1.0000
  H   H53       1.0  0.44810000000000005  0.8201000000000003  0.4713000000000001  1.0000
  C   C96       1.0  0.4717000000000001  0.7926000000000002  0.4291  1.0000
  C   C97       1.0  0.5202  0.8237  0.4018  1.0000
  H   H54       1.0  0.5334000000000001  0.8717  0.42080000000000006  1.0000
  H   H55       1.0  0.45690000000000003  0.7716  0.4313  1.0000
  C   C98       1.0  0.49820000000000003  0.7931  0.4022  1.0000
  H   H56       1.0  0.5397  0.8239000000000002  0.3848000000000001  1.0000
  N   N57       1.0  0.4883  0.0578  0.0093  1.0000
  N   N58       1.0  0.4665  0.07940000000000001  0.9875000000000002  1.0000
  N   N59       1.0  0.5003  0.0782  0.0364  1.0000
  N   N60       1.0  0.46370000000000006  0.11380000000000001  0.0  1.0000
  C   C99       1.0  0.4848  0.11150000000000002  0.030200000000000005  1.0000
  C   C100      1.0  0.48950000000000005  0.1461  0.05380000000000001  1.0000
  C   C101      1.0  0.4658  0.179  0.0475  1.0000
  C   C102      1.0  0.5166000000000001  0.1478  0.0774  1.0000
  H   H57       1.0  0.44810000000000005  0.1799  0.0287  1.0000
  C   C103      1.0  0.4717000000000001  0.2074  0.0709  1.0000
  C   C104      1.0  0.5202  0.1763  0.09820000000000002  1.0000
  H   H58       1.0  0.5334000000000001  0.1283  0.07920000000000002  1.0000
  H   H59       1.0  0.45690000000000003  0.2284  0.0687  1.0000
  C   C105      1.0  0.49820000000000003  0.20690000000000006  0.0978  1.0000
  H   H60       1.0  0.5397  0.1761  0.11520000000000001  1.0000
  N   N61       1.0  0.9883  0.5578000000000002  0.5093  1.0000
  N   N62       1.0  0.9665000000000001  0.5794  0.4875  1.0000
  N   N63       1.0  0.0003000000000000001  0.5782  0.5364000000000002  1.0000
  N   N64       1.0  0.9637  0.6138  0.5  1.0000
  C   C106      1.0  0.9848000000000001  0.6115  0.5302000000000002  1.0000
  C   C107      1.0  0.9895  0.6461  0.5538  1.0000
  C   C108      1.0  0.9658000000000001  0.679  0.5475  1.0000
  C   C109      1.0  0.0166  0.6478  0.5774  1.0000
  H   H61       1.0  0.9481000000000002  0.6799  0.5287  1.0000
  C   C110      1.0  0.9717  0.7074  0.5709000000000001  1.0000
  C   C111      1.0  0.0202  0.6763000000000002  0.5982  1.0000
  H   H62       1.0  0.0334  0.6283000000000001  0.5792000000000002  1.0000
  H   H63       1.0  0.9569  0.7284000000000002  0.5687  1.0000
  C   C112      1.0  0.9982000000000001  0.7069000000000002  0.5978  1.0000
  H   H64       1.0  0.039700000000000006  0.6761  0.6152000000000002  1.0000
  N   N65       1.0  0.4907000000000001  0.5117  0.5578000000000002  1.0000
  N   N66       1.0  0.5125  0.5335  0.5794  1.0000
  N   N67       1.0  0.4636  0.4997  0.5782  1.0000
  N   N68       1.0  0.5  0.5363  0.6138  1.0000
  C   C113      1.0  0.4698  0.5152  0.6115  1.0000
  C   C114      1.0  0.4462  0.5105000000000001  0.6461  1.0000
  C   C115      1.0  0.45250000000000007  0.5342000000000001  0.679  1.0000
  C   C116      1.0  0.4226  0.48340000000000005  0.6478  1.0000
  H   H65       1.0  0.4713000000000001  0.5519  0.6799  1.0000
  C   C117      1.0  0.4291  0.5283  0.7074  1.0000
  C   C118      1.0  0.4018  0.47980000000000006  0.6763000000000002  1.0000
  H   H66       1.0  0.42080000000000006  0.4666  0.6283000000000001  1.0000
  H   H67       1.0  0.4313  0.5431  0.7284000000000002  1.0000
  C   C119      1.0  0.4022  0.5018  0.7069000000000002  1.0000
  H   H68       1.0  0.3848000000000001  0.46030000000000004  0.6761  1.0000
  N   N69       1.0  0.9907  0.0117  0.0578  1.0000
  N   N70       1.0  0.0125  0.0335  0.07940000000000001  1.0000
  N   N71       1.0  0.9636  0.9997000000000001  0.0782  1.0000
  N   N72       1.0  0.0  0.036300000000000006  0.11380000000000001  1.0000
  C   C120      1.0  0.9698  0.015200000000000002  0.11150000000000002  1.0000
  C   C121      1.0  0.9462  0.0105  0.1461  1.0000
  C   C122      1.0  0.9525  0.03420000000000001  0.179  1.0000
  C   C123      1.0  0.9226000000000001  0.9834  0.1478  1.0000
  H   H69       1.0  0.9713  0.0519  0.1799  1.0000
  C   C124      1.0  0.9291000000000001  0.0283  0.2074  1.0000
  C   C125      1.0  0.9018  0.9798000000000001  0.1763  1.0000
  H   H70       1.0  0.9208000000000001  0.9666000000000001  0.1283  1.0000
  H   H71       1.0  0.9313  0.0431  0.2284  1.0000
  C   C126      1.0  0.9022000000000001  0.0018000000000000002  0.20690000000000006  1.0000
  H   H72       1.0  0.8848000000000001  0.9603000000000002  0.1761  1.0000
  N   N73       1.0  0.5093  0.0117  0.9422000000000001  1.0000
  N   N74       1.0  0.4875  0.0335  0.9206000000000001  1.0000
  N   N75       1.0  0.5364000000000002  0.9997000000000001  0.9218000000000001  1.0000
  N   N76       1.0  0.5  0.036300000000000006  0.8862  1.0000
  C   C127      1.0  0.5302000000000002  0.015200000000000002  0.8885000000000001  1.0000
  C   C128      1.0  0.5538  0.0105  0.8539000000000001  1.0000
  C   C129      1.0  0.5475  0.03420000000000001  0.8210000000000001  1.0000
  C   C130      1.0  0.5774  0.9834  0.8522000000000002  1.0000
  H   H73       1.0  0.5287  0.0519  0.8201000000000003  1.0000
  C   C131      1.0  0.5709000000000001  0.0283  0.7926000000000002  1.0000
  C   C132      1.0  0.5982  0.9798000000000001  0.8237  1.0000
  H   H74       1.0  0.5792000000000002  0.9666000000000001  0.8717  1.0000
  H   H75       1.0  0.5687  0.0431  0.7716  1.0000
  C   C133      1.0  0.5978  0.0018000000000000002  0.7931  1.0000
  H   H76       1.0  0.6152000000000002  0.9603000000000002  0.8239000000000002  1.0000
  N   N77       1.0  0.0093  0.5117  0.44220000000000004  1.0000
  N   N78       1.0  0.9875000000000002  0.5335  0.4206  1.0000
  N   N79       1.0  0.0364  0.4997  0.4218  1.0000
  N   N80       1.0  0.0  0.5363  0.3862  1.0000
  C   C134      1.0  0.030200000000000005  0.5152  0.3885  1.0000
  C   C135      1.0  0.05380000000000001  0.5105000000000001  0.35390000000000005  1.0000
  C   C136      1.0  0.0475  0.5342000000000001  0.32100000000000006  1.0000
  C   C137      1.0  0.0774  0.48340000000000005  0.3522  1.0000
  H   H77       1.0  0.0287  0.5519  0.3201  1.0000
  C   C138      1.0  0.0709  0.5283  0.29260000000000014  1.0000
  C   C139      1.0  0.09820000000000002  0.47980000000000006  0.32370000000000004  1.0000
  H   H78       1.0  0.07920000000000002  0.4666  0.3717  1.0000
  H   H79       1.0  0.0687  0.5431  0.2716000000000001  1.0000
  C   C140      1.0  0.0978  0.5018  0.2931  1.0000
  H   H80       1.0  0.11520000000000001  0.46030000000000004  0.3239  1.0000
  N   N81       1.0  0.9907  0.9883  0.44220000000000004  1.0000
  N   N82       1.0  0.0125  0.9665000000000001  0.4206  1.0000
  N   N83       1.0  0.9636  0.0003000000000000001  0.4218  1.0000
  N   N84       1.0  0.0  0.9637  0.3862  1.0000
  C   C141      1.0  0.9698  0.9848000000000001  0.3885  1.0000
  C   C142      1.0  0.9462  0.9895  0.35390000000000005  1.0000
  C   C143      1.0  0.9525  0.9658000000000001  0.32100000000000006  1.0000
  C   C144      1.0  0.9226000000000001  0.0166  0.3522  1.0000
  H   H81       1.0  0.9713  0.9481000000000002  0.3201  1.0000
  C   C145      1.0  0.9291000000000001  0.9717  0.29260000000000014  1.0000
  C   C146      1.0  0.9018  0.0202  0.32370000000000004  1.0000
  H   H82       1.0  0.9208000000000001  0.0334  0.3717  1.0000
  H   H83       1.0  0.9313  0.9569  0.2716000000000001  1.0000
  C   C147      1.0  0.9022000000000001  0.9982000000000001  0.2931  1.0000
  H   H84       1.0  0.8848000000000001  0.039700000000000006  0.3239  1.0000
  N   N85       1.0  0.4907000000000001  0.4883  0.9422000000000001  1.0000
  N   N86       1.0  0.5125  0.4665  0.9206000000000001  1.0000
  N   N87       1.0  0.4636  0.5003  0.9218000000000001  1.0000
  N   N88       1.0  0.5  0.46370000000000006  0.8862  1.0000
  C   C148      1.0  0.4698  0.4848  0.8885000000000001  1.0000
  C   C149      1.0  0.4462  0.48950000000000005  0.8539000000000001  1.0000
  C   C150      1.0  0.45250000000000007  0.4658  0.8210000000000001  1.0000
  C   C151      1.0  0.4226  0.5166000000000001  0.8522000000000002  1.0000
  H   H85       1.0  0.4713000000000001  0.44810000000000005  0.8201000000000003  1.0000
  C   C152      1.0  0.4291  0.4717000000000001  0.7926000000000002  1.0000
  C   C153      1.0  0.4018  0.5202  0.8237  1.0000
  H   H86       1.0  0.42080000000000006  0.5334000000000001  0.8717  1.0000
  H   H87       1.0  0.4313  0.45690000000000003  0.7716  1.0000
  C   C154      1.0  0.4022  0.49820000000000003  0.7931  1.0000
  H   H88       1.0  0.3848000000000001  0.5397  0.8239000000000002  1.0000
  N   N89       1.0  0.0093  0.4883  0.0578  1.0000
  N   N90       1.0  0.9875000000000002  0.4665  0.07940000000000001  1.0000
  N   N91       1.0  0.0364  0.5003  0.0782  1.0000
  N   N92       1.0  0.0  0.46370000000000006  0.11380000000000001  1.0000
  C   C155      1.0  0.030200000000000005  0.4848  0.11150000000000002  1.0000
  C   C156      1.0  0.05380000000000001  0.48950000000000005  0.1461  1.0000
  C   C157      1.0  0.0475  0.4658  0.179  1.0000
  C   C158      1.0  0.0774  0.5166000000000001  0.1478  1.0000
  H   H89       1.0  0.0287  0.44810000000000005  0.1799  1.0000
  C   C159      1.0  0.0709  0.4717000000000001  0.2074  1.0000
  C   C160      1.0  0.09820000000000002  0.5202  0.1763  1.0000
  H   H90       1.0  0.07920000000000002  0.5334000000000001  0.1283  1.0000
  H   H91       1.0  0.0687  0.45690000000000003  0.2284  1.0000
  C   C161      1.0  0.0978  0.49820000000000003  0.20690000000000006  1.0000
  H   H92       1.0  0.11520000000000001  0.5397  0.1761  1.0000
  N   N93       1.0  0.5093  0.9883  0.5578000000000002  1.0000
  N   N94       1.0  0.4875  0.9665000000000001  0.5794  1.0000
  N   N95       1.0  0.5364000000000002  0.0003000000000000001  0.5782  1.0000
  N   N96       1.0  0.5  0.9637  0.6138  1.0000
  C   C162      1.0  0.5302000000000002  0.9848000000000001  0.6115  1.0000
  C   C163      1.0  0.5538  0.9895  0.6461  1.0000
  C   C164      1.0  0.5475  0.9658000000000001  0.679  1.0000
  C   C165      1.0  0.5774  0.0166  0.6478  1.0000
  H   H93       1.0  0.5287  0.9481000000000002  0.6799  1.0000
  C   C166      1.0  0.5709000000000001  0.9717  0.7074  1.0000
  C   C167      1.0  0.5982  0.0202  0.6763000000000002  1.0000
  H   H94       1.0  0.5792000000000002  0.0334  0.6283000000000001  1.0000
  H   H95       1.0  0.5687  0.9569  0.7284000000000002  1.0000
  C   C168      1.0  0.5978  0.9982000000000001  0.7069000000000002  1.0000
  H   H96       1.0  0.6152000000000002  0.039700000000000006  0.6761  1.0000
  N   N97       1.0  0.2407  0.8078000000000002  0.7383000000000002  1.0000
  N   N98       1.0  0.26250000000000007  0.8294000000000001  0.7165  1.0000
  N   N99       1.0  0.21360000000000007  0.8282  0.7503  1.0000
  N   N100      1.0  0.25  0.8638000000000001  0.7137000000000002  1.0000
  C   C169      1.0  0.21980000000000005  0.8615000000000002  0.7348  1.0000
  C   C170      1.0  0.19620000000000007  0.8961000000000001  0.7395  1.0000
  C   C171      1.0  0.20250000000000007  0.9290000000000002  0.7158  1.0000
  C   C172      1.0  0.1726  0.8978000000000002  0.7666000000000002  1.0000
  H   H97       1.0  0.22130000000000002  0.9299  0.6981  1.0000
  C   C173      1.0  0.1791  0.9574  0.7217  1.0000
  C   C174      1.0  0.1518  0.9263  0.7702  1.0000
  H   H98       1.0  0.17080000000000006  0.8783000000000001  0.7834000000000002  1.0000
  H   H99       1.0  0.18130000000000004  0.9784  0.7069000000000002  1.0000
  C   C175      1.0  0.1522  0.9569  0.7482000000000002  1.0000
  H   H100      1.0  0.1348  0.9261  0.7897000000000001  1.0000
  N   N101      1.0  0.7407000000000001  0.3078  0.2383  1.0000
  N   N102      1.0  0.7625  0.3294000000000001  0.21650000000000005  1.0000
  N   N103      1.0  0.7136  0.3282000000000001  0.2503  1.0000
  N   N104      1.0  0.75  0.3638000000000001  0.2137  1.0000
  C   C176      1.0  0.7198  0.3615000000000001  0.2348  1.0000
  C   C177      1.0  0.6962000000000003  0.3961  0.23950000000000002  1.0000
  C   C178      1.0  0.7025  0.429  0.2158  1.0000
  C   C179      1.0  0.6726000000000001  0.3978000000000001  0.2666  1.0000
  H   H101      1.0  0.7213000000000003  0.4299000000000001  0.1981  1.0000
  C   C180      1.0  0.6791  0.45740000000000003  0.22170000000000006  1.0000
  C   C181      1.0  0.6518000000000003  0.4263  0.2702  1.0000
  H   H102      1.0  0.6708  0.37830000000000014  0.2834  1.0000
  H   H103      1.0  0.6813  0.4784  0.20690000000000006  1.0000
  C   C182      1.0  0.6522  0.45690000000000003  0.24820000000000003  1.0000
  H   H104      1.0  0.6348  0.4261000000000001  0.2897  1.0000
  N   N105      1.0  0.2593  0.19220000000000007  0.2383  1.0000
  N   N106      1.0  0.2375  0.17060000000000006  0.21650000000000005  1.0000
  N   N107      1.0  0.2864  0.1718  0.2503  1.0000
  N   N108      1.0  0.25  0.13620000000000004  0.2137  1.0000
  C   C183      1.0  0.2802  0.13850000000000004  0.2348  1.0000
  C   C184      1.0  0.30380000000000007  0.1039  0.23950000000000002  1.0000
  C   C185      1.0  0.2975  0.071  0.2158  1.0000
  C   C186      1.0  0.32740000000000014  0.1022  0.2666  1.0000
  H   H105      1.0  0.2787  0.0701  0.1981  1.0000
  C   C187      1.0  0.32090000000000013  0.04260000000000001  0.22170000000000006  1.0000
  C   C188      1.0  0.3482  0.0737  0.2702  1.0000
  H   H106      1.0  0.3292  0.12170000000000002  0.2834  1.0000
  H   H107      1.0  0.3187000000000001  0.0216  0.20690000000000006  1.0000
  C   C189      1.0  0.34780000000000005  0.0431  0.24820000000000003  1.0000
  H   H108      1.0  0.3652  0.0739  0.2897  1.0000
  N   N109      1.0  0.7593  0.6922  0.7383000000000002  1.0000
  N   N110      1.0  0.7375000000000003  0.6706  0.7165  1.0000
  N   N111      1.0  0.7864000000000002  0.6718000000000002  0.7503  1.0000
  N   N112      1.0  0.75  0.6362  0.7137000000000002  1.0000
  C   C190      1.0  0.7802000000000002  0.6385  0.7348  1.0000
  C   C191      1.0  0.8038  0.6039  0.7395  1.0000
  C   C192      1.0  0.7975  0.571  0.7158  1.0000
  C   C193      1.0  0.8274  0.6022000000000002  0.7666000000000002  1.0000
  H   H109      1.0  0.7787  0.5701000000000002  0.6981  1.0000
  C   C194      1.0  0.8209000000000002  0.5426000000000001  0.7217  1.0000
  C   C195      1.0  0.8482  0.5737  0.7702  1.0000
  H   H110      1.0  0.8292000000000003  0.6217  0.7834000000000002  1.0000
  H   H111      1.0  0.8187000000000001  0.5216  0.7069000000000002  1.0000
  C   C196      1.0  0.8478000000000001  0.5431  0.7482000000000002  1.0000
  H   H112      1.0  0.8652000000000002  0.5739000000000002  0.7897000000000001  1.0000
  N   N113      1.0  0.7407000000000001  0.6922  0.2617000000000001  1.0000
  N   N114      1.0  0.7625  0.6706  0.2835000000000001  1.0000
  N   N115      1.0  0.7136  0.6718000000000002  0.24970000000000003  1.0000
  N   N116      1.0  0.75  0.6362  0.2863  1.0000
  C   C197      1.0  0.7198  0.6385  0.26520000000000005  1.0000
  C   C198      1.0  0.6962000000000003  0.6039  0.2605  1.0000
  C   C199      1.0  0.7025  0.571  0.2842  1.0000
  C   C200      1.0  0.6726000000000001  0.6022000000000002  0.23340000000000002  1.0000
  H   H113      1.0  0.7213000000000003  0.5701000000000002  0.30190000000000006  1.0000
  C   C201      1.0  0.6791  0.5426000000000001  0.2783  1.0000
  C   C202      1.0  0.6518000000000003  0.5737  0.2298  1.0000
  H   H114      1.0  0.6708  0.6217  0.2166  1.0000
  H   H115      1.0  0.6813  0.5216  0.2931  1.0000
  C   C203      1.0  0.6522  0.5431  0.2518  1.0000
  H   H116      1.0  0.6348  0.5739000000000002  0.2103  1.0000
  N   N117      1.0  0.2407  0.19220000000000007  0.7617  1.0000
  N   N118      1.0  0.26250000000000007  0.17060000000000006  0.7835000000000001  1.0000
  N   N119      1.0  0.21360000000000007  0.1718  0.7497000000000003  1.0000
  N   N120      1.0  0.25  0.13620000000000004  0.7863  1.0000
  C   C204      1.0  0.21980000000000005  0.13850000000000004  0.7652000000000001  1.0000
  C   C205      1.0  0.19620000000000007  0.1039  0.7605000000000002  1.0000
  C   C206      1.0  0.20250000000000007  0.071  0.7842000000000002  1.0000
  C   C207      1.0  0.1726  0.1022  0.7334  1.0000
  H   H117      1.0  0.22130000000000002  0.0701  0.8019000000000001  1.0000
  C   C208      1.0  0.1791  0.04260000000000001  0.7783  1.0000
  C   C209      1.0  0.1518  0.0737  0.7298000000000002  1.0000
  H   H118      1.0  0.17080000000000006  0.12170000000000002  0.7166  1.0000
  H   H119      1.0  0.18130000000000004  0.0216  0.7931  1.0000
  C   C210      1.0  0.1522  0.0431  0.7518  1.0000
  H   H120      1.0  0.1348  0.0739  0.7103  1.0000
  N   N121      1.0  0.7593  0.3078  0.7617  1.0000
  N   N122      1.0  0.7375000000000003  0.3294000000000001  0.7835000000000001  1.0000
  N   N123      1.0  0.7864000000000002  0.3282000000000001  0.7497000000000003  1.0000
  N   N124      1.0  0.75  0.3638000000000001  0.7863  1.0000
  C   C211      1.0  0.7802000000000002  0.3615000000000001  0.7652000000000001  1.0000
  C   C212      1.0  0.8038  0.3961  0.7605000000000002  1.0000
  C   C213      1.0  0.7975  0.429  0.7842000000000002  1.0000
  C   C214      1.0  0.8274  0.3978000000000001  0.7334  1.0000
  H   H121      1.0  0.7787  0.4299000000000001  0.8019000000000001  1.0000
  C   C215      1.0  0.8209000000000002  0.45740000000000003  0.7783  1.0000
  C   C216      1.0  0.8482  0.4263  0.7298000000000002  1.0000
  H   H122      1.0  0.8292000000000003  0.37830000000000014  0.7166  1.0000
  H   H123      1.0  0.8187000000000001  0.4784  0.7931  1.0000
  C   C217      1.0  0.8478000000000001  0.45690000000000003  0.7518  1.0000
  H   H124      1.0  0.8652000000000002  0.4261000000000001  0.7103  1.0000
  N   N125      1.0  0.2593  0.8078000000000002  0.2617000000000001  1.0000
  N   N126      1.0  0.2375  0.8294000000000001  0.2835000000000001  1.0000
  N   N127      1.0  0.2864  0.8282  0.24970000000000003  1.0000
  N   N128      1.0  0.25  0.8638000000000001  0.2863  1.0000
  C   C218      1.0  0.2802  0.8615000000000002  0.26520000000000005  1.0000
  C   C219      1.0  0.30380000000000007  0.8961000000000001  0.2605  1.0000
  C   C220      1.0  0.2975  0.9290000000000002  0.2842  1.0000
  C   C221      1.0  0.32740000000000014  0.8978000000000002  0.23340000000000002  1.0000
  H   H125      1.0  0.2787  0.9299  0.30190000000000006  1.0000
  C   C222      1.0  0.32090000000000013  0.9574  0.2783  1.0000
  C   C223      1.0  0.3482  0.9263  0.2298  1.0000
  H   H126      1.0  0.3292  0.8783000000000001  0.2166  1.0000
  H   H127      1.0  0.3187000000000001  0.9784  0.2931  1.0000
  C   C224      1.0  0.34780000000000005  0.9569  0.2518  1.0000
  H   H128      1.0  0.3652  0.9261  0.2103  1.0000
  N   N129      1.0  0.3078  0.7617  0.7593  1.0000
  N   N130      1.0  0.3294000000000001  0.7835000000000001  0.7375000000000003  1.0000
  N   N131      1.0  0.3282000000000001  0.7497000000000003  0.7864000000000002  1.0000
  N   N132      1.0  0.3638000000000001  0.7863  0.75  1.0000
  C   C225      1.0  0.3615000000000001  0.7652000000000001  0.7802000000000002  1.0000
  C   C226      1.0  0.3961  0.7605000000000002  0.8038  1.0000
  C   C227      1.0  0.429  0.7842000000000002  0.7975  1.0000
  C   C228      1.0  0.3978000000000001  0.7334  0.8274  1.0000
  H   H129      1.0  0.4299000000000001  0.8019000000000001  0.7787  1.0000
  C   C229      1.0  0.45740000000000003  0.7783  0.8209000000000002  1.0000
  C   C230      1.0  0.4263  0.7298000000000002  0.8482  1.0000
  H   H130      1.0  0.37830000000000014  0.7166  0.8292000000000003  1.0000
  H   H131      1.0  0.4784  0.7931  0.8187000000000001  1.0000
  C   C231      1.0  0.45690000000000003  0.7518  0.8478000000000001  1.0000
  H   H132      1.0  0.4261000000000001  0.7103  0.8652000000000002  1.0000
  N   N133      1.0  0.8078000000000002  0.2617000000000001  0.2593  1.0000
  N   N134      1.0  0.8294000000000001  0.2835000000000001  0.2375  1.0000
  N   N135      1.0  0.8282  0.24970000000000003  0.2864  1.0000
  N   N136      1.0  0.8638000000000001  0.2863  0.25  1.0000
  C   C232      1.0  0.8615000000000002  0.26520000000000005  0.2802  1.0000
  C   C233      1.0  0.8961000000000001  0.2605  0.30380000000000007  1.0000
  C   C234      1.0  0.9290000000000002  0.2842  0.2975  1.0000
  C   C235      1.0  0.8978000000000002  0.23340000000000002  0.32740000000000014  1.0000
  H   H133      1.0  0.9299  0.30190000000000006  0.2787  1.0000
  C   C236      1.0  0.9574  0.2783  0.32090000000000013  1.0000
  C   C237      1.0  0.9263  0.2298  0.3482  1.0000
  H   H134      1.0  0.8783000000000001  0.2166  0.3292  1.0000
  H   H135      1.0  0.9784  0.2931  0.3187000000000001  1.0000
  C   C238      1.0  0.9569  0.2518  0.34780000000000005  1.0000
  H   H136      1.0  0.9261  0.2103  0.3652  1.0000
  N   N137      1.0  0.6922  0.2617000000000001  0.7407000000000001  1.0000
  N   N138      1.0  0.6706  0.2835000000000001  0.7625  1.0000
  N   N139      1.0  0.6718000000000002  0.24970000000000003  0.7136  1.0000
  N   N140      1.0  0.6362  0.2863  0.75  1.0000
  C   C239      1.0  0.6385  0.26520000000000005  0.7198  1.0000
  C   C240      1.0  0.6039  0.2605  0.6962000000000003  1.0000
  C   C241      1.0  0.571  0.2842  0.7025  1.0000
  C   C242      1.0  0.6022000000000002  0.23340000000000002  0.6726000000000001  1.0000
  H   H137      1.0  0.5701000000000002  0.30190000000000006  0.7213000000000003  1.0000
  C   C243      1.0  0.5426000000000001  0.2783  0.6791  1.0000
  C   C244      1.0  0.5737  0.2298  0.6518000000000003  1.0000
  H   H138      1.0  0.6217  0.2166  0.6708  1.0000
  H   H139      1.0  0.5216  0.2931  0.6813  1.0000
  C   C245      1.0  0.5431  0.2518  0.6522  1.0000
  H   H140      1.0  0.5739000000000002  0.2103  0.6348  1.0000
  N   N141      1.0  0.19220000000000007  0.7617  0.2407  1.0000
  N   N142      1.0  0.17060000000000006  0.7835000000000001  0.26250000000000007  1.0000
  N   N143      1.0  0.1718  0.7497000000000003  0.21360000000000007  1.0000
  N   N144      1.0  0.13620000000000004  0.7863  0.25  1.0000
  C   C246      1.0  0.13850000000000004  0.7652000000000001  0.21980000000000005  1.0000
  C   C247      1.0  0.1039  0.7605000000000002  0.19620000000000007  1.0000
  C   C248      1.0  0.071  0.7842000000000002  0.20250000000000007  1.0000
  C   C249      1.0  0.1022  0.7334  0.1726  1.0000
  H   H141      1.0  0.0701  0.8019000000000001  0.22130000000000002  1.0000
  C   C250      1.0  0.04260000000000001  0.7783  0.1791  1.0000
  C   C251      1.0  0.0737  0.7298000000000002  0.1518  1.0000
  H   H142      1.0  0.12170000000000002  0.7166  0.17080000000000006  1.0000
  H   H143      1.0  0.0216  0.7931  0.18130000000000004  1.0000
  C   C252      1.0  0.0431  0.7518  0.1522  1.0000
  H   H144      1.0  0.0739  0.7103  0.1348  1.0000
  N   N145      1.0  0.19220000000000007  0.2383  0.2593  1.0000
  N   N146      1.0  0.17060000000000006  0.21650000000000005  0.2375  1.0000
  N   N147      1.0  0.1718  0.2503  0.2864  1.0000
  N   N148      1.0  0.13620000000000004  0.2137  0.25  1.0000
  C   C253      1.0  0.13850000000000004  0.2348  0.2802  1.0000
  C   C254      1.0  0.1039  0.23950000000000002  0.30380000000000007  1.0000
  C   C255      1.0  0.071  0.2158  0.2975  1.0000
  C   C256      1.0  0.1022  0.2666  0.32740000000000014  1.0000
  H   H145      1.0  0.0701  0.1981  0.2787  1.0000
  C   C257      1.0  0.04260000000000001  0.22170000000000006  0.32090000000000013  1.0000
  C   C258      1.0  0.0737  0.2702  0.3482  1.0000
  H   H146      1.0  0.12170000000000002  0.2834  0.3292  1.0000
  H   H147      1.0  0.0216  0.20690000000000006  0.3187000000000001  1.0000
  C   C259      1.0  0.0431  0.24820000000000003  0.34780000000000005  1.0000
  H   H148      1.0  0.0739  0.2897  0.3652  1.0000
  N   N149      1.0  0.6922  0.7383000000000002  0.7593  1.0000
  N   N150      1.0  0.6706  0.7165  0.7375000000000003  1.0000
  N   N151      1.0  0.6718000000000002  0.7503  0.7864000000000002  1.0000
  N   N152      1.0  0.6362  0.7137000000000002  0.75  1.0000
  C   C260      1.0  0.6385  0.7348  0.7802000000000002  1.0000
  C   C261      1.0  0.6039  0.7395  0.8038  1.0000
  C   C262      1.0  0.571  0.7158  0.7975  1.0000
  C   C263      1.0  0.6022000000000002  0.7666000000000002  0.8274  1.0000
  H   H149      1.0  0.5701000000000002  0.6981  0.7787  1.0000
  C   C264      1.0  0.5426000000000001  0.7217  0.8209000000000002  1.0000
  C   C265      1.0  0.5737  0.7702  0.8482  1.0000
  H   H150      1.0  0.6217  0.7834000000000002  0.8292000000000003  1.0000
  H   H151      1.0  0.5216  0.7069000000000002  0.8187000000000001  1.0000
  C   C266      1.0  0.5431  0.7482000000000002  0.8478000000000001  1.0000
  H   H152      1.0  0.5739000000000002  0.7897000000000001  0.8652000000000002  1.0000
  N   N153      1.0  0.8078000000000002  0.7383000000000002  0.2407  1.0000
  N   N154      1.0  0.8294000000000001  0.7165  0.26250000000000007  1.0000
  N   N155      1.0  0.8282  0.7503  0.21360000000000007  1.0000
  N   N156      1.0  0.8638000000000001  0.7137000000000002  0.25  1.0000
  C   C267      1.0  0.8615000000000002  0.7348  0.21980000000000005  1.0000
  C   C268      1.0  0.8961000000000001  0.7395  0.19620000000000007  1.0000
  C   C269      1.0  0.9290000000000002  0.7158  0.20250000000000007  1.0000
  C   C270      1.0  0.8978000000000002  0.7666000000000002  0.1726  1.0000
  H   H153      1.0  0.9299  0.6981  0.22130000000000002  1.0000
  C   C271      1.0  0.9574  0.7217  0.1791  1.0000
  C   C272      1.0  0.9263  0.7702  0.1518  1.0000
  H   H154      1.0  0.8783000000000001  0.7834000000000002  0.17080000000000006  1.0000
  H   H155      1.0  0.9784  0.7069000000000002  0.18130000000000004  1.0000
  C   C273      1.0  0.9569  0.7482000000000002  0.1522  1.0000
  H   H156      1.0  0.9261  0.7897000000000001  0.1348  1.0000
  N   N157      1.0  0.3078  0.2383  0.7407000000000001  1.0000
  N   N158      1.0  0.3294000000000001  0.21650000000000005  0.7625  1.0000
  N   N159      1.0  0.3282000000000001  0.2503  0.7136  1.0000
  N   N160      1.0  0.3638000000000001  0.2137  0.75  1.0000
  C   C274      1.0  0.3615000000000001  0.2348  0.7198  1.0000
  C   C275      1.0  0.3961  0.23950000000000002  0.6962000000000003  1.0000
  C   C276      1.0  0.429  0.2158  0.7025  1.0000
  C   C277      1.0  0.3978000000000001  0.2666  0.6726000000000001  1.0000
  H   H157      1.0  0.4299000000000001  0.1981  0.7213000000000003  1.0000
  C   C278      1.0  0.45740000000000003  0.22170000000000006  0.6791  1.0000
  C   C279      1.0  0.4263  0.2702  0.6518000000000003  1.0000
  H   H158      1.0  0.37830000000000014  0.2834  0.6708  1.0000
  H   H159      1.0  0.4784  0.20690000000000006  0.6813  1.0000
  C   C280      1.0  0.45690000000000003  0.24820000000000003  0.6522  1.0000
  H   H160      1.0  0.4261000000000001  0.2897  0.6348  1.0000
  N   N161      1.0  0.2617000000000001  0.7407000000000001  0.6922  1.0000
  N   N162      1.0  0.2835000000000001  0.7625  0.6706  1.0000
  N   N163      1.0  0.24970000000000003  0.7136  0.6718000000000002  1.0000
  N   N164      1.0  0.2863  0.75  0.6362  1.0000
  C   C281      1.0  0.26520000000000005  0.7198  0.6385  1.0000
  C   C282      1.0  0.2605  0.6962000000000003  0.6039  1.0000
  C   C283      1.0  0.2842  0.7025  0.571  1.0000
  C   C284      1.0  0.23340000000000002  0.6726000000000001  0.6022000000000002  1.0000
  H   H161      1.0  0.30190000000000006  0.7213000000000003  0.5701000000000002  1.0000
  C   C285      1.0  0.2783  0.6791  0.5426000000000001  1.0000
  C   C286      1.0  0.2298  0.6518000000000003  0.5737  1.0000
  H   H162      1.0  0.2166  0.6708  0.6217  1.0000
  H   H163      1.0  0.2931  0.6813  0.5216  1.0000
  C   C287      1.0  0.2518  0.6522  0.5431  1.0000
  H   H164      1.0  0.2103  0.6348  0.5739000000000002  1.0000
  N   N165      1.0  0.7617  0.2407  0.19220000000000007  1.0000
  N   N166      1.0  0.7835000000000001  0.26250000000000007  0.17060000000000006  1.0000
  N   N167      1.0  0.7497000000000003  0.21360000000000007  0.1718  1.0000
  N   N168      1.0  0.7863  0.25  0.13620000000000004  1.0000
  C   C288      1.0  0.7652000000000001  0.21980000000000005  0.13850000000000004  1.0000
  C   C289      1.0  0.7605000000000002  0.19620000000000007  0.1039  1.0000
  C   C290      1.0  0.7842000000000002  0.20250000000000007  0.071  1.0000
  C   C291      1.0  0.7334  0.1726  0.1022  1.0000
  H   H165      1.0  0.8019000000000001  0.22130000000000002  0.0701  1.0000
  C   C292      1.0  0.7783  0.1791  0.04260000000000001  1.0000
  C   C293      1.0  0.7298000000000002  0.1518  0.0737  1.0000
  H   H166      1.0  0.7166  0.17080000000000006  0.12170000000000002  1.0000
  H   H167      1.0  0.7931  0.18130000000000004  0.0216  1.0000
  C   C294      1.0  0.7518  0.1522  0.0431  1.0000
  H   H168      1.0  0.7103  0.1348  0.0739  1.0000
  N   N169      1.0  0.7617  0.7593  0.3078  1.0000
  N   N170      1.0  0.7835000000000001  0.7375000000000003  0.3294000000000001  1.0000
  N   N171      1.0  0.7497000000000003  0.7864000000000002  0.3282000000000001  1.0000
  N   N172      1.0  0.7863  0.75  0.3638000000000001  1.0000
  C   C295      1.0  0.7652000000000001  0.7802000000000002  0.3615000000000001  1.0000
  C   C296      1.0  0.7605000000000002  0.8038  0.3961  1.0000
  C   C297      1.0  0.7842000000000002  0.7975  0.429  1.0000
  C   C298      1.0  0.7334  0.8274  0.3978000000000001  1.0000
  H   H169      1.0  0.8019000000000001  0.7787  0.4299000000000001  1.0000
  C   C299      1.0  0.7783  0.8209000000000002  0.45740000000000003  1.0000
  C   C300      1.0  0.7298000000000002  0.8482  0.4263  1.0000
  H   H170      1.0  0.7166  0.8292000000000003  0.37830000000000014  1.0000
  H   H171      1.0  0.7931  0.8187000000000001  0.4784  1.0000
  C   C301      1.0  0.7518  0.8478000000000001  0.45690000000000003  1.0000
  H   H172      1.0  0.7103  0.8652000000000002  0.4261000000000001  1.0000
  N   N173      1.0  0.2617000000000001  0.2593  0.8078000000000002  1.0000
  N   N174      1.0  0.2835000000000001  0.2375  0.8294000000000001  1.0000
  N   N175      1.0  0.24970000000000003  0.2864  0.8282  1.0000
  N   N176      1.0  0.2863  0.25  0.8638000000000001  1.0000
  C   C302      1.0  0.26520000000000005  0.2802  0.8615000000000002  1.0000
  C   C303      1.0  0.2605  0.30380000000000007  0.8961000000000001  1.0000
  C   C304      1.0  0.2842  0.2975  0.9290000000000002  1.0000
  C   C305      1.0  0.23340000000000002  0.32740000000000014  0.8978000000000002  1.0000
  H   H173      1.0  0.30190000000000006  0.2787  0.9299  1.0000
  C   C306      1.0  0.2783  0.32090000000000013  0.9574  1.0000
  C   C307      1.0  0.2298  0.3482  0.9263  1.0000
  H   H174      1.0  0.2166  0.3292  0.8783000000000001  1.0000
  H   H175      1.0  0.2931  0.3187000000000001  0.9784  1.0000
  C   C308      1.0  0.2518  0.34780000000000005  0.9569  1.0000
  H   H176      1.0  0.2103  0.3652  0.9261  1.0000
  N   N177      1.0  0.7383000000000002  0.2407  0.8078000000000002  1.0000
  N   N178      1.0  0.7165  0.26250000000000007  0.8294000000000001  1.0000
  N   N179      1.0  0.7503  0.21360000000000007  0.8282  1.0000
  N   N180      1.0  0.7137000000000002  0.25  0.8638000000000001  1.0000
  C   C309      1.0  0.7348  0.21980000000000005  0.8615000000000002  1.0000
  C   C310      1.0  0.7395  0.19620000000000007  0.8961000000000001  1.0000
  C   C311      1.0  0.7158  0.20250000000000007  0.9290000000000002  1.0000
  C   C312      1.0  0.7666000000000002  0.1726  0.8978000000000002  1.0000
  H   H177      1.0  0.6981  0.22130000000000002  0.9299  1.0000
  C   C313      1.0  0.7217  0.1791  0.9574  1.0000
  C   C314      1.0  0.7702  0.1518  0.9263  1.0000
  H   H178      1.0  0.7834000000000002  0.17080000000000006  0.8783000000000001  1.0000
  H   H179      1.0  0.7069000000000002  0.18130000000000004  0.9784  1.0000
  C   C315      1.0  0.7482000000000002  0.1522  0.9569  1.0000
  H   H180      1.0  0.7897000000000001  0.1348  0.9261  1.0000
  N   N181      1.0  0.2383  0.7407000000000001  0.3078  1.0000
  N   N182      1.0  0.21650000000000005  0.7625  0.3294000000000001  1.0000
  N   N183      1.0  0.2503  0.7136  0.3282000000000001  1.0000
  N   N184      1.0  0.2137  0.75  0.3638000000000001  1.0000
  C   C316      1.0  0.2348  0.7198  0.3615000000000001  1.0000
  C   C317      1.0  0.23950000000000002  0.6962000000000003  0.3961  1.0000
  C   C318      1.0  0.2158  0.7025  0.429  1.0000
  C   C319      1.0  0.2666  0.6726000000000001  0.3978000000000001  1.0000
  H   H181      1.0  0.1981  0.7213000000000003  0.4299000000000001  1.0000
  C   C320      1.0  0.22170000000000006  0.6791  0.45740000000000003  1.0000
  C   C321      1.0  0.2702  0.6518000000000003  0.4263  1.0000
  H   H182      1.0  0.2834  0.6708  0.37830000000000014  1.0000
  H   H183      1.0  0.20690000000000006  0.6813  0.4784  1.0000
  C   C322      1.0  0.24820000000000003  0.6522  0.45690000000000003  1.0000
  H   H184      1.0  0.2897  0.6348  0.4261000000000001  1.0000
  N   N185      1.0  0.2383  0.2593  0.19220000000000007  1.0000
  N   N186      1.0  0.21650000000000005  0.2375  0.17060000000000006  1.0000
  N   N187      1.0  0.2503  0.2864  0.1718  1.0000
  N   N188      1.0  0.2137  0.25  0.13620000000000004  1.0000
  C   C323      1.0  0.2348  0.2802  0.13850000000000004  1.0000
  C   C324      1.0  0.23950000000000002  0.30380000000000007  0.1039  1.0000
  C   C325      1.0  0.2158  0.2975  0.071  1.0000
  C   C326      1.0  0.2666  0.32740000000000014  0.1022  1.0000
  H   H185      1.0  0.1981  0.2787  0.0701  1.0000
  C   C327      1.0  0.22170000000000006  0.32090000000000013  0.04260000000000001  1.0000
  C   C328      1.0  0.2702  0.3482  0.0737  1.0000
  H   H186      1.0  0.2834  0.3292  0.12170000000000002  1.0000
  H   H187      1.0  0.20690000000000006  0.3187000000000001  0.0216  1.0000
  C   C329      1.0  0.24820000000000003  0.34780000000000005  0.0431  1.0000
  H   H188      1.0  0.2897  0.3652  0.0739  1.0000
  N   N189      1.0  0.7383000000000002  0.7593  0.6922  1.0000
  N   N190      1.0  0.7165  0.7375000000000003  0.6706  1.0000
  N   N191      1.0  0.7503  0.7864000000000002  0.6718000000000002  1.0000
  N   N192      1.0  0.7137000000000002  0.75  0.6362  1.0000
  C   C330      1.0  0.7348  0.7802000000000002  0.6385  1.0000
  C   C331      1.0  0.7395  0.8038  0.6039  1.0000
  C   C332      1.0  0.7158  0.7975  0.571  1.0000
  C   C333      1.0  0.7666000000000002  0.8274  0.6022000000000002  1.0000
  H   H189      1.0  0.6981  0.7787  0.5701000000000002  1.0000
  C   C334      1.0  0.7217  0.8209000000000002  0.5426000000000001  1.0000
  C   C335      1.0  0.7702  0.8482  0.5737  1.0000
  H   H190      1.0  0.7834000000000002  0.8292000000000003  0.6217  1.0000
  H   H191      1.0  0.7069000000000002  0.8187000000000001  0.5216  1.0000
  C   C336      1.0  0.7482000000000002  0.8478000000000001  0.5431  1.0000
  H   H192      1.0  0.7897000000000001  0.8652000000000002  0.5739000000000002  1.0000
  N   N193      1.0  0.44220000000000004  0.5093  0.4883  1.0000
  N   N194      1.0  0.4206  0.4875  0.4665  1.0000
  N   N195      1.0  0.4218  0.5364000000000002  0.5003  1.0000
  N   N196      1.0  0.3862  0.5  0.46370000000000006  1.0000
  C   C337      1.0  0.3885  0.5302000000000002  0.4848  1.0000
  C   C338      1.0  0.35390000000000005  0.5538  0.48950000000000005  1.0000
  C   C339      1.0  0.32100000000000006  0.5475  0.4658  1.0000
  C   C340      1.0  0.3522  0.5774  0.5166000000000001  1.0000
  H   H193      1.0  0.3201  0.5287  0.44810000000000005  1.0000
  C   C341      1.0  0.29260000000000014  0.5709000000000001  0.4717000000000001  1.0000
  C   C342      1.0  0.32370000000000004  0.5982  0.5202  1.0000
  H   H194      1.0  0.3717  0.5792000000000002  0.5334000000000001  1.0000
  H   H195      1.0  0.2716000000000001  0.5687  0.45690000000000003  1.0000
  C   C343      1.0  0.2931  0.5978  0.49820000000000003  1.0000
  H   H196      1.0  0.3239  0.6152000000000002  0.5397  1.0000
  N   N197      1.0  0.9422000000000001  0.0093  0.9883  1.0000
  N   N198      1.0  0.9206000000000001  0.9875000000000002  0.9665000000000001  1.0000
  N   N199      1.0  0.9218000000000001  0.0364  0.0003000000000000001  1.0000
  N   N200      1.0  0.8862  0.0  0.9637  1.0000
  C   C344      1.0  0.8885000000000001  0.030200000000000005  0.9848000000000001  1.0000
  C   C345      1.0  0.8539000000000001  0.05380000000000001  0.9895  1.0000
  C   C346      1.0  0.8210000000000001  0.0475  0.9658000000000001  1.0000
  C   C347      1.0  0.8522000000000002  0.0774  0.0166  1.0000
  H   H197      1.0  0.8201000000000003  0.0287  0.9481000000000002  1.0000
  C   C348      1.0  0.7926000000000002  0.0709  0.9717  1.0000
  C   C349      1.0  0.8237  0.09820000000000002  0.0202  1.0000
  H   H198      1.0  0.8717  0.07920000000000002  0.0334  1.0000
  H   H199      1.0  0.7716  0.0687  0.9569  1.0000
  C   C350      1.0  0.7931  0.0978  0.9982000000000001  1.0000
  H   H200      1.0  0.8239000000000002  0.11520000000000001  0.039700000000000006  1.0000
  N   N201      1.0  0.0578  0.4907000000000001  0.9883  1.0000
  N   N202      1.0  0.07940000000000001  0.5125  0.9665000000000001  1.0000
  N   N203      1.0  0.0782  0.4636  0.0003000000000000001  1.0000
  N   N204      1.0  0.11380000000000001  0.5  0.9637  1.0000
  C   C351      1.0  0.11150000000000002  0.4698  0.9848000000000001  1.0000
  C   C352      1.0  0.1461  0.4462  0.9895  1.0000
  C   C353      1.0  0.179  0.45250000000000007  0.9658000000000001  1.0000
  C   C354      1.0  0.1478  0.4226  0.0166  1.0000
  H   H201      1.0  0.1799  0.4713000000000001  0.9481000000000002  1.0000
  C   C355      1.0  0.2074  0.4291  0.9717  1.0000
  C   C356      1.0  0.1763  0.4018  0.0202  1.0000
  H   H202      1.0  0.1283  0.42080000000000006  0.0334  1.0000
  H   H203      1.0  0.2284  0.4313  0.9569  1.0000
  C   C357      1.0  0.20690000000000006  0.4022  0.9982000000000001  1.0000
  H   H204      1.0  0.1761  0.3848000000000001  0.039700000000000006  1.0000
  N   N205      1.0  0.5578000000000002  0.9907  0.4883  1.0000
  N   N206      1.0  0.5794  0.0125  0.4665  1.0000
  N   N207      1.0  0.5782  0.9636  0.5003  1.0000
  N   N208      1.0  0.6138  0.0  0.46370000000000006  1.0000
  C   C358      1.0  0.6115  0.9698  0.4848  1.0000
  C   C359      1.0  0.6461  0.9462  0.48950000000000005  1.0000
  C   C360      1.0  0.679  0.9525  0.4658  1.0000
  C   C361      1.0  0.6478  0.9226000000000001  0.5166000000000001  1.0000
  H   H205      1.0  0.6799  0.9713  0.44810000000000005  1.0000
  C   C362      1.0  0.7074  0.9291000000000001  0.4717000000000001  1.0000
  C   C363      1.0  0.6763000000000002  0.9018  0.5202  1.0000
  H   H206      1.0  0.6283000000000001  0.9208000000000001  0.5334000000000001  1.0000
  H   H207      1.0  0.7284000000000002  0.9313  0.45690000000000003  1.0000
  C   C364      1.0  0.7069000000000002  0.9022000000000001  0.49820000000000003  1.0000
  H   H208      1.0  0.6761  0.8848000000000001  0.5397  1.0000
  N   N209      1.0  0.5578000000000002  0.0093  0.0117  1.0000
  N   N210      1.0  0.5794  0.9875000000000002  0.0335  1.0000
  N   N211      1.0  0.5782  0.0364  0.9997000000000001  1.0000
  N   N212      1.0  0.6138  0.0  0.036300000000000006  1.0000
  C   C365      1.0  0.6115  0.030200000000000005  0.015200000000000002  1.0000
  C   C366      1.0  0.6461  0.05380000000000001  0.0105  1.0000
  C   C367      1.0  0.679  0.0475  0.03420000000000001  1.0000
  C   C368      1.0  0.6478  0.0774  0.9834  1.0000
  H   H209      1.0  0.6799  0.0287  0.0519  1.0000
  C   C369      1.0  0.7074  0.0709  0.0283  1.0000
  C   C370      1.0  0.6763000000000002  0.09820000000000002  0.9798000000000001  1.0000
  H   H210      1.0  0.6283000000000001  0.07920000000000002  0.9666000000000001  1.0000
  H   H211      1.0  0.7284000000000002  0.0687  0.0431  1.0000
  C   C371      1.0  0.7069000000000002  0.0978  0.0018000000000000002  1.0000
  H   H212      1.0  0.6761  0.11520000000000001  0.9603000000000002  1.0000
  N   N213      1.0  0.0578  0.5093  0.5117  1.0000
  N   N214      1.0  0.07940000000000001  0.4875  0.5335  1.0000
  N   N215      1.0  0.0782  0.5364000000000002  0.4997  1.0000
  N   N216      1.0  0.11380000000000001  0.5  0.5363  1.0000
  C   C372      1.0  0.11150000000000002  0.5302000000000002  0.5152  1.0000
  C   C373      1.0  0.1461  0.5538  0.5105000000000001  1.0000
  C   C374      1.0  0.179  0.5475  0.5342000000000001  1.0000
  C   C375      1.0  0.1478  0.5774  0.48340000000000005  1.0000
  H   H213      1.0  0.1799  0.5287  0.5519  1.0000
  C   C376      1.0  0.2074  0.5709000000000001  0.5283  1.0000
  C   C377      1.0  0.1763  0.5982  0.47980000000000006  1.0000
  H   H214      1.0  0.1283  0.5792000000000002  0.4666  1.0000
  H   H215      1.0  0.2284  0.5687  0.5431  1.0000
  C   C378      1.0  0.20690000000000006  0.5978  0.5018  1.0000
  H   H216      1.0  0.1761  0.6152000000000002  0.46030000000000004  1.0000
  N   N217      1.0  0.9422000000000001  0.9907  0.5117  1.0000
  N   N218      1.0  0.9206000000000001  0.0125  0.5335  1.0000
  N   N219      1.0  0.9218000000000001  0.9636  0.4997  1.0000
  N   N220      1.0  0.8862  0.0  0.5363  1.0000
  C   C379      1.0  0.8885000000000001  0.9698  0.5152  1.0000
  C   C380      1.0  0.8539000000000001  0.9462  0.5105000000000001  1.0000
  C   C381      1.0  0.8210000000000001  0.9525  0.5342000000000001  1.0000
  C   C382      1.0  0.8522000000000002  0.9226000000000001  0.48340000000000005  1.0000
  H   H217      1.0  0.8201000000000003  0.9713  0.5519  1.0000
  C   C383      1.0  0.7926000000000002  0.9291000000000001  0.5283  1.0000
  C   C384      1.0  0.8237  0.9018  0.47980000000000006  1.0000
  H   H218      1.0  0.8717  0.9208000000000001  0.4666  1.0000
  H   H219      1.0  0.7716  0.9313  0.5431  1.0000
  C   C385      1.0  0.7931  0.9022000000000001  0.5018  1.0000
  H   H220      1.0  0.8239000000000002  0.8848000000000001  0.46030000000000004  1.0000
  N   N221      1.0  0.44220000000000004  0.4907000000000001  0.0117  1.0000
  N   N222      1.0  0.4206  0.5125  0.0335  1.0000
  N   N223      1.0  0.4218  0.4636  0.9997000000000001  1.0000
  N   N224      1.0  0.3862  0.5  0.036300000000000006  1.0000
  C   C386      1.0  0.3885  0.4698  0.015200000000000002  1.0000
  C   C387      1.0  0.35390000000000005  0.4462  0.0105  1.0000
  C   C388      1.0  0.32100000000000006  0.45250000000000007  0.03420000000000001  1.0000
  C   C389      1.0  0.3522  0.4226  0.9834  1.0000
  H   H221      1.0  0.3201  0.4713000000000001  0.0519  1.0000
  C   C390      1.0  0.29260000000000014  0.4291  0.0283  1.0000
  C   C391      1.0  0.32370000000000004  0.4018  0.9798000000000001  1.0000
  H   H222      1.0  0.3717  0.42080000000000006  0.9666000000000001  1.0000
  H   H223      1.0  0.2716000000000001  0.4313  0.0431  1.0000
  C   C392      1.0  0.2931  0.4022  0.0018000000000000002  1.0000
  H   H224      1.0  0.3239  0.3848000000000001  0.9603000000000002  1.0000
  N   N225      1.0  0.4883  0.44220000000000004  0.5093  1.0000
  N   N226      1.0  0.4665  0.4206  0.4875  1.0000
  N   N227      1.0  0.5003  0.4218  0.5364000000000002  1.0000
  N   N228      1.0  0.46370000000000006  0.3862  0.5  1.0000
  C   C393      1.0  0.4848  0.3885  0.5302000000000002  1.0000
  C   C394      1.0  0.48950000000000005  0.35390000000000005  0.5538  1.0000
  C   C395      1.0  0.4658  0.32100000000000006  0.5475  1.0000
  C   C396      1.0  0.5166000000000001  0.3522  0.5774  1.0000
  H   H225      1.0  0.44810000000000005  0.3201  0.5287  1.0000
  C   C397      1.0  0.4717000000000001  0.29260000000000014  0.5709000000000001  1.0000
  C   C398      1.0  0.5202  0.32370000000000004  0.5982  1.0000
  H   H226      1.0  0.5334000000000001  0.3717  0.5792000000000002  1.0000
  H   H227      1.0  0.45690000000000003  0.2716000000000001  0.5687  1.0000
  C   C399      1.0  0.49820000000000003  0.2931  0.5978  1.0000
  H   H228      1.0  0.5397  0.3239  0.6152000000000002  1.0000
  N   N229      1.0  0.9883  0.9422000000000001  0.0093  1.0000
  N   N230      1.0  0.9665000000000001  0.9206000000000001  0.9875000000000002  1.0000
  N   N231      1.0  0.0003000000000000001  0.9218000000000001  0.0364  1.0000
  N   N232      1.0  0.9637  0.8862  0.0  1.0000
  C   C400      1.0  0.9848000000000001  0.8885000000000001  0.030200000000000005  1.0000
  C   C401      1.0  0.9895  0.8539000000000001  0.05380000000000001  1.0000
  C   C402      1.0  0.9658000000000001  0.8210000000000001  0.0475  1.0000
  C   C403      1.0  0.0166  0.8522000000000002  0.0774  1.0000
  H   H229      1.0  0.9481000000000002  0.8201000000000003  0.0287  1.0000
  C   C404      1.0  0.9717  0.7926000000000002  0.0709  1.0000
  C   C405      1.0  0.0202  0.8237  0.09820000000000002  1.0000
  H   H230      1.0  0.0334  0.8717  0.07920000000000002  1.0000
  H   H231      1.0  0.9569  0.7716  0.0687  1.0000
  C   C406      1.0  0.9982000000000001  0.7931  0.0978  1.0000
  H   H232      1.0  0.039700000000000006  0.8239000000000002  0.11520000000000001  1.0000
  N   N233      1.0  0.9883  0.0578  0.4907000000000001  1.0000
  N   N234      1.0  0.9665000000000001  0.07940000000000001  0.5125  1.0000
  N   N235      1.0  0.0003000000000000001  0.0782  0.4636  1.0000
  N   N236      1.0  0.9637  0.11380000000000001  0.5  1.0000
  C   C407      1.0  0.9848000000000001  0.11150000000000002  0.4698  1.0000
  C   C408      1.0  0.9895  0.1461  0.4462  1.0000
  C   C409      1.0  0.9658000000000001  0.179  0.45250000000000007  1.0000
  C   C410      1.0  0.0166  0.1478  0.4226  1.0000
  H   H233      1.0  0.9481000000000002  0.1799  0.4713000000000001  1.0000
  C   C411      1.0  0.9717  0.2074  0.4291  1.0000
  C   C412      1.0  0.0202  0.1763  0.4018  1.0000
  H   H234      1.0  0.0334  0.1283  0.42080000000000006  1.0000
  H   H235      1.0  0.9569  0.2284  0.4313  1.0000
  C   C413      1.0  0.9982000000000001  0.20690000000000006  0.4022  1.0000
  H   H236      1.0  0.039700000000000006  0.1761  0.3848000000000001  1.0000
  N   N237      1.0  0.4883  0.5578000000000002  0.9907  1.0000
  N   N238      1.0  0.4665  0.5794  0.0125  1.0000
  N   N239      1.0  0.5003  0.5782  0.9636  1.0000
  N   N240      1.0  0.46370000000000006  0.6138  0.0  1.0000
  C   C414      1.0  0.4848  0.6115  0.9698  1.0000
  C   C415      1.0  0.48950000000000005  0.6461  0.9462  1.0000
  C   C416      1.0  0.4658  0.679  0.9525  1.0000
  C   C417      1.0  0.5166000000000001  0.6478  0.9226000000000001  1.0000
  H   H237      1.0  0.44810000000000005  0.6799  0.9713  1.0000
  C   C418      1.0  0.4717000000000001  0.7074  0.9291000000000001  1.0000
  C   C419      1.0  0.5202  0.6763000000000002  0.9018  1.0000
  H   H238      1.0  0.5334000000000001  0.6283000000000001  0.9208000000000001  1.0000
  H   H239      1.0  0.45690000000000003  0.7284000000000002  0.9313  1.0000
  C   C420      1.0  0.49820000000000003  0.7069000000000002  0.9022000000000001  1.0000
  H   H240      1.0  0.5397  0.6761  0.8848000000000001  1.0000
  N   N241      1.0  0.0117  0.5578000000000002  0.0093  1.0000
  N   N242      1.0  0.0335  0.5794  0.9875000000000002  1.0000
  N   N243      1.0  0.9997000000000001  0.5782  0.0364  1.0000
  N   N244      1.0  0.036300000000000006  0.6138  0.0  1.0000
  C   C421      1.0  0.015200000000000002  0.6115  0.030200000000000005  1.0000
  C   C422      1.0  0.0105  0.6461  0.05380000000000001  1.0000
  C   C423      1.0  0.03420000000000001  0.679  0.0475  1.0000
  C   C424      1.0  0.9834  0.6478  0.0774  1.0000
  H   H241      1.0  0.0519  0.6799  0.0287  1.0000
  C   C425      1.0  0.0283  0.7074  0.0709  1.0000
  C   C426      1.0  0.9798000000000001  0.6763000000000002  0.09820000000000002  1.0000
  H   H242      1.0  0.9666000000000001  0.6283000000000001  0.07920000000000002  1.0000
  H   H243      1.0  0.0431  0.7284000000000002  0.0687  1.0000
  C   C427      1.0  0.0018000000000000002  0.7069000000000002  0.0978  1.0000
  H   H244      1.0  0.9603000000000002  0.6761  0.11520000000000001  1.0000
  N   N245      1.0  0.5117  0.0578  0.5093  1.0000
  N   N246      1.0  0.5335  0.07940000000000001  0.4875  1.0000
  N   N247      1.0  0.4997  0.0782  0.5364000000000002  1.0000
  N   N248      1.0  0.5363  0.11380000000000001  0.5  1.0000
  C   C428      1.0  0.5152  0.11150000000000002  0.5302000000000002  1.0000
  C   C429      1.0  0.5105000000000001  0.1461  0.5538  1.0000
  C   C430      1.0  0.5342000000000001  0.179  0.5475  1.0000
  C   C431      1.0  0.48340000000000005  0.1478  0.5774  1.0000
  H   H245      1.0  0.5519  0.1799  0.5287  1.0000
  C   C432      1.0  0.5283  0.2074  0.5709000000000001  1.0000
  C   C433      1.0  0.47980000000000006  0.1763  0.5982  1.0000
  H   H246      1.0  0.4666  0.1283  0.5792000000000002  1.0000
  H   H247      1.0  0.5431  0.2284  0.5687  1.0000
  C   C434      1.0  0.5018  0.20690000000000006  0.5978  1.0000
  H   H248      1.0  0.46030000000000004  0.1761  0.6152000000000002  1.0000
  N   N249      1.0  0.5117  0.9422000000000001  0.9907  1.0000
  N   N250      1.0  0.5335  0.9206000000000001  0.0125  1.0000
  N   N251      1.0  0.4997  0.9218000000000001  0.9636  1.0000
  N   N252      1.0  0.5363  0.8862  0.0  1.0000
  C   C435      1.0  0.5152  0.8885000000000001  0.9698  1.0000
  C   C436      1.0  0.5105000000000001  0.8539000000000001  0.9462  1.0000
  C   C437      1.0  0.5342000000000001  0.8210000000000001  0.9525  1.0000
  C   C438      1.0  0.48340000000000005  0.8522000000000002  0.9226000000000001  1.0000
  H   H249      1.0  0.5519  0.8201000000000003  0.9713  1.0000
  C   C439      1.0  0.5283  0.7926000000000002  0.9291000000000001  1.0000
  C   C440      1.0  0.47980000000000006  0.8237  0.9018  1.0000
  H   H250      1.0  0.4666  0.8717  0.9208000000000001  1.0000
  H   H251      1.0  0.5431  0.7716  0.9313  1.0000
  C   C441      1.0  0.5018  0.7931  0.9022000000000001  1.0000
  H   H252      1.0  0.46030000000000004  0.8239000000000002  0.8848000000000001  1.0000
  N   N253      1.0  0.0117  0.44220000000000004  0.4907000000000001  1.0000
  N   N254      1.0  0.0335  0.4206  0.5125  1.0000
  N   N255      1.0  0.9997000000000001  0.4218  0.4636  1.0000
  N   N256      1.0  0.036300000000000006  0.3862  0.5  1.0000
  C   C442      1.0  0.015200000000000002  0.3885  0.4698  1.0000
  C   C443      1.0  0.0105  0.35390000000000005  0.4462  1.0000
  C   C444      1.0  0.03420000000000001  0.32100000000000006  0.45250000000000007  1.0000
  C   C445      1.0  0.9834  0.3522  0.4226  1.0000
  H   H253      1.0  0.0519  0.3201  0.4713000000000001  1.0000
  C   C446      1.0  0.0283  0.29260000000000014  0.4291  1.0000
  C   C447      1.0  0.9798000000000001  0.32370000000000004  0.4018  1.0000
  H   H254      1.0  0.9666000000000001  0.3717  0.42080000000000006  1.0000
  H   H255      1.0  0.0431  0.2716000000000001  0.4313  1.0000
  C   C448      1.0  0.0018000000000000002  0.2931  0.4022  1.0000
  H   H256      1.0  0.9603000000000002  0.3239  0.3848000000000001  1.0000
  N   N257      1.0  0.5093  0.4883  0.44220000000000004  1.0000
  N   N258      1.0  0.4875  0.4665  0.4206  1.0000
  N   N259      1.0  0.5364000000000002  0.5003  0.4218  1.0000
  N   N260      1.0  0.5  0.46370000000000006  0.3862  1.0000
  C   C449      1.0  0.5302000000000002  0.4848  0.3885  1.0000
  C   C450      1.0  0.5538  0.48950000000000005  0.35390000000000005  1.0000
  C   C451      1.0  0.5475  0.4658  0.32100000000000006  1.0000
  C   C452      1.0  0.5774  0.5166000000000001  0.3522  1.0000
  H   H257      1.0  0.5287  0.44810000000000005  0.3201  1.0000
  C   C453      1.0  0.5709000000000001  0.4717000000000001  0.29260000000000014  1.0000
  C   C454      1.0  0.5982  0.5202  0.32370000000000004  1.0000
  H   H258      1.0  0.5792000000000002  0.5334000000000001  0.3717  1.0000
  H   H259      1.0  0.5687  0.45690000000000003  0.2716000000000001  1.0000
  C   C455      1.0  0.5978  0.49820000000000003  0.2931  1.0000
  H   H260      1.0  0.6152000000000002  0.5397  0.3239  1.0000
  N   N261      1.0  0.0093  0.9883  0.9422000000000001  1.0000
  N   N262      1.0  0.9875000000000002  0.9665000000000001  0.9206000000000001  1.0000
  N   N263      1.0  0.0364  0.0003000000000000001  0.9218000000000001  1.0000
  N   N264      1.0  0.0  0.9637  0.8862  1.0000
  C   C456      1.0  0.030200000000000005  0.9848000000000001  0.8885000000000001  1.0000
  C   C457      1.0  0.05380000000000001  0.9895  0.8539000000000001  1.0000
  C   C458      1.0  0.0475  0.9658000000000001  0.8210000000000001  1.0000
  C   C459      1.0  0.0774  0.0166  0.8522000000000002  1.0000
  H   H261      1.0  0.0287  0.9481000000000002  0.8201000000000003  1.0000
  C   C460      1.0  0.0709  0.9717  0.7926000000000002  1.0000
  C   C461      1.0  0.09820000000000002  0.0202  0.8237  1.0000
  H   H262      1.0  0.07920000000000002  0.0334  0.8717  1.0000
  H   H263      1.0  0.0687  0.9569  0.7716  1.0000
  C   C462      1.0  0.0978  0.9982000000000001  0.7931  1.0000
  H   H264      1.0  0.11520000000000001  0.039700000000000006  0.8239000000000002  1.0000
  N   N265      1.0  0.4907000000000001  0.9883  0.0578  1.0000
  N   N266      1.0  0.5125  0.9665000000000001  0.07940000000000001  1.0000
  N   N267      1.0  0.4636  0.0003000000000000001  0.0782  1.0000
  N   N268      1.0  0.5  0.9637  0.11380000000000001  1.0000
  C   C463      1.0  0.4698  0.9848000000000001  0.11150000000000002  1.0000
  C   C464      1.0  0.4462  0.9895  0.1461  1.0000
  C   C465      1.0  0.45250000000000007  0.9658000000000001  0.179  1.0000
  C   C466      1.0  0.4226  0.0166  0.1478  1.0000
  H   H265      1.0  0.4713000000000001  0.9481000000000002  0.1799  1.0000
  C   C467      1.0  0.4291  0.9717  0.2074  1.0000
  C   C468      1.0  0.4018  0.0202  0.1763  1.0000
  H   H266      1.0  0.42080000000000006  0.0334  0.1283  1.0000
  H   H267      1.0  0.4313  0.9569  0.2284  1.0000
  C   C469      1.0  0.4022  0.9982000000000001  0.20690000000000006  1.0000
  H   H268      1.0  0.3848000000000001  0.039700000000000006  0.1761  1.0000
  N   N269      1.0  0.9907  0.4883  0.5578000000000002  1.0000
  N   N270      1.0  0.0125  0.4665  0.5794  1.0000
  N   N271      1.0  0.9636  0.5003  0.5782  1.0000
  N   N272      1.0  0.0  0.46370000000000006  0.6138  1.0000
  C   C470      1.0  0.9698  0.4848  0.6115  1.0000
  C   C471      1.0  0.9462  0.48950000000000005  0.6461  1.0000
  C   C472      1.0  0.9525  0.4658  0.679  1.0000
  C   C473      1.0  0.9226000000000001  0.5166000000000001  0.6478  1.0000
  H   H269      1.0  0.9713  0.44810000000000005  0.6799  1.0000
  C   C474      1.0  0.9291000000000001  0.4717000000000001  0.7074  1.0000
  C   C475      1.0  0.9018  0.5202  0.6763000000000002  1.0000
  H   H270      1.0  0.9208000000000001  0.5334000000000001  0.6283000000000001  1.0000
  H   H271      1.0  0.9313  0.45690000000000003  0.7284000000000002  1.0000
  C   C476      1.0  0.9022000000000001  0.49820000000000003  0.7069000000000002  1.0000
  H   H272      1.0  0.8848000000000001  0.5397  0.6761  1.0000
  N   N273      1.0  0.0093  0.0117  0.5578000000000002  1.0000
  N   N274      1.0  0.9875000000000002  0.0335  0.5794  1.0000
  N   N275      1.0  0.0364  0.9997000000000001  0.5782  1.0000
  N   N276      1.0  0.0  0.036300000000000006  0.6138  1.0000
  C   C477      1.0  0.030200000000000005  0.015200000000000002  0.6115  1.0000
  C   C478      1.0  0.05380000000000001  0.0105  0.6461  1.0000
  C   C479      1.0  0.0475  0.03420000000000001  0.679  1.0000
  C   C480      1.0  0.0774  0.9834  0.6478  1.0000
  H   H273      1.0  0.0287  0.0519  0.6799  1.0000
  C   C481      1.0  0.0709  0.0283  0.7074  1.0000
  C   C482      1.0  0.09820000000000002  0.9798000000000001  0.6763000000000002  1.0000
  H   H274      1.0  0.07920000000000002  0.9666000000000001  0.6283000000000001  1.0000
  H   H275      1.0  0.0687  0.0431  0.7284000000000002  1.0000
  C   C483      1.0  0.0978  0.0018000000000000002  0.7069000000000002  1.0000
  H   H276      1.0  0.11520000000000001  0.9603000000000002  0.6761  1.0000
  N   N277      1.0  0.5093  0.5117  0.0578  1.0000
  N   N278      1.0  0.4875  0.5335  0.07940000000000001  1.0000
  N   N279      1.0  0.5364000000000002  0.4997  0.0782  1.0000
  N   N280      1.0  0.5  0.5363  0.11380000000000001  1.0000
  C   C484      1.0  0.5302000000000002  0.5152  0.11150000000000002  1.0000
  C   C485      1.0  0.5538  0.5105000000000001  0.1461  1.0000
  C   C486      1.0  0.5475  0.5342000000000001  0.179  1.0000
  C   C487      1.0  0.5774  0.48340000000000005  0.1478  1.0000
  H   H277      1.0  0.5287  0.5519  0.1799  1.0000
  C   C488      1.0  0.5709000000000001  0.5283  0.2074  1.0000
  C   C489      1.0  0.5982  0.47980000000000006  0.1763  1.0000
  H   H278      1.0  0.5792000000000002  0.4666  0.1283  1.0000
  H   H279      1.0  0.5687  0.5431  0.2284  1.0000
  C   C490      1.0  0.5978  0.5018  0.20690000000000006  1.0000
  H   H280      1.0  0.6152000000000002  0.46030000000000004  0.1761  1.0000
  N   N281      1.0  0.9907  0.5117  0.9422000000000001  1.0000
  N   N282      1.0  0.0125  0.5335  0.9206000000000001  1.0000
  N   N283      1.0  0.9636  0.4997  0.9218000000000001  1.0000
  N   N284      1.0  0.0  0.5363  0.8862  1.0000
  C   C491      1.0  0.9698  0.5152  0.8885000000000001  1.0000
  C   C492      1.0  0.9462  0.5105000000000001  0.8539000000000001  1.0000
  C   C493      1.0  0.9525  0.5342000000000001  0.8210000000000001  1.0000
  C   C494      1.0  0.9226000000000001  0.48340000000000005  0.8522000000000002  1.0000
  H   H281      1.0  0.9713  0.5519  0.8201000000000003  1.0000
  C   C495      1.0  0.9291000000000001  0.5283  0.7926000000000002  1.0000
  C   C496      1.0  0.9018  0.47980000000000006  0.8237  1.0000
  H   H282      1.0  0.9208000000000001  0.4666  0.8717  1.0000
  H   H283      1.0  0.9313  0.5431  0.7716  1.0000
  C   C497      1.0  0.9022000000000001  0.5018  0.7931  1.0000
  H   H284      1.0  0.8848000000000001  0.46030000000000004  0.8239000000000002  1.0000
  N   N285      1.0  0.4907000000000001  0.0117  0.44220000000000004  1.0000
  N   N286      1.0  0.5125  0.0335  0.4206  1.0000
  N   N287      1.0  0.4636  0.9997000000000001  0.4218  1.0000
  N   N288      1.0  0.5  0.036300000000000006  0.3862  1.0000
  C   C498      1.0  0.4698  0.015200000000000002  0.3885  1.0000
  C   C499      1.0  0.4462  0.0105  0.35390000000000005  1.0000
  C   C500      1.0  0.45250000000000007  0.03420000000000001  0.32100000000000006  1.0000
  C   C501      1.0  0.4226  0.9834  0.3522  1.0000
  H   H285      1.0  0.4713000000000001  0.0519  0.3201  1.0000
  C   C502      1.0  0.4291  0.0283  0.29260000000000014  1.0000
  C   C503      1.0  0.4018  0.9798000000000001  0.32370000000000004  1.0000
  H   H286      1.0  0.42080000000000006  0.9666000000000001  0.3717  1.0000
  H   H287      1.0  0.4313  0.0431  0.2716000000000001  1.0000
  C   C504      1.0  0.4022  0.0018000000000000002  0.2931  1.0000
  H   H288      1.0  0.3848000000000001  0.9603000000000002  0.3239  1.0000
  N   N289      1.0  0.7593  0.19220000000000007  0.2617000000000001  1.0000
  N   N290      1.0  0.7375000000000003  0.17060000000000006  0.2835000000000001  1.0000
  N   N291      1.0  0.7864000000000002  0.1718  0.24970000000000003  1.0000
  N   N292      1.0  0.75  0.13620000000000004  0.2863  1.0000
  C   C505      1.0  0.7802000000000002  0.13850000000000004  0.26520000000000005  1.0000
  C   C506      1.0  0.8038  0.1039  0.2605  1.0000
  C   C507      1.0  0.7975  0.071  0.2842  1.0000
  C   C508      1.0  0.8274  0.1022  0.23340000000000002  1.0000
  H   H289      1.0  0.7787  0.0701  0.30190000000000006  1.0000
  C   C509      1.0  0.8209000000000002  0.04260000000000001  0.2783  1.0000
  C   C510      1.0  0.8482  0.0737  0.2298  1.0000
  H   H290      1.0  0.8292000000000003  0.12170000000000002  0.2166  1.0000
  H   H291      1.0  0.8187000000000001  0.0216  0.2931  1.0000
  C   C511      1.0  0.8478000000000001  0.0431  0.2518  1.0000
  H   H292      1.0  0.8652000000000002  0.0739  0.2103  1.0000
  N   N293      1.0  0.2593  0.6922  0.7617  1.0000
  N   N294      1.0  0.2375  0.6706  0.7835000000000001  1.0000
  N   N295      1.0  0.2864  0.6718000000000002  0.7497000000000003  1.0000
  N   N296      1.0  0.25  0.6362  0.7863  1.0000
  C   C512      1.0  0.2802  0.6385  0.7652000000000001  1.0000
  C   C513      1.0  0.30380000000000007  0.6039  0.7605000000000002  1.0000
  C   C514      1.0  0.2975  0.571  0.7842000000000002  1.0000
  C   C515      1.0  0.32740000000000014  0.6022000000000002  0.7334  1.0000
  H   H293      1.0  0.2787  0.5701000000000002  0.8019000000000001  1.0000
  C   C516      1.0  0.32090000000000013  0.5426000000000001  0.7783  1.0000
  C   C517      1.0  0.3482  0.5737  0.7298000000000002  1.0000
  H   H294      1.0  0.3292  0.6217  0.7166  1.0000
  H   H295      1.0  0.3187000000000001  0.5216  0.7931  1.0000
  C   C518      1.0  0.34780000000000005  0.5431  0.7518  1.0000
  H   H296      1.0  0.3652  0.5739000000000002  0.7103  1.0000
  N   N297      1.0  0.7407000000000001  0.8078000000000002  0.7617  1.0000
  N   N298      1.0  0.7625  0.8294000000000001  0.7835000000000001  1.0000
  N   N299      1.0  0.7136  0.8282  0.7497000000000003  1.0000
  N   N300      1.0  0.75  0.8638000000000001  0.7863  1.0000
  C   C519      1.0  0.7198  0.8615000000000002  0.7652000000000001  1.0000
  C   C520      1.0  0.6962000000000003  0.8961000000000001  0.7605000000000002  1.0000
  C   C521      1.0  0.7025  0.9290000000000002  0.7842000000000002  1.0000
  C   C522      1.0  0.6726000000000001  0.8978000000000002  0.7334  1.0000
  H   H297      1.0  0.7213000000000003  0.9299  0.8019000000000001  1.0000
  C   C523      1.0  0.6791  0.9574  0.7783  1.0000
  C   C524      1.0  0.6518000000000003  0.9263  0.7298000000000002  1.0000
  H   H298      1.0  0.6708  0.8783000000000001  0.7166  1.0000
  H   H299      1.0  0.6813  0.9784  0.7931  1.0000
  C   C525      1.0  0.6522  0.9569  0.7518  1.0000
  H   H300      1.0  0.6348  0.9261  0.7103  1.0000
  N   N301      1.0  0.2407  0.3078  0.2617000000000001  1.0000
  N   N302      1.0  0.26250000000000007  0.3294000000000001  0.2835000000000001  1.0000
  N   N303      1.0  0.21360000000000007  0.3282000000000001  0.24970000000000003  1.0000
  N   N304      1.0  0.25  0.3638000000000001  0.2863  1.0000
  C   C526      1.0  0.21980000000000005  0.3615000000000001  0.26520000000000005  1.0000
  C   C527      1.0  0.19620000000000007  0.3961  0.2605  1.0000
  C   C528      1.0  0.20250000000000007  0.429  0.2842  1.0000
  C   C529      1.0  0.1726  0.3978000000000001  0.23340000000000002  1.0000
  H   H301      1.0  0.22130000000000002  0.4299000000000001  0.30190000000000006  1.0000
  C   C530      1.0  0.1791  0.45740000000000003  0.2783  1.0000
  C   C531      1.0  0.1518  0.4263  0.2298  1.0000
  H   H302      1.0  0.17080000000000006  0.37830000000000014  0.2166  1.0000
  H   H303      1.0  0.18130000000000004  0.4784  0.2931  1.0000
  C   C532      1.0  0.1522  0.45690000000000003  0.2518  1.0000
  H   H304      1.0  0.1348  0.4261000000000001  0.2103  1.0000
  N   N305      1.0  0.2593  0.3078  0.7383000000000002  1.0000
  N   N306      1.0  0.2375  0.3294000000000001  0.7165  1.0000
  N   N307      1.0  0.2864  0.3282000000000001  0.7503  1.0000
  N   N308      1.0  0.25  0.3638000000000001  0.7137000000000002  1.0000
  C   C533      1.0  0.2802  0.3615000000000001  0.7348  1.0000
  C   C534      1.0  0.30380000000000007  0.3961  0.7395  1.0000
  C   C535      1.0  0.2975  0.429  0.7158  1.0000
  C   C536      1.0  0.32740000000000014  0.3978000000000001  0.7666000000000002  1.0000
  H   H305      1.0  0.2787  0.4299000000000001  0.6981  1.0000
  C   C537      1.0  0.32090000000000013  0.45740000000000003  0.7217  1.0000
  C   C538      1.0  0.3482  0.4263  0.7702  1.0000
  H   H306      1.0  0.3292  0.37830000000000014  0.7834000000000002  1.0000
  H   H307      1.0  0.3187000000000001  0.4784  0.7069000000000002  1.0000
  C   C539      1.0  0.34780000000000005  0.45690000000000003  0.7482000000000002  1.0000
  H   H308      1.0  0.3652  0.4261000000000001  0.7897000000000001  1.0000
  N   N309      1.0  0.7593  0.8078000000000002  0.2383  1.0000
  N   N310      1.0  0.7375000000000003  0.8294000000000001  0.21650000000000005  1.0000
  N   N311      1.0  0.7864000000000002  0.8282  0.2503  1.0000
  N   N312      1.0  0.75  0.8638000000000001  0.2137  1.0000
  C   C540      1.0  0.7802000000000002  0.8615000000000002  0.2348  1.0000
  C   C541      1.0  0.8038  0.8961000000000001  0.23950000000000002  1.0000
  C   C542      1.0  0.7975  0.9290000000000002  0.2158  1.0000
  C   C543      1.0  0.8274  0.8978000000000002  0.2666  1.0000
  H   H309      1.0  0.7787  0.9299  0.1981  1.0000
  C   C544      1.0  0.8209000000000002  0.9574  0.22170000000000006  1.0000
  C   C545      1.0  0.8482  0.9263  0.2702  1.0000
  H   H310      1.0  0.8292000000000003  0.8783000000000001  0.2834  1.0000
  H   H311      1.0  0.8187000000000001  0.9784  0.20690000000000006  1.0000
  C   C546      1.0  0.8478000000000001  0.9569  0.24820000000000003  1.0000
  H   H312      1.0  0.8652000000000002  0.9261  0.2897  1.0000
  N   N313      1.0  0.2407  0.6922  0.2383  1.0000
  N   N314      1.0  0.26250000000000007  0.6706  0.21650000000000005  1.0000
  N   N315      1.0  0.21360000000000007  0.6718000000000002  0.2503  1.0000
  N   N316      1.0  0.25  0.6362  0.2137  1.0000
  C   C547      1.0  0.21980000000000005  0.6385  0.2348  1.0000
  C   C548      1.0  0.19620000000000007  0.6039  0.23950000000000002  1.0000
  C   C549      1.0  0.20250000000000007  0.571  0.2158  1.0000
  C   C550      1.0  0.1726  0.6022000000000002  0.2666  1.0000
  H   H313      1.0  0.22130000000000002  0.5701000000000002  0.1981  1.0000
  C   C551      1.0  0.1791  0.5426000000000001  0.22170000000000006  1.0000
  C   C552      1.0  0.1518  0.5737  0.2702  1.0000
  H   H314      1.0  0.17080000000000006  0.6217  0.2834  1.0000
  H   H315      1.0  0.18130000000000004  0.5216  0.20690000000000006  1.0000
  C   C553      1.0  0.1522  0.5431  0.24820000000000003  1.0000
  H   H316      1.0  0.1348  0.5739000000000002  0.2897  1.0000
  N   N317      1.0  0.7407000000000001  0.19220000000000007  0.7383000000000002  1.0000
  N   N318      1.0  0.7625  0.17060000000000006  0.7165  1.0000
  N   N319      1.0  0.7136  0.1718  0.7503  1.0000
  N   N320      1.0  0.75  0.13620000000000004  0.7137000000000002  1.0000
  C   C554      1.0  0.7198  0.13850000000000004  0.7348  1.0000
  C   C555      1.0  0.6962000000000003  0.1039  0.7395  1.0000
  C   C556      1.0  0.7025  0.071  0.7158  1.0000
  C   C557      1.0  0.6726000000000001  0.1022  0.7666000000000002  1.0000
  H   H317      1.0  0.7213000000000003  0.0701  0.6981  1.0000
  C   C558      1.0  0.6791  0.04260000000000001  0.7217  1.0000
  C   C559      1.0  0.6518000000000003  0.0737  0.7702  1.0000
  H   H318      1.0  0.6708  0.12170000000000002  0.7834000000000002  1.0000
  H   H319      1.0  0.6813  0.0216  0.7069000000000002  1.0000
  C   C560      1.0  0.6522  0.0431  0.7482000000000002  1.0000
  H   H320      1.0  0.6348  0.0739  0.7897000000000001  1.0000
  N   N321      1.0  0.6922  0.2383  0.2407  1.0000
  N   N322      1.0  0.6706  0.21650000000000005  0.26250000000000007  1.0000
  N   N323      1.0  0.6718000000000002  0.2503  0.21360000000000007  1.0000
  N   N324      1.0  0.6362  0.2137  0.25  1.0000
  C   C561      1.0  0.6385  0.2348  0.21980000000000005  1.0000
  C   C562      1.0  0.6039  0.23950000000000002  0.19620000000000007  1.0000
  C   C563      1.0  0.571  0.2158  0.20250000000000007  1.0000
  C   C564      1.0  0.6022000000000002  0.2666  0.1726  1.0000
  H   H321      1.0  0.5701000000000002  0.1981  0.22130000000000002  1.0000
  C   C565      1.0  0.5426000000000001  0.22170000000000006  0.1791  1.0000
  C   C566      1.0  0.5737  0.2702  0.1518  1.0000
  H   H322      1.0  0.6217  0.2834  0.17080000000000006  1.0000
  H   H323      1.0  0.5216  0.20690000000000006  0.18130000000000004  1.0000
  C   C567      1.0  0.5431  0.24820000000000003  0.1522  1.0000
  H   H324      1.0  0.5739000000000002  0.2897  0.1348  1.0000
  N   N325      1.0  0.19220000000000007  0.7383000000000002  0.7407000000000001  1.0000
  N   N326      1.0  0.17060000000000006  0.7165  0.7625  1.0000
  N   N327      1.0  0.1718  0.7503  0.7136  1.0000
  N   N328      1.0  0.13620000000000004  0.7137000000000002  0.75  1.0000
  C   C568      1.0  0.13850000000000004  0.7348  0.7198  1.0000
  C   C569      1.0  0.1039  0.7395  0.6962000000000003  1.0000
  C   C570      1.0  0.071  0.7158  0.7025  1.0000
  C   C571      1.0  0.1022  0.7666000000000002  0.6726000000000001  1.0000
  H   H325      1.0  0.0701  0.6981  0.7213000000000003  1.0000
  C   C572      1.0  0.04260000000000001  0.7217  0.6791  1.0000
  C   C573      1.0  0.0737  0.7702  0.6518000000000003  1.0000
  H   H326      1.0  0.12170000000000002  0.7834000000000002  0.6708  1.0000
  H   H327      1.0  0.0216  0.7069000000000002  0.6813  1.0000
  C   C574      1.0  0.0431  0.7482000000000002  0.6522  1.0000
  H   H328      1.0  0.0739  0.7897000000000001  0.6348  1.0000
  N   N329      1.0  0.3078  0.7383000000000002  0.2593  1.0000
  N   N330      1.0  0.3294000000000001  0.7165  0.2375  1.0000
  N   N331      1.0  0.3282000000000001  0.7503  0.2864  1.0000
  N   N332      1.0  0.3638000000000001  0.7137000000000002  0.25  1.0000
  C   C575      1.0  0.3615000000000001  0.7348  0.2802  1.0000
  C   C576      1.0  0.3961  0.7395  0.30380000000000007  1.0000
  C   C577      1.0  0.429  0.7158  0.2975  1.0000
  C   C578      1.0  0.3978000000000001  0.7666000000000002  0.32740000000000014  1.0000
  H   H329      1.0  0.4299000000000001  0.6981  0.2787  1.0000
  C   C579      1.0  0.45740000000000003  0.7217  0.32090000000000013  1.0000
  C   C580      1.0  0.4263  0.7702  0.3482  1.0000
  H   H330      1.0  0.37830000000000014  0.7834000000000002  0.3292  1.0000
  H   H331      1.0  0.4784  0.7069000000000002  0.3187000000000001  1.0000
  C   C581      1.0  0.45690000000000003  0.7482000000000002  0.34780000000000005  1.0000
  H   H332      1.0  0.4261000000000001  0.7897000000000001  0.3652  1.0000
  N   N333      1.0  0.8078000000000002  0.2383  0.7593  1.0000
  N   N334      1.0  0.8294000000000001  0.21650000000000005  0.7375000000000003  1.0000
  N   N335      1.0  0.8282  0.2503  0.7864000000000002  1.0000
  N   N336      1.0  0.8638000000000001  0.2137  0.75  1.0000
  C   C582      1.0  0.8615000000000002  0.2348  0.7802000000000002  1.0000
  C   C583      1.0  0.8961000000000001  0.23950000000000002  0.8038  1.0000
  C   C584      1.0  0.9290000000000002  0.2158  0.7975  1.0000
  C   C585      1.0  0.8978000000000002  0.2666  0.8274  1.0000
  H   H333      1.0  0.9299  0.1981  0.7787  1.0000
  C   C586      1.0  0.9574  0.22170000000000006  0.8209000000000002  1.0000
  C   C587      1.0  0.9263  0.2702  0.8482  1.0000
  H   H334      1.0  0.8783000000000001  0.2834  0.8292000000000003  1.0000
  H   H335      1.0  0.9784  0.20690000000000006  0.8187000000000001  1.0000
  C   C588      1.0  0.9569  0.24820000000000003  0.8478000000000001  1.0000
  H   H336      1.0  0.9261  0.2897  0.8652000000000002  1.0000
  N   N337      1.0  0.8078000000000002  0.7617  0.7407000000000001  1.0000
  N   N338      1.0  0.8294000000000001  0.7835000000000001  0.7625  1.0000
  N   N339      1.0  0.8282  0.7497000000000003  0.7136  1.0000
  N   N340      1.0  0.8638000000000001  0.7863  0.75  1.0000
  C   C589      1.0  0.8615000000000002  0.7652000000000001  0.7198  1.0000
  C   C590      1.0  0.8961000000000001  0.7605000000000002  0.6962000000000003  1.0000
  C   C591      1.0  0.9290000000000002  0.7842000000000002  0.7025  1.0000
  C   C592      1.0  0.8978000000000002  0.7334  0.6726000000000001  1.0000
  H   H337      1.0  0.9299  0.8019000000000001  0.7213000000000003  1.0000
  C   C593      1.0  0.9574  0.7783  0.6791  1.0000
  C   C594      1.0  0.9263  0.7298000000000002  0.6518000000000003  1.0000
  H   H338      1.0  0.8783000000000001  0.7166  0.6708  1.0000
  H   H339      1.0  0.9784  0.7931  0.6813  1.0000
  C   C595      1.0  0.9569  0.7518  0.6522  1.0000
  H   H340      1.0  0.9261  0.7103  0.6348  1.0000
  N   N341      1.0  0.3078  0.2617000000000001  0.2407  1.0000
  N   N342      1.0  0.3294000000000001  0.2835000000000001  0.26250000000000007  1.0000
  N   N343      1.0  0.3282000000000001  0.24970000000000003  0.21360000000000007  1.0000
  N   N344      1.0  0.3638000000000001  0.2863  0.25  1.0000
  C   C596      1.0  0.3615000000000001  0.26520000000000005  0.21980000000000005  1.0000
  C   C597      1.0  0.3961  0.2605  0.19620000000000007  1.0000
  C   C598      1.0  0.429  0.2842  0.20250000000000007  1.0000
  C   C599      1.0  0.3978000000000001  0.23340000000000002  0.1726  1.0000
  H   H341      1.0  0.4299000000000001  0.30190000000000006  0.22130000000000002  1.0000
  C   C600      1.0  0.45740000000000003  0.2783  0.1791  1.0000
  C   C601      1.0  0.4263  0.2298  0.1518  1.0000
  H   H342      1.0  0.37830000000000014  0.2166  0.17080000000000006  1.0000
  H   H343      1.0  0.4784  0.2931  0.18130000000000004  1.0000
  C   C602      1.0  0.45690000000000003  0.2518  0.1522  1.0000
  H   H344      1.0  0.4261000000000001  0.2103  0.1348  1.0000
  N   N345      1.0  0.19220000000000007  0.2617000000000001  0.7593  1.0000
  N   N346      1.0  0.17060000000000006  0.2835000000000001  0.7375000000000003  1.0000
  N   N347      1.0  0.1718  0.24970000000000003  0.7864000000000002  1.0000
  N   N348      1.0  0.13620000000000004  0.2863  0.75  1.0000
  C   C603      1.0  0.13850000000000004  0.26520000000000005  0.7802000000000002  1.0000
  C   C604      1.0  0.1039  0.2605  0.8038  1.0000
  C   C605      1.0  0.071  0.2842  0.7975  1.0000
  C   C606      1.0  0.1022  0.23340000000000002  0.8274  1.0000
  H   H345      1.0  0.0701  0.30190000000000006  0.7787  1.0000
  C   C607      1.0  0.04260000000000001  0.2783  0.8209000000000002  1.0000
  C   C608      1.0  0.0737  0.2298  0.8482  1.0000
  H   H346      1.0  0.12170000000000002  0.2166  0.8292000000000003  1.0000
  H   H347      1.0  0.0216  0.2931  0.8187000000000001  1.0000
  C   C609      1.0  0.0431  0.2518  0.8478000000000001  1.0000
  H   H348      1.0  0.0739  0.2103  0.8652000000000002  1.0000
  N   N349      1.0  0.6922  0.7617  0.2593  1.0000
  N   N350      1.0  0.6706  0.7835000000000001  0.2375  1.0000
  N   N351      1.0  0.6718000000000002  0.7497000000000003  0.2864  1.0000
  N   N352      1.0  0.6362  0.7863  0.25  1.0000
  C   C610      1.0  0.6385  0.7652000000000001  0.2802  1.0000
  C   C611      1.0  0.6039  0.7605000000000002  0.30380000000000007  1.0000
  C   C612      1.0  0.571  0.7842000000000002  0.2975  1.0000
  C   C613      1.0  0.6022000000000002  0.7334  0.32740000000000014  1.0000
  H   H349      1.0  0.5701000000000002  0.8019000000000001  0.2787  1.0000
  C   C614      1.0  0.5426000000000001  0.7783  0.32090000000000013  1.0000
  C   C615      1.0  0.5737  0.7298000000000002  0.3482  1.0000
  H   H350      1.0  0.6217  0.7166  0.3292  1.0000
  H   H351      1.0  0.5216  0.7931  0.3187000000000001  1.0000
  C   C616      1.0  0.5431  0.7518  0.34780000000000005  1.0000
  H   H352      1.0  0.5739000000000002  0.7103  0.3652  1.0000
  N   N353      1.0  0.7383000000000002  0.2593  0.3078  1.0000
  N   N354      1.0  0.7165  0.2375  0.3294000000000001  1.0000
  N   N355      1.0  0.7503  0.2864  0.3282000000000001  1.0000
  N   N356      1.0  0.7137000000000002  0.25  0.3638000000000001  1.0000
  C   C617      1.0  0.7348  0.2802  0.3615000000000001  1.0000
  C   C618      1.0  0.7395  0.30380000000000007  0.3961  1.0000
  C   C619      1.0  0.7158  0.2975  0.429  1.0000
  C   C620      1.0  0.7666000000000002  0.32740000000000014  0.3978000000000001  1.0000
  H   H353      1.0  0.6981  0.2787  0.4299000000000001  1.0000
  C   C621      1.0  0.7217  0.32090000000000013  0.45740000000000003  1.0000
  C   C622      1.0  0.7702  0.3482  0.4263  1.0000
  H   H354      1.0  0.7834000000000002  0.3292  0.37830000000000014  1.0000
  H   H355      1.0  0.7069000000000002  0.3187000000000001  0.4784  1.0000
  C   C623      1.0  0.7482000000000002  0.34780000000000005  0.45690000000000003  1.0000
  H   H356      1.0  0.7897000000000001  0.3652  0.4261000000000001  1.0000
  N   N357      1.0  0.2383  0.7593  0.8078000000000002  1.0000
  N   N358      1.0  0.21650000000000005  0.7375000000000003  0.8294000000000001  1.0000
  N   N359      1.0  0.2503  0.7864000000000002  0.8282  1.0000
  N   N360      1.0  0.2137  0.75  0.8638000000000001  1.0000
  C   C624      1.0  0.2348  0.7802000000000002  0.8615000000000002  1.0000
  C   C625      1.0  0.23950000000000002  0.8038  0.8961000000000001  1.0000
  C   C626      1.0  0.2158  0.7975  0.9290000000000002  1.0000
  C   C627      1.0  0.2666  0.8274  0.8978000000000002  1.0000
  H   H357      1.0  0.1981  0.7787  0.9299  1.0000
  C   C628      1.0  0.22170000000000006  0.8209000000000002  0.9574  1.0000
  C   C629      1.0  0.2702  0.8482  0.9263  1.0000
  H   H358      1.0  0.2834  0.8292000000000003  0.8783000000000001  1.0000
  H   H359      1.0  0.20690000000000006  0.8187000000000001  0.9784  1.0000
  C   C630      1.0  0.24820000000000003  0.8478000000000001  0.9569  1.0000
  H   H360      1.0  0.2897  0.8652000000000002  0.9261  1.0000
  N   N361      1.0  0.2383  0.2407  0.6922  1.0000
  N   N362      1.0  0.21650000000000005  0.26250000000000007  0.6706  1.0000
  N   N363      1.0  0.2503  0.21360000000000007  0.6718000000000002  1.0000
  N   N364      1.0  0.2137  0.25  0.6362  1.0000
  C   C631      1.0  0.2348  0.21980000000000005  0.6385  1.0000
  C   C632      1.0  0.23950000000000002  0.19620000000000007  0.6039  1.0000
  C   C633      1.0  0.2158  0.20250000000000007  0.571  1.0000
  C   C634      1.0  0.2666  0.1726  0.6022000000000002  1.0000
  H   H361      1.0  0.1981  0.22130000000000002  0.5701000000000002  1.0000
  C   C635      1.0  0.22170000000000006  0.1791  0.5426000000000001  1.0000
  C   C636      1.0  0.2702  0.1518  0.5737  1.0000
  H   H362      1.0  0.2834  0.17080000000000006  0.6217  1.0000
  H   H363      1.0  0.20690000000000006  0.18130000000000004  0.5216  1.0000
  C   C637      1.0  0.24820000000000003  0.1522  0.5431  1.0000
  H   H364      1.0  0.2897  0.1348  0.5739000000000002  1.0000
  N   N365      1.0  0.7383000000000002  0.7407000000000001  0.19220000000000007  1.0000
  N   N366      1.0  0.7165  0.7625  0.17060000000000006  1.0000
  N   N367      1.0  0.7503  0.7136  0.1718  1.0000
  N   N368      1.0  0.7137000000000002  0.75  0.13620000000000004  1.0000
  C   C638      1.0  0.7348  0.7198  0.13850000000000004  1.0000
  C   C639      1.0  0.7395  0.6962000000000003  0.1039  1.0000
  C   C640      1.0  0.7158  0.7025  0.071  1.0000
  C   C641      1.0  0.7666000000000002  0.6726000000000001  0.1022  1.0000
  H   H365      1.0  0.6981  0.7213000000000003  0.0701  1.0000
  C   C642      1.0  0.7217  0.6791  0.04260000000000001  1.0000
  C   C643      1.0  0.7702  0.6518000000000003  0.0737  1.0000
  H   H366      1.0  0.7834000000000002  0.6708  0.12170000000000002  1.0000
  H   H367      1.0  0.7069000000000002  0.6813  0.0216  1.0000
  C   C644      1.0  0.7482000000000002  0.6522  0.0431  1.0000
  H   H368      1.0  0.7897000000000001  0.6348  0.0739  1.0000
  N   N369      1.0  0.2617000000000001  0.7593  0.19220000000000007  1.0000
  N   N370      1.0  0.2835000000000001  0.7375000000000003  0.17060000000000006  1.0000
  N   N371      1.0  0.24970000000000003  0.7864000000000002  0.1718  1.0000
  N   N372      1.0  0.2863  0.75  0.13620000000000004  1.0000
  C   C645      1.0  0.26520000000000005  0.7802000000000002  0.13850000000000004  1.0000
  C   C646      1.0  0.2605  0.8038  0.1039  1.0000
  C   C647      1.0  0.2842  0.7975  0.071  1.0000
  C   C648      1.0  0.23340000000000002  0.8274  0.1022  1.0000
  H   H369      1.0  0.30190000000000006  0.7787  0.0701  1.0000
  C   C649      1.0  0.2783  0.8209000000000002  0.04260000000000001  1.0000
  C   C650      1.0  0.2298  0.8482  0.0737  1.0000
  H   H370      1.0  0.2166  0.8292000000000003  0.12170000000000002  1.0000
  H   H371      1.0  0.2931  0.8187000000000001  0.0216  1.0000
  C   C651      1.0  0.2518  0.8478000000000001  0.0431  1.0000
  H   H372      1.0  0.2103  0.8652000000000002  0.0739  1.0000
  N   N373      1.0  0.7617  0.2593  0.6922  1.0000
  N   N374      1.0  0.7835000000000001  0.2375  0.6706  1.0000
  N   N375      1.0  0.7497000000000003  0.2864  0.6718000000000002  1.0000
  N   N376      1.0  0.7863  0.25  0.6362  1.0000
  C   C652      1.0  0.7652000000000001  0.2802  0.6385  1.0000
  C   C653      1.0  0.7605000000000002  0.30380000000000007  0.6039  1.0000
  C   C654      1.0  0.7842000000000002  0.2975  0.571  1.0000
  C   C655      1.0  0.7334  0.32740000000000014  0.6022000000000002  1.0000
  H   H373      1.0  0.8019000000000001  0.2787  0.5701000000000002  1.0000
  C   C656      1.0  0.7783  0.32090000000000013  0.5426000000000001  1.0000
  C   C657      1.0  0.7298000000000002  0.3482  0.5737  1.0000
  H   H374      1.0  0.7166  0.3292  0.6217  1.0000
  H   H375      1.0  0.7931  0.3187000000000001  0.5216  1.0000
  C   C658      1.0  0.7518  0.34780000000000005  0.5431  1.0000
  H   H376      1.0  0.7103  0.3652  0.5739000000000002  1.0000
  N   N377      1.0  0.7617  0.7407000000000001  0.8078000000000002  1.0000
  N   N378      1.0  0.7835000000000001  0.7625  0.8294000000000001  1.0000
  N   N379      1.0  0.7497000000000003  0.7136  0.8282  1.0000
  N   N380      1.0  0.7863  0.75  0.8638000000000001  1.0000
  C   C659      1.0  0.7652000000000001  0.7198  0.8615000000000002  1.0000
  C   C660      1.0  0.7605000000000002  0.6962000000000003  0.8961000000000001  1.0000
  C   C661      1.0  0.7842000000000002  0.7025  0.9290000000000002  1.0000
  C   C662      1.0  0.7334  0.6726000000000001  0.8978000000000002  1.0000
  H   H377      1.0  0.8019000000000001  0.7213000000000003  0.9299  1.0000
  C   C663      1.0  0.7783  0.6791  0.9574  1.0000
  C   C664      1.0  0.7298000000000002  0.6518000000000003  0.9263  1.0000
  H   H378      1.0  0.7166  0.6708  0.8783000000000001  1.0000
  H   H379      1.0  0.7931  0.6813  0.9784  1.0000
  C   C665      1.0  0.7518  0.6522  0.9569  1.0000
  H   H380      1.0  0.7103  0.6348  0.9261  1.0000
  N   N381      1.0  0.2617000000000001  0.2407  0.3078  1.0000
  N   N382      1.0  0.2835000000000001  0.26250000000000007  0.3294000000000001  1.0000
  N   N383      1.0  0.24970000000000003  0.21360000000000007  0.3282000000000001  1.0000
  N   N384      1.0  0.2863  0.25  0.3638000000000001  1.0000
  C   C666      1.0  0.26520000000000005  0.21980000000000005  0.3615000000000001  1.0000
  C   C667      1.0  0.2605  0.19620000000000007  0.3961  1.0000
  C   C668      1.0  0.2842  0.20250000000000007  0.429  1.0000
  C   C669      1.0  0.23340000000000002  0.1726  0.3978000000000001  1.0000
  H   H381      1.0  0.30190000000000006  0.22130000000000002  0.4299000000000001  1.0000
  C   C670      1.0  0.2783  0.1791  0.45740000000000003  1.0000
  C   C671      1.0  0.2298  0.1518  0.4263  1.0000
  H   H382      1.0  0.2166  0.17080000000000006  0.37830000000000014  1.0000
  H   H383      1.0  0.2931  0.18130000000000004  0.4784  1.0000
  C   C672      1.0  0.2518  0.1522  0.45690000000000003  1.0000
  H   H384      1.0  0.2103  0.1348  0.4261000000000001  1.0000
  Mn  Mn1       1.0  0.5  0.5  0.5  1.0000
  Mn  Mn2       1.0  0.0  0.0  0.0  1.0000
  Mn  Mn3       1.0  0.0  0.5  0.0  1.0000
  Mn  Mn4       1.0  0.5  0.0  0.5  1.0000
  Mn  Mn5       1.0  0.5  0.0  0.0  1.0000
  Mn  Mn6       1.0  0.0  0.5  0.5  1.0000
  Mn  Mn7       1.0  0.0  0.0  0.5  1.0000
  Mn  Mn8       1.0  0.5  0.5  0.0  1.0000
  Mn  Mn9       1.0  0.25  0.75  0.75  1.0000
  Mn  Mn10      1.0  0.25  0.25  0.25  1.0000
  Mn  Mn11      1.0  0.75  0.75  0.75  1.0000
  Mn  Mn12      1.0  0.75  0.75  0.25  1.0000
  Mn  Mn13      1.0  0.75  0.25  0.75  1.0000
  Mn  Mn14      1.0  0.75  0.25  0.25  1.0000
  Mn  Mn15      1.0  0.25  0.25  0.75  1.0000
  Mn  Mn16      1.0  0.25  0.75  0.25  1.0000
  Mn  Mn17      1.0  0.56378  0.56378  0.56378  1.0000
  Mn  Mn18      1.0  0.06378  0.06378  0.06378  1.0000
  Mn  Mn19      1.0  0.9362200000000002  0.43622  0.06378  1.0000
  Mn  Mn20      1.0  0.43622  0.9362200000000002  0.56378  1.0000
  Mn  Mn21      1.0  0.43622  0.06378  0.9362200000000002  1.0000
  Mn  Mn22      1.0  0.9362200000000002  0.56378  0.43622  1.0000
  Mn  Mn23      1.0  0.06378  0.9362200000000002  0.43622  1.0000
  Mn  Mn24      1.0  0.56378  0.43622  0.9362200000000002  1.0000
  Mn  Mn25      1.0  0.31378  0.81378  0.68622  1.0000
  Mn  Mn26      1.0  0.81378  0.31378  0.18622000000000002  1.0000
  Mn  Mn27      1.0  0.18622000000000002  0.18622000000000002  0.18622000000000002  1.0000
  Mn  Mn28      1.0  0.68622  0.68622  0.68622  1.0000
  Mn  Mn29      1.0  0.81378  0.68622  0.31378  1.0000
  Mn  Mn30      1.0  0.31378  0.18622000000000002  0.81378  1.0000
  Mn  Mn31      1.0  0.68622  0.31378  0.81378  1.0000
  Mn  Mn32      1.0  0.18622000000000002  0.81378  0.31378  1.0000
  Mn  Mn33      1.0  0.43622  0.43622  0.43622  1.0000
  Mn  Mn34      1.0  0.9362200000000002  0.9362200000000002  0.9362200000000002  1.0000
  Mn  Mn35      1.0  0.06378  0.56378  0.9362200000000002  1.0000
  Mn  Mn36      1.0  0.56378  0.06378  0.43622  1.0000
  Mn  Mn37      1.0  0.56378  0.9362200000000002  0.06378  1.0000
  Mn  Mn38      1.0  0.06378  0.43622  0.56378  1.0000
  Mn  Mn39      1.0  0.9362200000000002  0.06378  0.56378  1.0000
  Mn  Mn40      1.0  0.43622  0.56378  0.06378  1.0000
  Mn  Mn41      1.0  0.68622  0.18622000000000002  0.31378  1.0000
  Mn  Mn42      1.0  0.18622000000000002  0.68622  0.81378  1.0000
  Mn  Mn43      1.0  0.81378  0.81378  0.81378  1.0000
  Mn  Mn44      1.0  0.31378  0.31378  0.31378  1.0000
  Mn  Mn45      1.0  0.18622000000000002  0.31378  0.68622  1.0000
  Mn  Mn46      1.0  0.68622  0.81378  0.18622000000000002  1.0000
  Mn  Mn47      1.0  0.31378  0.68622  0.18622000000000002  1.0000
  Mn  Mn48      1.0  0.81378  0.18622000000000002  0.68622  1.0000
  Si  Si1       1.0  0.75  0.375  0.5  1.0000
  Si  Si2       1.0  0.75  0.6250000000000002  0.0  1.0000
  Si  Si3       1.0  0.25  0.875  0.0  1.0000
  Si  Si4       1.0  0.25  0.125  0.5  1.0000
  Si  Si5       1.0  0.5  0.75  0.375  1.0000
  Si  Si6       1.0  0.0  0.75  0.6250000000000002  1.0000
  Si  Si7       1.0  0.0  0.25  0.875  1.0000
  Si  Si8       1.0  0.5  0.25  0.125  1.0000
  Si  Si9       1.0  0.375  0.5  0.75  1.0000
  Si  Si10      1.0  0.6250000000000002  0.0  0.75  1.0000
  Si  Si11      1.0  0.875  0.0  0.25  1.0000
  Si  Si12      1.0  0.125  0.5  0.25  1.0000
  Si  Si13      1.0  0.125  0.0  0.75  1.0000
  Si  Si14      1.0  0.375  0.0  0.25  1.0000
  Si  Si15      1.0  0.6250000000000002  0.5  0.25  1.0000
  Si  Si16      1.0  0.875  0.5  0.75  1.0000
  Si  Si17      1.0  0.5  0.75  0.875  1.0000
  Si  Si18      1.0  0.5  0.25  0.6250000000000002  1.0000
  Si  Si19      1.0  0.0  0.25  0.375  1.0000
  Si  Si20      1.0  0.0  0.75  0.125  1.0000
  Si  Si21      1.0  0.25  0.6250000000000002  0.5  1.0000
  Si  Si22      1.0  0.75  0.875  0.5  1.0000
  Si  Si23      1.0  0.75  0.125  0.0  1.0000
  Si  Si24      1.0  0.25  0.375  0.0  1.0000
