data_image0
_chemical_formula_structural       Cd24Si12H192C336N192
_chemical_formula_sum              "Cd24 Si12 H192 C336 N192"
_cell_length_a       32.0208
_cell_length_b       32.0208
_cell_length_c       32.0208
_cell_angle_alpha    109.471
_cell_angle_beta     109.471
_cell_angle_gamma    109.471

_symmetry_space_group_name_H-M    'P 1'
_symmetry_Int_Tables_number       1

loop_
  _symmetry_equiv_pos_as_xyz
  'x,y,z'

loop_
  _atom_site_type_symbol
  _atom_site_label
  _atom_site_symmetry_multiplicity
  _atom_site_fract_x
  _atom_site_fract_y
  _atom_site_fract_z
  _atom_site_occupancy
  Cd  Cd1       1.0  0.0  0.5  0.37166  1.0000
  Cd  Cd2       1.0  2.7737546210592028e-17  0.5  0.87166  1.0000
  Cd  Cd3       1.0  0.5  0.87166  0.5  1.0000
  Cd  Cd4       1.0  0.5  0.0  0.0  1.0000
  Cd  Cd5       1.0  0.37166  0.3716600000000001  0.87166  1.0000
  Cd  Cd6       1.0  0.5  0.12834  0.5  1.0000
  Cd  Cd7       1.0  0.0  0.0  0.5  1.0000
  Cd  Cd8       1.0  0.0  0.5  0.62834  1.0000
  Cd  Cd9       1.0  0.5  0.5  0.5  1.0000
  Cd  Cd10      1.0  0.62834  0.6283400000000002  0.12834  1.0000
  Cd  Cd11      1.0  0.8716600000000001  0.87166  0.37166  1.0000
  Cd  Cd12      1.0  0.37166  0.0  0.0  1.0000
  Cd  Cd13      1.0  0.12833999999999995  0.12834  0.62834  1.0000
  Cd  Cd14      1.0  0.5  0.5  0.0  1.0000
  Cd  Cd15      1.0  0.12834  0.0  0.0  1.0000
  Cd  Cd16      1.0  0.5  0.0  0.5  1.0000
  Cd  Cd17      1.0  0.62834  0.0  0.0  1.0000
  Cd  Cd18      1.0  0.0  0.5  0.0  1.0000
  Cd  Cd19      1.0  0.0  0.5  0.5  1.0000
  Cd  Cd20      1.0  0.87166  0.0  0.0  1.0000
  Cd  Cd21      1.0  0.5  0.3716600000000001  0.5  1.0000
  Cd  Cd22      1.0  0.0  0.5  0.12834  1.0000
  Cd  Cd23      1.0  0.0  0.0  0.0  1.0000
  Cd  Cd24      1.0  0.5000000000000001  0.6283400000000002  0.5  1.0000
  Si  Si1       1.0  0.25  0.375  0.125  1.0000
  Si  Si2       1.0  0.625  0.375  0.25  1.0000
  Si  Si3       1.0  0.875  0.12500000000000006  0.75  1.0000
  Si  Si4       1.0  0.12499999999999997  0.875  0.25  1.0000
  Si  Si5       1.0  0.375  0.625  0.75  1.0000
  Si  Si6       1.0  0.625  0.25  0.875  1.0000
  Si  Si7       1.0  0.75  0.625  0.875  1.0000
  Si  Si8       1.0  0.75  0.12500000000000006  0.375  1.0000
  Si  Si9       1.0  0.875  0.75  0.625  1.0000
  Si  Si10      1.0  0.375  0.75  0.125  1.0000
  Si  Si11      1.0  0.12500000000000003  0.25  0.375  1.0000
  Si  Si12      1.0  0.25000000000000006  0.875  0.625  1.0000
  H   H1        1.0  0.9563  0.6651  0.5532  1.0000
  H   H2        1.0  0.40310000000000007  0.4468000000000001  0.1119  1.0000
  H   H3        1.0  0.20870000000000008  0.6160000000000001  0.9781000000000002  1.0000
  H   H4        1.0  0.5219  0.7306  0.1379  1.0000
  H   H5        1.0  0.7912000000000001  0.4563  0.4031  1.0000
  H   H6        1.0  0.6412000000000001  0.5692000000000002  0.8460000000000001  1.0000
  H   H7        1.0  0.8881  0.8349  0.7912000000000002  1.0000
  H   H8        1.0  0.12050000000000004  0.7948000000000002  0.2739  1.0000
  H   H9        1.0  0.3349  0.9468  0.5437  1.0000
  H   H10       1.0  0.1379  0.9073  0.11600000000000002  1.0000
  H   H11       1.0  0.8466  0.7261000000000002  0.5209  1.0000
  H   H12       1.0  0.15400000000000005  0.22319999999999998  0.2952  1.0000
  H   H13       1.0  0.20870000000000002  0.5927  0.7306000000000001  1.0000
  H   H14       1.0  0.09690000000000011  0.8881  0.5532  1.0000
  H   H15       1.0  0.38810000000000006  0.7912000000000002  0.8349  1.0000
  H   H16       1.0  0.9307999999999998  0.8587999999999999  0.654  1.0000
  H   H17       1.0  0.021900000000000037  0.13790000000000002  0.7306000000000001  1.0000
  H   H18       1.0  0.3466  0.8257  0.1205  1.0000
  H   H19       1.0  0.6651000000000004  0.6119  0.7088000000000002  1.0000
  H   H20       1.0  0.7694  0.7913  0.9073  1.0000
  H   H21       1.0  0.2261  0.3466  0.0209  1.0000
  H   H22       1.0  0.1540000000000002  0.9308000000000002  0.3588  1.0000
  H   H23       1.0  0.5692  0.346  0.14120000000000002  1.0000
  H   H24       1.0  0.1534  0.8795  0.1743  1.0000
  H   H25       1.0  0.384  0.8621000000000001  0.5927  1.0000
  H   H26       1.0  0.2048000000000001  0.3588000000000001  0.42800000000000005  1.0000
  H   H27       1.0  0.2232  0.7952  0.654  1.0000
  H   H28       1.0  0.928  0.7232  0.5692  1.0000
  H   H29       1.0  0.4468  0.6119  0.9031000000000001  1.0000
  H   H30       1.0  0.5209  0.22610000000000005  0.8466  1.0000
  H   H31       1.0  0.7088000000000002  0.5969  0.5437  1.0000
  H   H32       1.0  0.2948  0.6205  0.7739  1.0000
  H   H33       1.0  0.5692000000000002  0.22320000000000015  0.9280000000000002  1.0000
  H   H34       1.0  0.1412  0.2952  0.072  1.0000
  H   H35       1.0  0.17430000000000007  0.7948000000000002  0.5209  1.0000
  H   H36       1.0  0.27680000000000005  0.9308000000000001  0.572  1.0000
  H   H37       1.0  0.7087  0.7306  0.5927  1.0000
  H   H38       1.0  0.42799999999999994  0.8588  0.2048  1.0000
  H   H39       1.0  0.9308000000000001  0.07200000000000004  0.7768000000000002  1.0000
  H   H40       1.0  0.2694000000000001  0.9073  0.7913  1.0000
  H   H41       1.0  0.9073000000000004  0.29130000000000017  0.7694000000000002  1.0000
  H   H42       1.0  0.2052  0.22610000000000005  0.3795  1.0000
  H   H43       1.0  0.20520000000000005  0.9791000000000002  0.3257  1.0000
  H   H44       1.0  0.11189999999999999  0.9467999999999999  0.4031  1.0000
  H   H45       1.0  0.043699999999999996  0.7088  0.0969  1.0000
  H   H46       1.0  0.3588  0.4308  0.15400000000000005  1.0000
  H   H47       1.0  0.07200000000000001  0.2768  0.4308  1.0000
  H   H48       1.0  0.6379  0.5219  0.2306  1.0000
  H   H49       1.0  0.846  0.06920000000000005  0.6412000000000001  1.0000
  H   H50       1.0  0.47810000000000014  0.26940000000000003  0.8621000000000001  1.0000
  H   H51       1.0  0.7739  0.1205  0.2948  1.0000
  H   H52       1.0  0.23059999999999997  0.20869999999999997  0.0927  1.0000
  H   H53       1.0  0.5531999999999999  0.16510000000000002  0.9563000000000001  1.0000
  H   H54       1.0  0.572  0.4308  0.2768  1.0000
  H   H55       1.0  0.17430000000000004  0.37950000000000006  0.1534  1.0000
  H   H56       1.0  0.3621000000000002  0.47810000000000025  0.7694000000000002  1.0000
  H   H57       1.0  0.4031000000000002  0.9563000000000004  0.7912000000000002  1.0000
  H   H58       1.0  0.09270000000000005  0.384  0.3621  1.0000
  H   H59       1.0  0.6160000000000002  0.13790000000000002  0.40730000000000005  1.0000
  H   H60       1.0  0.1379  0.23060000000000005  0.5219  1.0000
  H   H61       1.0  0.7052000000000002  0.3257000000000002  0.9791  1.0000
  H   H62       1.0  0.12050000000000002  0.3257000000000001  0.3466  1.0000
  H   H63       1.0  0.6651000000000002  0.05320000000000001  0.4563  1.0000
  H   H64       1.0  0.6119  0.4031  0.9468  1.0000
  H   H65       1.0  0.6205000000000002  0.2739  0.7948  1.0000
  H   H66       1.0  0.04369999999999998  0.3349  0.4468  1.0000
  H   H67       1.0  0.7087000000000002  0.9781000000000003  0.6160000000000002  1.0000
  H   H68       1.0  0.36210000000000003  0.8840000000000002  0.0927  1.0000
  H   H69       1.0  0.020900000000000068  0.8466000000000002  0.22610000000000002  1.0000
  H   H70       1.0  0.4468  0.8349  0.04370000000000001  1.0000
  H   H71       1.0  0.2912  0.4031  0.4563  1.0000
  H   H72       1.0  0.3257000000000001  0.8466000000000002  0.6205  1.0000
  H   H73       1.0  0.02190000000000006  0.8840000000000002  0.7913  1.0000
  H   H74       1.0  0.8466  0.1205  0.8257  1.0000
  H   H75       1.0  0.1651  0.7088  0.6119  1.0000
  H   H76       1.0  0.5219000000000004  0.7913000000000004  0.8840000000000002  1.0000
  H   H77       1.0  0.3588000000000001  0.9280000000000002  0.7048000000000001  1.0000
  H   H78       1.0  0.2306  0.021900000000000013  0.6379  1.0000
  H   H79       1.0  0.654  0.2952  0.2232  1.0000
  H   H80       1.0  0.8795  0.2052  0.7261  1.0000
  H   H81       1.0  0.34600000000000003  0.7048  0.7768000000000002  1.0000
  H   H82       1.0  0.8588000000000001  0.7048000000000001  0.9280000000000002  1.0000
  H   H83       1.0  0.4073000000000001  0.7694000000000002  0.2913  1.0000
  H   H84       1.0  0.8881  0.05320000000000001  0.5969  1.0000
  H   H85       1.0  0.8588  0.154  0.4308  1.0000
  H   H86       1.0  0.27390000000000014  0.9791000000000002  0.6534000000000001  1.0000
  H   H87       1.0  0.2913  0.02190000000000004  0.38400000000000006  1.0000
  H   H88       1.0  0.2948000000000001  0.6743000000000002  0.0209  1.0000
  H   H89       1.0  0.6540000000000001  0.35880000000000006  0.9308  1.0000
  H   H90       1.0  0.9563  0.29120000000000007  0.9031000000000001  1.0000
  H   H91       1.0  0.5969  0.04370000000000003  0.20880000000000007  1.0000
  H   H92       1.0  0.346  0.6412  0.0692  1.0000
  H   H93       1.0  0.9073000000000001  0.616  0.6379  1.0000
  H   H94       1.0  0.5532  0.3881  0.0969  1.0000
  H   H95       1.0  0.6160000000000002  0.47810000000000014  0.7087  1.0000
  H   H96       1.0  0.47810000000000014  0.20870000000000002  0.11600000000000002  1.0000
  H   H97       1.0  0.43080000000000007  0.7768000000000003  0.072  1.0000
  H   H98       1.0  0.6743  0.5209  0.7948  1.0000
  H   H99       1.0  0.8257  0.6205  0.8466  1.0000
  H   H100      1.0  0.2912  0.8881  0.3349  1.0000
  H   H101      1.0  0.5209  0.2948  0.1743  1.0000
  H   H102      1.0  0.2768  0.346  0.2048  1.0000
  H   H103      1.0  0.07200000000000008  0.7952000000000001  0.14120000000000002  1.0000
  H   H104      1.0  0.572  0.1412  0.7952  1.0000
  H   H105      1.0  0.4563  0.5532  0.6651  1.0000
  H   H106      1.0  0.7088000000000001  0.11189999999999996  0.6651  1.0000
  H   H107      1.0  0.0969  0.2088  0.04370000000000001  1.0000
  H   H108      1.0  0.05320000000000009  0.9563000000000003  0.16510000000000002  1.0000
  H   H109      1.0  0.5437  0.44680000000000003  0.3349  1.0000
  H   H110      1.0  0.7948000000000004  0.02090000000000005  0.6743000000000001  1.0000
  H   H111      1.0  0.6534  0.17430000000000007  0.8795000000000001  1.0000
  H   H112      1.0  0.884  0.5927000000000001  0.8621000000000001  1.0000
  H   H113      1.0  0.06920000000000001  0.928  0.2232  1.0000
  H   H114      1.0  0.3795000000000001  0.7261000000000002  0.20520000000000005  1.0000
  H   H115      1.0  0.1534  0.2739  0.4791  1.0000
  H   H116      1.0  0.0927000000000001  0.7087  0.2306  1.0000
  H   H117      1.0  0.6412  0.07199999999999997  0.2952  1.0000
  H   H118      1.0  0.8795000000000001  0.6743000000000002  0.6534000000000001  1.0000
  H   H119      1.0  0.7912  0.3349  0.8881  1.0000
  H   H120      1.0  0.5927  0.36210000000000003  0.38400000000000006  1.0000
  H   H121      1.0  0.7767999999999999  0.2048  0.346  1.0000
  H   H122      1.0  0.7739  0.6534  0.9791  1.0000
  H   H123      1.0  0.8349  0.2912  0.3881  1.0000
  H   H124      1.0  0.8460000000000001  0.7768000000000003  0.7048000000000001  1.0000
  H   H125      1.0  0.2739  0.2948  0.1205  1.0000
  H   H126      1.0  0.7261  0.02090000000000002  0.3466  1.0000
  H   H127      1.0  0.45630000000000004  0.9031000000000002  0.2912  1.0000
  H   H128      1.0  0.38810000000000006  0.5969  0.053200000000000004  1.0000
  H   H129      1.0  0.7261000000000002  0.7052000000000002  0.8795000000000001  1.0000
  H   H130      1.0  0.4791  0.7739  0.1534  1.0000
  H   H131      1.0  0.7305999999999999  0.6379  0.0219  1.0000
  H   H132      1.0  0.2952  0.7232  0.15400000000000005  1.0000
  H   H133      1.0  0.7913  0.4073  0.2694  1.0000
  H   H134      1.0  0.7232  0.654  0.7952  1.0000
  H   H135      1.0  0.20879999999999999  0.6651  0.1119  1.0000
  H   H136      1.0  0.7913  0.384  0.0219  1.0000
  H   H137      1.0  0.5437  0.09690000000000011  0.7088000000000002  1.0000
  H   H138      1.0  0.7768  0.572  0.9308  1.0000
  H   H139      1.0  0.4791  0.7052  0.8257  1.0000
  H   H140      1.0  0.384  0.5219  0.2913  1.0000
  H   H141      1.0  0.7948000000000002  0.7739  0.6205  1.0000
  H   H142      1.0  0.6119  0.2088  0.16510000000000002  1.0000
  H   H143      1.0  0.29130000000000006  0.2694  0.40730000000000005  1.0000
  H   H144      1.0  0.8349  0.5437  0.9468  1.0000
  H   H145      1.0  0.9031  0.7912000000000002  0.9563000000000001  1.0000
  H   H146      1.0  0.1651  0.4563  0.053200000000000004  1.0000
  H   H147      1.0  0.6205  0.3466  0.3257  1.0000
  H   H148      1.0  0.8257  0.2052  0.4791  1.0000
  H   H149      1.0  0.8621  0.7694000000000001  0.4781  1.0000
  H   H150      1.0  0.14119999999999996  0.846  0.5692  1.0000
  H   H151      1.0  0.9781  0.116  0.2087  1.0000
  H   H152      1.0  0.4073000000000001  0.6379000000000001  0.6160000000000002  1.0000
  H   H153      1.0  0.4308  0.654  0.8588  1.0000
  H   H154      1.0  0.22320000000000007  0.428  0.0692  1.0000
  H   H155      1.0  0.9030999999999999  0.11189999999999997  0.4468  1.0000
  H   H156      1.0  0.7048  0.2768000000000001  0.8460000000000001  1.0000
  H   H157      1.0  0.42800000000000005  0.5692000000000002  0.7232000000000002  1.0000
  H   H158      1.0  0.3257  0.4791  0.20520000000000005  1.0000
  H   H159      1.0  0.6534  0.4791  0.2739  1.0000
  H   H160      1.0  0.7952  0.6412  0.572  1.0000
  H   H161      1.0  0.20879999999999996  0.5437  0.5969  1.0000
  H   H162      1.0  0.7052  0.37950000000000006  0.22610000000000002  1.0000
  H   H163      1.0  0.7952  0.1540000000000001  0.7232000000000002  1.0000
  H   H164      1.0  0.2952000000000001  0.572  0.6412000000000001  1.0000
  H   H165      1.0  0.11190000000000003  0.16510000000000002  0.20880000000000007  1.0000
  H   H166      1.0  0.2048  0.846  0.2768  1.0000
  H   H167      1.0  0.06919999999999998  0.1412  0.346  1.0000
  H   H168      1.0  0.5969  0.5532  0.8881  1.0000
  H   H169      1.0  0.9468  0.9031  0.6119  1.0000
  H   H170      1.0  0.11600000000000002  0.4073  0.1379  1.0000
  H   H171      1.0  0.26940000000000014  0.36210000000000003  0.9781000000000002  1.0000
  H   H172      1.0  0.7232  0.06920000000000003  0.42800000000000005  1.0000
  H   H173      1.0  0.9790999999999999  0.8257  0.7052  1.0000
  H   H174      1.0  0.11600000000000002  0.7087  0.4781  1.0000
  H   H175      1.0  0.3466  0.5209  0.7261  1.0000
  H   H176      1.0  0.8621000000000001  0.09270000000000013  0.8840000000000002  1.0000
  H   H177      1.0  0.3795  0.6534  0.6743000000000001  1.0000
  H   H178      1.0  0.9791  0.1534  0.7739  1.0000
  H   H179      1.0  0.9781000000000001  0.8621000000000001  0.2694  1.0000
  H   H180      1.0  0.6743  0.1534  0.3795  1.0000
  H   H181      1.0  0.8840000000000001  0.29130000000000006  0.5219  1.0000
  H   H182      1.0  0.7694  0.9780999999999999  0.3621  1.0000
  H   H183      1.0  0.5927  0.23060000000000005  0.7087  1.0000
  H   H184      1.0  0.053199999999999976  0.0969  0.3881  1.0000
  H   H185      1.0  0.7306  0.09270000000000002  0.2087  1.0000
  H   H186      1.0  0.22610000000000002  0.8795  0.7052  1.0000
  H   H187      1.0  0.7048  0.428  0.3588  1.0000
  H   H188      1.0  0.020900000000000012  0.17430000000000007  0.2948  1.0000
  H   H189      1.0  0.3349  0.3881  0.2912  1.0000
  H   H190      1.0  0.9279999999999997  0.2048  0.8588  1.0000
  H   H191      1.0  0.6379  0.11600000000000002  0.9073  1.0000
  H   H192      1.0  0.9468  0.043700000000000044  0.8349  1.0000
  C   C1        1.0  0.09297999999999998  0.92605  0.36691  1.0000
  C   C2        1.0  0.039740000000000136  0.8671600000000002  0.26234  1.0000
  C   C3        1.0  0.77766  0.65961  0.57627  1.0000
  C   C4        1.0  0.67258  0.1328400000000001  0.39518000000000003  1.0000
  C   C5        1.0  0.63309  0.05914000000000002  0.22607  1.0000
  C   C6        1.0  0.56433  0.4055900000000001  0.3647  1.0000
  C   C7        1.0  0.6725799999999997  0.53974  0.7774  1.0000
  C   C8        1.0  0.08334000000000012  0.9237300000000003  0.20139  1.0000
  C   C9        1.0  0.13530000000000011  0.6996300000000002  0.5408900000000001  1.0000
  C   C10       1.0  0.4003800000000002  0.6129300000000003  0.7050100000000001  1.0000
  C   C11       1.0  0.5986200000000002  0.08519000000000006  0.4537100000000001  1.0000
  C   C12       1.0  0.48585000000000006  0.77382  0.86193  1.0000
  C   C13       1.0  0.45911  0.65874  0.09441  1.0000
  C   C14       1.0  0.01343000000000001  0.09862000000000003  0.14491  1.0000
  C   C15       1.0  0.38707  0.59208  0.78745  1.0000
  C   C16       1.0  0.30037  0.34126  0.43567  1.0000
  C   C17       1.0  0.27766  0.70139  0.11805  1.0000
  C   C18       1.0  0.33307  0.92605  0.55914  1.0000
  C   C19       1.0  0.6353  0.09441  0.43567  1.0000
  C   C20       1.0  0.9858500000000003  0.12392000000000007  0.7120300000000003  1.0000
  C   C21       1.0  0.9237300000000004  0.70139  0.58334  1.0000
  C   C22       1.0  0.22618000000000005  0.58811  0.7120300000000003  1.0000
  C   C23       1.0  0.88707  0.78745  0.59208  1.0000
  C   C24       1.0  0.42373  0.84039  0.22234000000000004  1.0000
  C   C25       1.0  0.8647  0.56433  0.9055900000000002  1.0000
  C   C26       1.0  0.3951799999999999  0.76234  0.22260000000000002  1.0000
  C   C27       1.0  0.2738200000000001  0.28797  0.41189  1.0000
  C   C28       1.0  0.90792  0.7949900000000001  0.69537  1.0000
  C   C29       1.0  0.07395000000000002  0.1330900000000001  0.40702000000000005  1.0000
  C   C30       1.0  0.16693000000000013  0.7260700000000003  0.5929800000000001  1.0000
  C   C31       1.0  0.90038  0.70501  0.6129300000000001  1.0000
  C   C32       1.0  0.9148100000000002  0.86852  0.51343  1.0000
  C   C33       1.0  0.35509  0.98657  0.40138  1.0000
  C   C34       1.0  0.1239200000000001  0.9118900000000002  0.13807  1.0000
  C   C35       1.0  0.2774000000000001  0.6725800000000002  0.03974000000000001  1.0000
  C   C36       1.0  0.08811000000000009  0.3619300000000002  0.37608000000000014  1.0000
  C   C37       1.0  0.51415  0.22618000000000002  0.13807  1.0000
  C   C38       1.0  0.8951800000000001  0.6725800000000002  0.63284  1.0000
  C   C39       1.0  0.77393  0.44086  0.36691  1.0000
  C   C40       1.0  0.13148  0.98657  0.58519  1.0000
  C   C41       1.0  0.059140000000000026  0.33307  0.42605000000000004  1.0000
  C   C42       1.0  0.04628999999999996  0.40138  0.41481  1.0000
  C   C43       1.0  0.16693  0.44086  0.07395  1.0000
  C   C44       1.0  0.37608  0.86193  0.08811000000000001  1.0000
  C   C45       1.0  0.40702  0.63309  0.07395  1.0000
  C   C46       1.0  0.61293  0.20501000000000008  0.90038  1.0000
  C   C47       1.0  0.08519000000000007  0.13148000000000007  0.4865700000000001  1.0000
  C   C48       1.0  0.4013800000000002  0.9148100000000002  0.54629  1.0000
  C   C49       1.0  0.04089000000000008  0.90559  0.34126000000000006  1.0000
  C   C50       1.0  0.63148  0.04629  0.14491  1.0000
  C   C51       1.0  0.32742000000000004  0.46026000000000017  0.22260000000000002  1.0000
  C   C52       1.0  0.15961  0.27766  0.07627  1.0000
  C   C53       1.0  0.86691  0.09298000000000003  0.42605000000000004  1.0000
  C   C54       1.0  0.72618  0.014150000000000084  0.6380700000000001  1.0000
  C   C55       1.0  0.62392  0.48585000000000006  0.21203000000000002  1.0000
  C   C56       1.0  0.15874000000000008  0.9591100000000001  0.5944100000000001  1.0000
  C   C57       1.0  0.36716  0.82742  0.10482  1.0000
  C   C58       1.0  0.80037  0.43567000000000006  0.34126000000000006  1.0000
  C   C59       1.0  0.90702  0.8330700000000002  0.77393  1.0000
  C   C60       1.0  0.22607  0.66693  0.09298000000000001  1.0000
  C   C61       1.0  0.40038  0.78745  0.19537  1.0000
  C   C62       1.0  0.27393  0.90702  0.33307  1.0000
  C   C63       1.0  0.64491  0.013429999999999992  0.59862  1.0000
  C   C64       1.0  0.14491000000000007  0.54629  0.63148  1.0000
  C   C65       1.0  0.70139  0.08334000000000003  0.42373000000000005  1.0000
  C   C66       1.0  0.1353  0.43567  0.09441  1.0000
  C   C67       1.0  0.29499000000000003  0.88707  0.5996200000000002  1.0000
  C   C68       1.0  0.5920800000000003  0.28745  0.88707  1.0000
  C   C69       1.0  0.72607  0.63309  0.55914  1.0000
  C   C70       1.0  0.35509  0.36852  0.4537100000000001  1.0000
  C   C71       1.0  0.44086  0.57395  0.66693  1.0000
  C   C72       1.0  0.13309  0.22607  0.05914  1.0000
  C   C73       1.0  0.8412600000000002  0.040890000000000024  0.40559  1.0000
  C   C74       1.0  0.013430000000000079  0.9148100000000002  0.36852  1.0000
  C   C75       1.0  0.08519000000000011  0.95371  0.09862  1.0000
  C   C76       1.0  0.7223400000000002  0.42373  0.34039  1.0000
  C   C77       1.0  0.65874  0.06433000000000003  0.19963000000000006  1.0000
  C   C78       1.0  0.59208  0.30463  0.20501  1.0000
  C   C79       1.0  0.9118900000000001  0.6380700000000002  0.62392  1.0000
  C   C80       1.0  0.20501000000000005  0.8046300000000002  0.59208  1.0000
  C   C81       1.0  0.69537  0.29499  0.90792  1.0000
  C   C82       1.0  0.59441  0.45911000000000013  0.15874  1.0000
  C   C83       1.0  0.2774000000000001  0.6048200000000002  0.7376600000000001  1.0000
  C   C84       1.0  0.09862000000000005  0.6449100000000002  0.51343  1.0000
  C   C85       1.0  0.6669300000000001  0.5929800000000002  0.7260700000000001  1.0000
  C   C86       1.0  0.1129300000000001  0.9003800000000002  0.20501  1.0000
  C   C87       1.0  0.7125500000000001  0.6129300000000002  0.90792  1.0000
  C   C88       1.0  0.58334  0.20139  0.9237300000000002  1.0000
  C   C89       1.0  0.08811000000000001  0.7261800000000002  0.21203000000000002  1.0000
  C   C90       1.0  0.7260700000000001  0.09298000000000003  0.66693  1.0000
  C   C91       1.0  0.58519  0.48657  0.13148  1.0000
  C   C92       1.0  0.13309000000000004  0.90702  0.5739500000000001  1.0000
  C   C93       1.0  0.7050099999999999  0.11293  0.40038  1.0000
  C   C94       1.0  0.26234000000000013  0.36716  0.03974000000000001  1.0000
  C   C95       1.0  0.59962  0.38707000000000014  0.29499  1.0000
  C   C96       1.0  0.51343  0.36852  0.91481  1.0000
  C   C97       1.0  0.09441000000000004  0.9356700000000002  0.1353  1.0000
  C   C98       1.0  0.6353  0.5408900000000002  0.69963  1.0000
  C   C99       1.0  0.2739300000000001  0.3669100000000001  0.4408600000000001  1.0000
  C   C100      1.0  0.73766  0.10482000000000005  0.2774  1.0000
  C   C101      1.0  0.51343  0.14491  0.09862  1.0000
  C   C102      1.0  0.13148  0.14491  0.04629  1.0000
  C   C103      1.0  0.11805000000000011  0.9166600000000003  0.34039  1.0000
  C   C104      1.0  0.26234  0.89518  0.7226  1.0000
  C   C105      1.0  0.86716  0.10482000000000002  0.82742  1.0000
  C   C106      1.0  0.09298000000000001  0.16693  0.22607  1.0000
  C   C107      1.0  0.41666  0.79861  0.07627  1.0000
  C   C108      1.0  0.17258000000000004  0.7774  0.53974  1.0000
  C   C109      1.0  0.41666  0.61805  0.84039  1.0000
  C   C110      1.0  0.87608  0.78797  0.51415  1.0000
  C   C111      1.0  0.13807000000000003  0.72618  0.51415  1.0000
  C   C112      1.0  0.41189000000000003  0.6239200000000001  0.6380700000000001  1.0000
  C   C113      1.0  0.15961000000000006  0.8819500000000001  0.58334  1.0000
  C   C114      1.0  0.27766  0.57627  0.65961  1.0000
  C   C115      1.0  0.32742000000000004  0.8671600000000002  0.60482  1.0000
  C   C116      1.0  0.46026000000000017  0.7226000000000002  0.82742  1.0000
  C   C117      1.0  0.15874  0.19963  0.06433  1.0000
  C   C118      1.0  0.2226000000000001  0.9602600000000002  0.32742  1.0000
  C   C119      1.0  0.57395  0.40702  0.13309  1.0000
  C   C120      1.0  0.29861000000000004  0.9166600000000003  0.57627  1.0000
  C   C121      1.0  0.014150000000000053  0.8760800000000002  0.28797  1.0000
  C   C122      1.0  0.54629  0.41481  0.40138  1.0000
  C   C123      1.0  0.6330900000000002  0.5739500000000001  0.9070200000000003  1.0000
  C   C124      1.0  0.40792000000000006  0.71255  0.11293000000000003  1.0000
  C   C125      1.0  0.77382  0.41189  0.28797  1.0000
  C   C126      1.0  0.42605  0.5929800000000002  0.86691  1.0000
  C   C127      1.0  0.79861  0.57627  0.91666  1.0000
  C   C128      1.0  0.34126000000000006  0.4055900000000001  0.04089000000000002  1.0000
  C   C129      1.0  0.43567000000000006  0.5944100000000002  0.6353  1.0000
  C   C130      1.0  0.7739300000000001  0.3330700000000001  0.9070200000000003  1.0000
  C   C131      1.0  0.58811  0.21203  0.72618  1.0000
  C   C132      1.0  0.63148  0.58519  0.98657  1.0000
  C   C133      1.0  0.22234000000000004  0.3403900000000001  0.42373000000000005  1.0000
  C   C134      1.0  0.0762700000000001  0.77766  0.15961000000000003  1.0000
  C   C135      1.0  0.9858500000000002  0.86193  0.77382  1.0000
  C   C136      1.0  0.63807  0.51415  0.72618  1.0000
  C   C137      1.0  0.11805000000000003  0.20139000000000004  0.27766  1.0000
  C   C138      1.0  0.28745  0.38707000000000014  0.09208  1.0000
  C   C139      1.0  0.95911  0.09441000000000001  0.65874  1.0000
  C   C140      1.0  0.7623400000000002  0.7226000000000002  0.89518  1.0000
  C   C141      1.0  0.58334  0.38195  0.15961000000000003  1.0000
  C   C142      1.0  0.5739500000000002  0.16693000000000022  0.9408600000000003  1.0000
  C   C143      1.0  0.2223400000000001  0.8819500000000001  0.29861  1.0000
  C   C144      1.0  0.59298  0.22607000000000002  0.16693000000000002  1.0000
  C   C145      1.0  0.8274200000000002  0.6048200000000002  0.8671600000000002  1.0000
  C   C146      1.0  0.85509  0.40138  0.98657  1.0000
  C   C147      1.0  0.9408600000000001  0.27393000000000006  0.86691  1.0000
  C   C148      1.0  0.8819500000000003  0.79861  0.72234  1.0000
  C   C149      1.0  0.78797  0.014150000000000055  0.37608000000000014  1.0000
  C   C150      1.0  0.43567  0.84126  0.30037  1.0000
  C   C151      1.0  0.014150000000000018  0.13807  0.22618000000000002  1.0000
  C   C152      1.0  0.63284  0.46026000000000006  0.23766  1.0000
  C   C153      1.0  0.38195  0.65961  0.08334  1.0000
  C   C154      1.0  0.65961  0.07627000000000003  0.27766  1.0000
  C   C155      1.0  0.9356700000000004  0.30037  0.84126  1.0000
  C   C156      1.0  0.17258000000000004  0.3951799999999999  0.13284  1.0000
  C   C157      1.0  0.13283999999999996  0.89518  0.17258  1.0000
  C   C158      1.0  0.45371  0.86852  0.3550900000000001  1.0000
  C   C159      1.0  0.27382000000000006  0.9858500000000002  0.36193  1.0000
  C   C160      1.0  0.79861  0.22234  0.38195  1.0000
  C   C161      1.0  0.40701999999999994  0.77393  0.83307  1.0000
  C   C162      1.0  0.87608  0.08810999999999998  0.86193  1.0000
  C   C163      1.0  0.90138  0.54629  0.91481  1.0000
  C   C164      1.0  0.71203  0.08811000000000001  0.22618000000000002  1.0000
  C   C165      1.0  0.30037  0.95911  0.3647  1.0000
  C   C166      1.0  0.58519  0.09862  0.95371  1.0000
  C   C167      1.0  0.7774  0.03973999999999998  0.67258  1.0000
  C   C168      1.0  0.19963000000000009  0.6353  0.04089000000000002  1.0000
  C   C169      1.0  0.2879700000000001  0.9118900000000002  0.77382  1.0000
  C   C170      1.0  0.51415  0.28797  0.87608  1.0000
  C   C171      1.0  0.4148100000000001  0.5134300000000002  0.8685200000000001  1.0000
  C   C172      1.0  0.65961  0.58334  0.88195  1.0000
  C   C173      1.0  0.95371  0.59862  0.58519  1.0000
  C   C174      1.0  0.80037  0.36470000000000014  0.9591100000000002  1.0000
  C   C175      1.0  0.03974000000000001  0.17258000000000004  0.2774  1.0000
  C   C176      1.0  0.94086  0.6669300000000001  0.5739500000000001  1.0000
  C   C177      1.0  0.08334000000000003  0.15961  0.38195  1.0000
  C   C178      1.0  0.13284000000000007  0.23766000000000007  0.4602600000000001  1.0000
  C   C179      1.0  0.19537000000000004  0.90792  0.29499  1.0000
  C   C180      1.0  0.8403900000000001  0.72234  0.9237300000000002  1.0000
  C   C181      1.0  0.9166599999999999  0.84039  0.61805  1.0000
  C   C182      1.0  0.5397400000000001  0.2623400000000001  0.8671600000000002  1.0000
  C   C183      1.0  0.2120300000000002  0.9858500000000004  0.62392  1.0000
  C   C184      1.0  0.20139000000000004  0.77766  0.61805  1.0000
  C   C185      1.0  0.7226000000000002  0.3274200000000001  0.96026  1.0000
  C   C186      1.0  0.78745  0.09208000000000002  0.38707  1.0000
  C   C187      1.0  0.4055900000000001  0.5408900000000002  0.84126  1.0000
  C   C188      1.0  0.09962000000000001  0.29499  0.38707  1.0000
  C   C189      1.0  0.60482  0.36716  0.32742  1.0000
  C   C190      1.0  0.3647000000000002  0.90559  0.56433  1.0000
  C   C191      1.0  0.38195000000000007  0.72234  0.79861  1.0000
  C   C192      1.0  0.9055899999999999  0.06432999999999997  0.8647  1.0000
  C   C193      1.0  0.21203000000000002  0.22618000000000002  0.08811000000000001  1.0000
  C   C194      1.0  0.7774  0.73766  0.60482  1.0000
  C   C195      1.0  0.62392  0.13807  0.91189  1.0000
  C   C196      1.0  0.48657000000000006  0.6314800000000002  0.08519  1.0000
  C   C197      1.0  0.57627  0.15960999999999995  0.77766  1.0000
  C   C198      1.0  0.34125999999999995  0.93567  0.80037  1.0000
  C   C199      1.0  0.41189  0.78797  0.27382  1.0000
  C   C200      1.0  0.6180499999999999  0.27766  0.20139  1.0000
  C   C201      1.0  0.4602600000000001  0.73766  0.13284  1.0000
  C   C202      1.0  0.36715999999999993  0.53974  0.76234  1.0000
  C   C203      1.0  0.56433  0.15874000000000008  0.69963  1.0000
  C   C204      1.0  0.85509  0.45370999999999995  0.36852  1.0000
  C   C205      1.0  0.06433  0.3647  0.40559  1.0000
  C   C206      1.0  0.9148100000000005  0.0462900000000001  0.9013800000000001  1.0000
  C   C207      1.0  0.12392  0.21203000000000002  0.48585  1.0000
  C   C208      1.0  0.77766  0.11805000000000006  0.70139  1.0000
  C   C209      1.0  0.7738200000000001  0.36193000000000014  0.9858500000000001  1.0000
  C   C210      1.0  0.9260500000000002  0.86691  0.5929800000000001  1.0000
  C   C211      1.0  0.98657  0.9013800000000002  0.8550900000000002  1.0000
  C   C212      1.0  0.76234  0.03974000000000007  0.36716000000000004  1.0000
  C   C213      1.0  0.4055900000000001  0.8647000000000002  0.06433  1.0000
  C   C214      1.0  0.09441  0.15874  0.45911  1.0000
  C   C215      1.0  0.0739500000000001  0.9408600000000003  0.16693000000000002  1.0000
  C   C216      1.0  0.3685200000000001  0.41481  0.01343  1.0000
  C   C217      1.0  0.29861000000000004  0.38195  0.22234000000000004  1.0000
  C   C218      1.0  0.3647000000000002  0.45911000000000024  0.30037  1.0000
  C   C219      1.0  0.7261800000000002  0.7120300000000002  0.5881100000000001  1.0000
  C   C220      1.0  0.28797  0.37608  0.01415  1.0000
  C   C221      1.0  0.80463  0.09208000000000005  0.7050100000000001  1.0000
  C   C222      1.0  0.8412600000000002  0.8003700000000001  0.9356700000000001  1.0000
  C   C223      1.0  0.9537100000000001  0.3550900000000001  0.8685200000000001  1.0000
  C   C224      1.0  0.22606999999999994  0.55914  0.63309  1.0000
  C   C225      1.0  0.7120300000000002  0.62392  0.9858500000000001  1.0000
  C   C226      1.0  0.3870700000000001  0.7949900000000001  0.09962000000000001  1.0000
  C   C227      1.0  0.8274200000000002  0.22260000000000005  0.4602600000000001  1.0000
  C   C228      1.0  0.19963000000000006  0.56433  0.65874  1.0000
  C   C229      1.0  0.7949900000000002  0.59962  0.88707  1.0000
  C   C230      1.0  0.9356700000000003  0.6353  0.5944100000000001  1.0000
  C   C231      1.0  0.36691000000000007  0.42605000000000004  0.09298000000000001  1.0000
  C   C232      1.0  0.63807  0.12392000000000006  0.41189  1.0000
  C   C233      1.0  0.91666  0.07627000000000002  0.79861  1.0000
  C   C234      1.0  0.09208  0.20501  0.30463  1.0000
  C   C235      1.0  0.55914  0.42605  0.33307  1.0000
  C   C236      1.0  0.48585000000000006  0.71203  0.12392000000000003  1.0000
  C   C237      1.0  0.5591400000000003  0.1330900000000001  0.7260700000000001  1.0000
  C   C238      1.0  0.57627  0.41666  0.29861  1.0000
  C   C239      1.0  0.5462900000000003  0.13148000000000007  0.6449100000000002  1.0000
  C   C240      1.0  0.80463  0.71255  0.5996200000000002  1.0000
  C   C241      1.0  0.10481999999999989  0.7774  0.23766  1.0000
  C   C242      1.0  0.59298  0.3669100000000001  0.92605  1.0000
  C   C243      1.0  0.29499  0.40792  0.19537  1.0000
  C   C244      1.0  0.9118900000000001  0.27382000000000023  0.7879700000000001  1.0000
  C   C245      1.0  0.8685199999999998  0.85509  0.95371  1.0000
  C   C246      1.0  0.3403900000000002  0.9237300000000004  0.72234  1.0000
  C   C247      1.0  0.8619300000000002  0.58811  0.87608  1.0000
  C   C248      1.0  0.92373  0.22234  0.84039  1.0000
  C   C249      1.0  0.8647  0.30037  0.45911  1.0000
  C   C250      1.0  0.83307  0.55914  0.92605  1.0000
  C   C251      1.0  0.69537  0.40038  0.28745  1.0000
  C   C252      1.0  0.86716  0.76234  0.53974  1.0000
  C   C253      1.0  0.63284  0.17258000000000007  0.89518  1.0000
  C   C254      1.0  0.42373  0.58334  0.70139  1.0000
  C   C255      1.0  0.69963  0.040890000000000024  0.6353  1.0000
  C   C256      1.0  0.5944100000000001  0.13530000000000006  0.9356700000000001  1.0000
  C   C257      1.0  0.30463  0.70501  0.09208  1.0000
  C   C258      1.0  0.3685200000000003  0.95371  0.8550900000000002  1.0000
  C   C259      1.0  0.0643300000000001  0.6996300000000002  0.15874  1.0000
  C   C260      1.0  0.8619300000000002  0.27382  0.48585  1.0000
  C   C261      1.0  0.8819500000000002  0.08334000000000001  0.65961  1.0000
  C   C262      1.0  0.09962000000000001  0.8046300000000002  0.21255  1.0000
  C   C263      1.0  0.66693  0.07395000000000003  0.4408600000000001  1.0000
  C   C264      1.0  0.88707  0.09962000000000001  0.79499  1.0000
  C   C265      1.0  0.36193000000000014  0.8760800000000002  0.5881100000000001  1.0000
  C   C266      1.0  0.58811  0.37608  0.36193  1.0000
  C   C267      1.0  0.40791999999999995  0.69537  0.79499  1.0000
  C   C268      1.0  0.22618000000000005  0.6380700000000002  0.01415  1.0000
  C   C269      1.0  0.60482  0.23765999999999995  0.7774  1.0000
  C   C270      1.0  0.78745  0.69537  0.90038  1.0000
  C   C271      1.0  0.96026  0.13284  0.7376600000000001  1.0000
  C   C272      1.0  0.05914000000000008  0.7260700000000002  0.13309  1.0000
  C   C273      1.0  0.86852  0.013429999999999992  0.41481  1.0000
  C   C274      1.0  0.23766  0.27740000000000004  0.10482  1.0000
  C   C275      1.0  0.07627000000000009  0.29861000000000004  0.4166600000000001  1.0000
  C   C276      1.0  0.21255000000000002  0.30463  0.09962000000000001  1.0000
  C   C277      1.0  0.20500999999999997  0.40038  0.11293000000000003  1.0000
  C   C278      1.0  0.5996200000000002  0.2125500000000001  0.80463  1.0000
  C   C279      1.0  0.86691  0.77393  0.9408600000000003  1.0000
  C   C280      1.0  0.45371  0.58519  0.59862  1.0000
  C   C281      1.0  0.30463  0.59962  0.71255  1.0000
  C   C282      1.0  0.90702  0.07395  0.63309  1.0000
  C   C283      1.0  0.90792  0.11292999999999996  0.71255  1.0000
  C   C284      1.0  0.41481000000000007  0.9013800000000002  0.04629  1.0000
  C   C285      1.0  0.98657  0.08519  0.63148  1.0000
  C   C286      1.0  0.8403900000000001  0.11805000000000009  0.4166600000000001  1.0000
  C   C287      1.0  0.09862000000000007  0.4537100000000001  0.08519  1.0000
  C   C288      1.0  0.9591100000000001  0.8647000000000002  0.80037  1.0000
  C   C289      1.0  0.59862  0.51343  0.6449100000000002  1.0000
  C   C290      1.0  0.7949900000000003  0.19537000000000004  0.4079200000000001  1.0000
  C   C291      1.0  0.70501  0.59208  0.80463  1.0000
  C   C292      1.0  0.3760800000000001  0.5141500000000001  0.7879700000000001  1.0000
  C   C293      1.0  0.13807000000000003  0.41189  0.12392000000000003  1.0000
  C   C294      1.0  0.28745  0.90038  0.69537  1.0000
  C   C295      1.0  0.70139  0.61805  0.77766  1.0000
  C   C296      1.0  0.44086  0.86691  0.27393  1.0000
  C   C297      1.0  0.89518  0.22260000000000005  0.76234  1.0000
  C   C298      1.0  0.54089  0.19963  0.1353  1.0000
  C   C299      1.0  0.96026  0.82742  0.7226  1.0000
  C   C300      1.0  0.22260000000000002  0.2623400000000001  0.39518000000000003  1.0000
  C   C301      1.0  0.6449100000000001  0.6314800000000002  0.54629  1.0000
  C   C302      1.0  0.73766  0.63284  0.96026  1.0000
  C   C303      1.0  0.3951799999999999  0.63284  0.67258  1.0000
  C   C304      1.0  0.10482000000000005  0.3274200000000001  0.36716000000000004  1.0000
  C   C305      1.0  0.046290000000000074  0.6449100000000002  0.13148  1.0000
  C   C306      1.0  0.7223400000000002  0.29861000000000004  0.88195  1.0000
  C   C307      1.0  0.33307  0.40702  0.27393  1.0000
  C   C308      1.0  0.2376600000000001  0.9602600000000001  0.63284  1.0000
  C   C309      1.0  0.8330700000000001  0.2739300000000001  0.40702000000000005  1.0000
  C   C310      1.0  0.4591099999999999  0.80037  0.8647  1.0000
  C   C311      1.0  0.90138  0.3550900000000001  0.4865700000000001  1.0000
  C   C312      1.0  0.90038  0.19537000000000004  0.78745  1.0000
  C   C313      1.0  0.6587400000000002  0.5944100000000004  0.9591100000000002  1.0000
  C   C314      1.0  0.040890000000000024  0.1353  0.19963000000000006  1.0000
  C   C315      1.0  0.69963  0.65874  0.56433  1.0000
  C   C316      1.0  0.71255  0.09962  0.30463  1.0000
  C   C317      1.0  0.34039  0.41666  0.11805  1.0000
  C   C318      1.0  0.54089  0.3412600000000001  0.9055900000000002  1.0000
  C   C319      1.0  0.2125500000000001  0.9079200000000001  0.6129300000000001  1.0000
  C   C320      1.0  0.4260500000000001  0.8330700000000002  0.05914  1.0000
  C   C321      1.0  0.4013800000000001  0.48657  0.3550900000000001  1.0000
  C   C322      1.0  0.4865700000000001  0.8550900000000001  0.9013800000000001  1.0000
  C   C323      1.0  0.6180500000000001  0.3403900000000001  0.91666  1.0000
  C   C324      1.0  0.61293  0.40792  0.21255  1.0000
  C   C325      1.0  0.36193000000000003  0.48585000000000006  0.27382  1.0000
  C   C326      1.0  0.19536999999999996  0.28745  0.40038  1.0000
  C   C327      1.0  0.53974  0.27740000000000004  0.17258  1.0000
  C   C328      1.0  0.11293000000000009  0.2125500000000001  0.4079200000000001  1.0000
  C   C329      1.0  0.78797  0.77382  0.91189  1.0000
  C   C330      1.0  0.3669100000000001  0.9408600000000005  0.77393  1.0000
  C   C331      1.0  0.20139  0.42373  0.08334  1.0000
  C   C332      1.0  0.7226000000000002  0.39518  0.26234  1.0000
  C   C333      1.0  0.92605  0.05914  0.83307  1.0000
  C   C334      1.0  0.14491  0.59862  0.01343  1.0000
  C   C335      1.0  0.9055900000000001  0.8412600000000001  0.5408900000000001  1.0000
  C   C336      1.0  0.0920800000000001  0.88707  0.28745  1.0000
  N   N1        1.0  0.035230000000000004  0.08245  0.11840000000000003  1.0000
  N   N2        1.0  0.07463000000000002  0.0038600000000000314  0.55391  1.0000
  N   N3        1.0  0.07761999999999997  0.61555  0.46303  1.0000
  N   N4        1.0  0.52176  0.40603  0.4527300000000001  1.0000
  N   N5        1.0  0.47928000000000004  0.9253700000000001  0.4292300000000001  1.0000
  N   N6        1.0  0.8816  0.41755  0.96477  1.0000
  N   N7        1.0  0.56903  0.9533  0.54727  1.0000
  N   N8        1.0  0.58317  0.03595  0.11840000000000003  1.0000
  N   N9        1.0  0.4223799999999999  0.8854099999999999  0.53793  1.0000
  N   N10       1.0  0.61573  0.021760000000000005  0.06903  1.0000
  N   N11       1.0  0.5472200000000002  0.08245000000000004  0.9640500000000001  1.0000
  N   N12       1.0  0.1155500000000001  0.57762  0.9630300000000003  1.0000
  N   N13       1.0  0.44609  0.94995  0.02072  1.0000
  N   N14       1.0  0.4168299999999999  0.45278  0.03523  1.0000
  N   N15       1.0  0.53793  0.38541  0.42238  1.0000
  N   N16       1.0  0.11839999999999998  0.58245  0.03523  1.0000
  N   N17       1.0  0.93097  0.47824  0.38427  1.0000
  N   N18       1.0  0.95278  0.91683  0.53523  1.0000
  N   N19       1.0  0.047220000000000026  0.08317000000000001  0.46477000000000007  1.0000
  N   N20       1.0  0.8842699999999999  0.9533  0.40603  1.0000
  N   N21       1.0  0.49614  0.07077  0.05005  1.0000
  N   N22       1.0  0.15252  0.11555  0.03793  1.0000
  N   N23       1.0  0.1155500000000001  0.53793  0.6525200000000002  1.0000
  N   N24       1.0  0.44995  0.94609  0.52072  1.0000
  N   N25       1.0  0.9060300000000001  0.02176000000000002  0.95273  1.0000
  N   N26       1.0  0.09397000000000003  0.11573000000000004  0.5467  1.0000
  N   N27       1.0  0.88445  0.42238  0.03697  1.0000
  N   N28       1.0  0.6145900000000002  0.07762000000000002  0.96207  1.0000
  N   N29       1.0  0.037929999999999964  0.42238  0.38541  1.0000
  N   N30       1.0  0.08317000000000019  0.9647700000000005  0.54722  1.0000
  N   N31       1.0  0.07761999999999994  0.46207  0.11459  1.0000
  N   N32       1.0  0.55005  0.05391000000000001  0.47928000000000004  1.0000
  N   N33       1.0  0.4499500000000001  0.5038600000000001  0.4292300000000001  1.0000
  N   N34       1.0  0.55391  0.50386  0.07463  1.0000
  N   N35       1.0  0.88427  0.93097  0.97824  1.0000
  N   N36       1.0  0.5379300000000002  0.1525200000000001  0.6155500000000002  1.0000
  N   N37       1.0  0.53595  0.45278000000000007  0.41755000000000003  1.0000
  N   N38       1.0  0.52072  0.44609  0.44995  1.0000
  N   N39       1.0  0.021760000000000022  0.56903  0.11573  1.0000
  N   N40       1.0  0.08317  0.1184  0.03595  1.0000
  N   N41       1.0  0.3854100000000001  0.4630300000000001  0.8474800000000002  1.0000
  N   N42       1.0  0.9782400000000001  0.43097000000000013  0.8842700000000001  1.0000
  N   N43       1.0  0.96405  0.58245  0.54722  1.0000
  N   N44       1.0  0.58245  0.53523  0.6184  1.0000
  N   N45       1.0  0.52072  0.07462999999999999  0.57077  1.0000
  N   N46       1.0  0.53523  0.1184  0.08245  1.0000
  N   N47       1.0  0.88541  0.037930000000000096  0.9223800000000002  1.0000
  N   N48       1.0  0.92537  0.99614  0.44609  1.0000
  N   N49       1.0  0.44609  0.49614  0.9253700000000002  1.0000
  N   N50       1.0  0.021759999999999995  0.45273  0.40603  1.0000
  N   N51       1.0  0.8816  0.46405  0.41683  1.0000
  N   N52       1.0  0.4527800000000002  0.53523  0.9168300000000003  1.0000
  N   N53       1.0  0.53595  0.08317000000000004  0.6184  1.0000
  N   N54       1.0  0.95278  0.03595000000000006  0.9175500000000002  1.0000
  N   N55       1.0  0.8474800000000001  0.8844500000000002  0.96207  1.0000
  N   N56       1.0  0.96303  0.07762  0.11555  1.0000
  N   N57       1.0  0.50386  0.57463  0.05391  1.0000
  N   N58       1.0  0.9533  0.04727  0.06903  1.0000
  N   N59       1.0  0.92923  0.47928000000000004  0.42537000000000014  1.0000
  N   N60       1.0  0.59397  0.04727  0.97824  1.0000
  N   N61       1.0  0.08245000000000002  0.6184  0.53523  1.0000
  N   N62       1.0  0.5369700000000001  0.8844500000000003  0.9223800000000002  1.0000
  N   N63       1.0  0.9533  0.90603  0.38427  1.0000
  N   N64       1.0  0.0467  0.09397000000000005  0.61573  1.0000
  N   N65       1.0  0.42923000000000017  0.42537  0.47928000000000004  1.0000
  N   N66       1.0  0.38427000000000017  0.4060300000000002  0.9533000000000003  1.0000
  N   N67       1.0  0.11572999999999997  0.04669999999999999  0.59397  1.0000
  N   N68       1.0  0.45273  0.5467  0.43097  1.0000
  N   N69       1.0  0.95273  0.43097000000000013  0.5467  1.0000
  N   N70       1.0  0.05391000000000001  0.07463000000000006  0.50386  1.0000
  N   N71       1.0  0.003859999999999993  0.05390999999999995  0.57463  1.0000
  N   N72       1.0  0.3816000000000001  0.9647700000000005  0.41755000000000003  1.0000
  N   N73       1.0  0.61573  0.59397  0.0467  1.0000
  N   N74       1.0  0.03697000000000011  0.9223800000000001  0.8844500000000002  1.0000
  N   N75       1.0  0.11573000000000001  0.06903000000000002  0.02176  1.0000
  N   N76       1.0  0.92537  0.92923  0.97928  1.0000
  N   N77       1.0  0.57077  0.57463  0.52072  1.0000
  N   N78       1.0  0.91683  0.035230000000000025  0.4527800000000001  1.0000
  N   N79       1.0  0.56903  0.61573  0.52176  1.0000
  N   N80       1.0  0.15252  0.03697000000000003  0.61459  1.0000
  N   N81       1.0  0.5467  0.93097  0.95273  1.0000
  N   N82       1.0  0.6525200000000002  0.03793  0.11555  1.0000
  N   N83       1.0  0.93097  0.45273  0.0467  1.0000
  N   N84       1.0  0.9175500000000001  0.3816  0.46477000000000007  1.0000
  N   N85       1.0  0.91755  0.53595  0.95278  1.0000
  N   N86       1.0  0.97928  0.42923  0.9253700000000002  1.0000
  N   N87       1.0  0.4533000000000001  0.06903000000000002  0.04727  1.0000
  N   N88       1.0  0.46477000000000007  0.8816000000000003  0.9175500000000002  1.0000
  N   N89       1.0  0.9223800000000002  0.53793  0.8854100000000001  1.0000
  N   N90       1.0  0.53697  0.6525199999999999  0.11459  1.0000
  N   N91       1.0  0.99614  0.050050000000000025  0.07077  1.0000
  N   N92       1.0  0.42238000000000003  0.5369700000000001  0.38445000000000007  1.0000
  N   N93       1.0  0.40603000000000017  0.9527300000000002  0.02176  1.0000
  N   N94       1.0  0.05391000000000001  0.97928  0.05005  1.0000
  N   N95       1.0  0.99614  0.94609  0.42537000000000014  1.0000
  N   N96       1.0  0.46207  0.61459  0.57762  1.0000
  N   N97       1.0  0.047270000000000055  0.56903  0.4533000000000001  1.0000
  N   N98       1.0  0.42923000000000006  0.0038600000000000023  0.44995  1.0000
  N   N99       1.0  0.04727  0.47824  0.09397  1.0000
  N   N100      1.0  0.53523  0.4168300000000001  0.95278  1.0000
  N   N101      1.0  0.57762  0.46303000000000005  0.6155500000000002  1.0000
  N   N102      1.0  0.90603  0.8842700000000001  0.4533000000000001  1.0000
  N   N103      1.0  0.92238  0.38445  0.53697  1.0000
  N   N104      1.0  0.52176  0.11573000000000004  0.56903  1.0000
  N   N105      1.0  0.5467  0.61573  0.09397  1.0000
  N   N106      1.0  0.05005  0.47928  0.05391  1.0000
  N   N107      1.0  0.03792999999999999  0.61555  0.15252  1.0000
  N   N108      1.0  0.6155500000000003  0.65252  0.53793  1.0000
  N   N109      1.0  0.97824  0.54727  0.59397  1.0000
  N   N110      1.0  0.08245  0.46405  0.04722  1.0000
  N   N111      1.0  0.49614000000000014  0.42537000000000014  0.9460900000000002  1.0000
  N   N112      1.0  0.43097  0.38427  0.47824  1.0000
  N   N113      1.0  0.11840000000000005  0.53595  0.58317  1.0000
  N   N114      1.0  0.57463  0.55391  0.00386  1.0000
  N   N115      1.0  0.96303  0.88541  0.34748  1.0000
  N   N116      1.0  0.88445  0.46207  0.34748  1.0000
  N   N117      1.0  0.95273  0.52176  0.90603  1.0000
  N   N118      1.0  0.9620700000000002  0.3844500000000001  0.8474800000000002  1.0000
  N   N119      1.0  0.96405  0.3816000000000001  0.9168300000000003  1.0000
  N   N120      1.0  0.003860000000000014  0.94995  0.92923  1.0000
  N   N121      1.0  0.34748000000000023  0.9620700000000004  0.8844500000000002  1.0000
  N   N122      1.0  0.54722  0.4647700000000001  0.08317000000000001  1.0000
  N   N123      1.0  0.47824  0.88427  0.43097  1.0000
  N   N124      1.0  0.84748  0.96303  0.38541  1.0000
  N   N125      1.0  0.38160000000000005  0.4168300000000001  0.46405  1.0000
  N   N126      1.0  0.11459  0.15252  0.53697  1.0000
  N   N127      1.0  0.47927999999999993  0.55391  0.55005  1.0000
  N   N128      1.0  0.96207  0.57762  0.61459  1.0000
  N   N129      1.0  0.94609  0.92537  0.49614  1.0000
  N   N130      1.0  0.035950000000000044  0.41755  0.4527800000000001  1.0000
  N   N131      1.0  0.6184  0.035229999999999935  0.58245  1.0000
  N   N132      1.0  0.88541  0.84748  0.46303  1.0000
  N   N133      1.0  0.92923  0.44995  0.00386  1.0000
  N   N134      1.0  0.9168300000000004  0.8816000000000004  0.9640500000000001  1.0000
  N   N135      1.0  0.58245  0.04722000000000001  0.46405  1.0000
  N   N136      1.0  0.94609  0.02072000000000004  0.94995  1.0000
  N   N137      1.0  0.96477  0.04722000000000004  0.58317  1.0000
  N   N138      1.0  0.03595000000000002  0.6184  0.08317000000000001  1.0000
  N   N139      1.0  0.46477  0.58317  0.04722  1.0000
  N   N140      1.0  0.07463  0.07077  0.02072  1.0000
  N   N141      1.0  0.4533000000000001  0.38427  0.90603  1.0000
  N   N142      1.0  0.3474800000000002  0.3854100000000001  0.9630300000000003  1.0000
  N   N143      1.0  0.11459000000000014  0.9620700000000002  0.07762000000000002  1.0000
  N   N144      1.0  0.4175500000000001  0.4647700000000002  0.38160000000000005  1.0000
  N   N145      1.0  0.57463  0.02072000000000001  0.07077  1.0000
  N   N146      1.0  0.97928  0.55005  0.55391  1.0000
  N   N147      1.0  0.46207  0.84748  0.38445000000000007  1.0000
  N   N148      1.0  0.5472700000000003  0.4533  0.56903  1.0000
  N   N149      1.0  0.43097  0.04670000000000002  0.4527300000000001  1.0000
  N   N150      1.0  0.38445  0.3474800000000001  0.46207  1.0000
  N   N151      1.0  0.4640500000000002  0.91683  0.38160000000000005  1.0000
  N   N152      1.0  0.04722000000000012  0.9640500000000002  0.08245  1.0000
  N   N153      1.0  0.06903000000000013  0.5472700000000001  0.9533000000000003  1.0000
  N   N154      1.0  0.58317  0.54722  0.96477  1.0000
  N   N155      1.0  0.6155500000000003  0.96303  0.57762  1.0000
  N   N156      1.0  0.03697000000000009  0.11459000000000011  0.6525200000000002  1.0000
  N   N157      1.0  0.50386  0.92923  0.94995  1.0000
  N   N158      1.0  0.3842700000000001  0.9782400000000001  0.9309700000000002  1.0000
  N   N159      1.0  0.57762  0.11458999999999998  0.46207  1.0000
  N   N160      1.0  0.05004999999999997  0.57077  0.49614  1.0000
  N   N161      1.0  0.42537  0.44609  0.99614  1.0000
  N   N162      1.0  0.4175500000000002  0.95278  0.53595  1.0000
  N   N163      1.0  0.04670000000000011  0.9527300000000003  0.9309700000000002  1.0000
  N   N164      1.0  0.6184  0.58317  0.53595  1.0000
  N   N165      1.0  0.9499500000000001  0.5207200000000002  0.9460900000000002  1.0000
  N   N166      1.0  0.55391  0.050049999999999976  0.97928  1.0000
  N   N167      1.0  0.59397  0.5467  0.11573  1.0000
  N   N168      1.0  0.5472700000000003  0.09397000000000005  0.47824  1.0000
  N   N169      1.0  0.45273  0.90603  0.52176  1.0000
  N   N170      1.0  0.46303  0.11555  0.07762000000000002  1.0000
  N   N171      1.0  0.46303000000000005  0.3474800000000001  0.8854100000000001  1.0000
  N   N172      1.0  0.57077  0.99614  0.55005  1.0000
  N   N173      1.0  0.06903  0.52176  0.61573  1.0000
  N   N174      1.0  0.07077  0.55005  0.99614  1.0000
  N   N175      1.0  0.47824  0.59397  0.54727  1.0000
  N   N176      1.0  0.46405000000000013  0.54722  0.58245  1.0000
  N   N177      1.0  0.45278  0.91755  0.03595  1.0000
  N   N178      1.0  0.020720000000000006  0.57077  0.07463  1.0000
  N   N179      1.0  0.07077000000000003  0.52072  0.57463  1.0000
  N   N180      1.0  0.38541  0.92238  0.03793  1.0000
  N   N181      1.0  0.40603000000000017  0.45330000000000004  0.8842700000000001  1.0000
  N   N182      1.0  0.020719999999999978  0.44995  0.44609  1.0000
  N   N183      1.0  0.6525200000000002  0.61459  0.03697  1.0000
  N   N184      1.0  0.38445  0.03697  0.42238  1.0000
  N   N185      1.0  0.94995  0.42923  0.50386  1.0000
  N   N186      1.0  0.9647700000000001  0.91755  0.8816  1.0000
  N   N187      1.0  0.6145900000000002  0.53697  0.15252  1.0000
  N   N188      1.0  0.035229999999999935  0.95278  0.41683  1.0000
  N   N189      1.0  0.42537  0.97928  0.92923  1.0000
  N   N190      1.0  0.41683000000000014  0.9640500000000002  0.8816  1.0000
  N   N191      1.0  0.09396999999999991  0.9782399999999999  0.04727  1.0000
  N   N192      1.0  0.55005  0.49614  0.57077  1.0000
