data_image0
_chemical_formula_structural       NiONiO3NiO7NiH2COC5O2NiONiO3NiO7NiH2COC5O2NiONiO3NiO7NiH2COC5O2NiONiO3NiO7NiH2COC5O2NiONiO3NiO7NiH2COC5O2NiONiO3NiO7NiH2COC5O2NiONiO3NiO7NiH2COC5O2NiONiO3NiO7NiH2COC5O2C3HC3HC12H10C3HC3HC12H10C3HC3HC12H10C3HC3HC12H10C3HC3HC12H10C3HC3HC12H10C3HC3HC12H10C3HC3HC12H10C3HC3HC12H10C3HC3HC12H10C3HC3HC12H10C3HC3HC12H10C3HC3HC12H10C3HC3HC12H10C3HC3HC12H10C3HC3HC12H10C3HC3HC12H10C3HC3HC12H10C3HC3HC12H10C3HC3HC12H10C3HC3HC12H10C3HC3HC12H10C3HC3HC12H10C3HC3HC12H10
_chemical_formula_sum              "Ni32 O112 H304 C480"
_cell_length_a       23.1367
_cell_length_b       26.386159999999997
_cell_length_c       26.143199999999997
_cell_angle_alpha    88.28768
_cell_angle_beta     77.92286
_cell_angle_gamma    79.31398

_space_group_name_H-M_alt    "P 1"
_space_group_IT_number       1

loop_
  _space_group_symop_operation_xyz
  'x, y, z'

loop_
  _atom_site_type_symbol
  _atom_site_label
  _atom_site_symmetry_multiplicity
  _atom_site_fract_x
  _atom_site_fract_y
  _atom_site_fract_z
  _atom_site_occupancy
  Ni  Ni1       1.0  0.024559999999999988  0.95604  0.057649999999999986  1.0000
  O   O1        1.0  0.04799000000000004  0.97744  0.9812099999999999  1.0000
  Ni  Ni2       1.0  0.005580000000000047  0.05167  0.9842099999999998  1.0000
  O   O2        1.0  0.04179000000000014  0.8778499999999998  0.04212999999999999  1.0000
  O   O3        1.0  0.9877700000000001  0.891  0.97823  1.0000
  O   O4        1.0  0.11254000000000003  0.9501099999999999  0.06544  1.0000
  Ni  Ni3       1.0  0.028320000000000026  0.94032  0.92594  1.0000
  O   O5        1.0  0.053030000000000035  0.00546  0.15131999999999998  1.0000
  O   O6        1.0  0.9444300000000002  0.9803  0.9235399999999998  1.0000
  O   O7        1.0  0.012090000000000004  0.06988  0.9058699999999998  1.0000
  O   O8        1.0  0.99322  0.03241  0.06161  1.0000
  O   O9        1.0  0.0020300000000000058  0.94281  0.13572  1.0000
  O   O10       1.0  0.97423  0.12827  0.00339  1.0000
  O   O11       1.0  0.046900000000000004  0.12734  0.05071999999999999  1.0000
  Ni  Ni4       1.0  0.0419  0.06397  0.09914999999999997  1.0000
  H   H1        1.0  0.09143000000000004  0.97787  0.9714799999999998  1.0000
  H   H2        1.0  0.9503800000000001  0.03985  0.07959  1.0000
  C   C1        1.0  0.9067000000000002  0.0015799999999999985  0.9650399999999998  1.0000
  O   O12       1.0  0.11784000000000003  0.03421  0.048029999999999996  1.0000
  C   C2        1.0  0.01919000000000001  0.8593499999999998  0.00602  1.0000
  C   C3        1.0  0.03359000000000001  0.03586  0.8671599999999999  1.0000
  C   C4        1.0  0.14412999999999998  0.98643  0.0503  1.0000
  C   C5        1.0  0.0019400000000000008  0.15261  0.0315  1.0000
  C   C6        1.0  0.012309999999999998  0.97623  0.16785999999999995  1.0000
  O   O13       1.0  0.9197000000000001  0.03924  0.9897899999999997  1.0000
  O   O14       1.0  0.06503000000000002  0.99049  0.8751899999999998  1.0000
  Ni  Ni5       1.0  0.96221  0.9607399999999999  0.5774  1.0000
  O   O15       1.0  0.9616400000000003  0.96457  0.49887  1.0000
  Ni  Ni6       1.0  0.9408100000000003  0.04117  0.48848  1.0000
  O   O16       1.0  0.9817200000000004  0.8810199999999998  0.5742899999999999  1.0000
  O   O17       1.0  0.8996200000000001  0.8795199999999999  0.53906  1.0000
  O   O18       1.0  0.05219  0.9639699999999999  0.55454  1.0000
  Ni  Ni7       1.0  0.90091  0.93235  0.4785  1.0000
  O   O19       1.0  0.9250000000000003  0.04556  0.6708799999999998  1.0000
  O   O20       1.0  0.8357100000000001  0.97811  0.5293799999999999  1.0000
  O   O21       1.0  0.9505600000000001  0.03899999999999999  0.40942  1.0000
  O   O22       1.0  0.9283600000000001  0.036069999999999984  0.56804  1.0000
  O   O23       1.0  0.96832  0.9599399999999998  0.6557  1.0000
  O   O24       1.0  0.94224  0.11959  0.48591  1.0000
  O   O25       1.0  0.010709999999999996  0.10808  0.53821  1.0000
  Ni  Ni8       1.0  0.9651200000000002  0.0793  0.6060799999999998  1.0000
  H   H3        1.0  0.0015799999999999898  0.95028  0.4774699999999999  1.0000
  H   H4        1.0  0.88482  0.04196  0.5835899999999999  1.0000
  C   C7        1.0  0.81291  0.02436  0.51627  1.0000
  O   O26       1.0  0.04403000000000004  0.0315  0.6083799999999999  1.0000
  C   C8        1.0  0.9490300000000002  0.85531  0.55253  1.0000
  C   C9        1.0  0.92958  0.0029099999999999985  0.3885999999999999  1.0000
  C   C10       1.0  0.07384  0.0030499999999999998  0.56791  1.0000
  C   C11       1.0  0.9813400000000001  0.13747  0.50745  1.0000
  C   C12       1.0  0.9508300000000002  0.0011099999999999999  0.68727  1.0000
  O   O27       1.0  0.8483900000000001  0.056019999999999986  0.49389  1.0000
  O   O28       1.0  0.8875400000000002  0.98006  0.41715999999999986  1.0000
  Ni  Ni9       1.0  0.008290000000000032  0.4741499999999999  0.04769  1.0000
  O   O29       1.0  0.018440000000000022  0.47195999999999994  0.9677899999999999  1.0000
  Ni  Ni10      1.0  0.99296  0.54689  0.9523899999999998  1.0000
  O   O30       1.0  0.03335  0.39509  0.050079999999999986  1.0000
  O   O31       1.0  0.9581700000000002  0.38661  0.00894  1.0000
  O   O32       1.0  0.09691  0.48256  0.03282999999999999  1.0000
  Ni  Ni11      1.0  0.9646300000000002  0.43377999999999994  0.94436  1.0000
  O   O33       1.0  0.9524300000000001  0.56474  0.13713999999999998  1.0000
  O   O34       1.0  0.8942100000000001  0.4794799999999999  0.9898399999999998  1.0000
  O   O35       1.0  0.01310000000000007  0.53967  0.8732599999999998  1.0000
  O   O36       1.0  0.9710700000000001  0.54665  0.03248  1.0000
  O   O37       1.0  0.002710000000000002  0.47989  0.1274  1.0000
  O   O38       1.0  0.9883900000000002  0.6254399999999999  0.9465899999999998  1.0000
  O   O39       1.0  0.04914999999999998  0.61903  0.00503  1.0000
  Ni  Ni12      1.0  0.9996500000000001  0.59415  0.07290999999999999  1.0000
  H   H5        1.0  0.06061000000000001  0.45932  0.9498499999999999  1.0000
  H   H6        1.0  0.9270000000000002  0.55087  0.044599999999999994  1.0000
  C   C13       1.0  0.8692300000000001  0.522  0.97116  1.0000
  O   O40       1.0  0.07709000000000002  0.55145  0.08778  1.0000
  C   C14       1.0  0.005410000000000012  0.36585  0.02732  1.0000
  C   C15       1.0  0.99854  0.50012  0.85223  1.0000
  C   C16       1.0  0.11436000000000002  0.5212  0.05205  1.0000
  C   C17       1.0  0.021210000000000034  0.64671  0.9721799999999998  1.0000
  C   C18       1.0  0.9726400000000002  0.52018  0.15737999999999996  1.0000
  O   O41       1.0  0.9027  0.55508  0.9489  1.0000
  O   O42       1.0  0.95615  0.47633999999999993  0.87871  1.0000
  Ni  Ni13      1.0  0.05672000000000003  0.43693  0.53377  1.0000
  O   O43       1.0  0.04818000000000007  0.46178  0.4595899999999999  1.0000
  Ni  Ni14      1.0  0.9987  0.53356  0.47751999999999994  1.0000
  O   O44       1.0  0.07461000000000005  0.35801  0.5204499999999999  1.0000
  O   O45       1.0  0.05046000000000004  0.35324  0.4415299999999999  1.0000
  O   O46       1.0  0.14772000000000002  0.43962  0.51376  1.0000
  Ni  Ni15      1.0  0.001190000000000022  0.42318999999999996  0.42666  1.0000
  O   O47       1.0  0.11523000000000004  0.48796  0.6068199999999999  1.0000
  O   O48       1.0  0.9435900000000002  0.42749999999999994  0.4971799999999999  1.0000
  O   O49       1.0  0.9860600000000003  0.55466  0.40416999999999986  1.0000
  O   O50       1.0  0.016099999999999986  0.51085  0.54868  1.0000
  O   O51       1.0  0.06602000000000005  0.42056  0.6084299999999999  1.0000
  O   O52       1.0  0.9635400000000001  0.60798  0.50435  1.0000
  O   O53       1.0  0.050659999999999955  0.61576  0.52884  1.0000
  Ni  Ni16      1.0  0.07535000000000003  0.54743  0.56702  1.0000
  H   H7        1.0  0.08729000000000013  0.4634599999999999  0.43629  1.0000
  H   H8        1.0  0.9793400000000001  0.51372  0.57656  1.0000
  C   C19       1.0  0.90076  0.468  0.50821  1.0000
  O   O54       1.0  0.13361000000000006  0.52581  0.4987999999999999  1.0000
  C   C20       1.0  0.04822000000000005  0.33631999999999995  0.48920999999999987  1.0000
  C   C21       1.0  0.96974  0.52166  0.37612  1.0000
  C   C22       1.0  0.16883000000000006  0.48068  0.4936599999999999  1.0000
  C   C23       1.0  0.9950900000000001  0.63525  0.52548  1.0000
  C   C24       1.0  0.08468000000000003  0.45482  0.63349  1.0000
  O   O55       1.0  0.9127700000000002  0.51525  0.49881999999999993  1.0000
  O   O56       1.0  0.9480800000000001  0.48245999999999994  0.3988199999999999  1.0000
  Ni  Ni17      1.0  0.5453800000000001  0.9424799999999999  0.03493999999999999  1.0000
  O   O57       1.0  0.5361700000000001  0.95661  0.95918  1.0000
  Ni  Ni18      1.0  0.5030800000000001  0.033769999999999994  0.9618199999999998  1.0000
  O   O58       1.0  0.5676300000000001  0.8631299999999997  0.02329  1.0000
  O   O59       1.0  0.48130000000000006  0.86372  0.99596  1.0000
  O   O60       1.0  0.63756  0.9411799999999999  0.0156  1.0000
  Ni  Ni19      1.0  0.4713400000000001  0.9236899999999999  0.9451699999999997  1.0000
  O   O61       1.0  0.59959  0.00151  0.10707  1.0000
  O   O62       1.0  0.41870999999999997  0.95704  0.01147  1.0000
  O   O63       1.0  0.4963200000000001  0.04062999999999999  0.88505  1.0000
  O   O64       1.0  0.50991  0.01991  0.03825  1.0000
  O   O65       1.0  0.5500500000000003  0.93439  0.11178  1.0000
  O   O66       1.0  0.4812900000000001  0.11304  0.9707799999999998  1.0000
  O   O67       1.0  0.56086  0.11834999999999998  0.007599999999999999  1.0000
  Ni  Ni20      1.0  0.5695500000000001  0.056019999999999986  0.05693999999999999  1.0000
  H   H9        1.0  0.57414  0.94742  0.93295  1.0000
  H   H10       1.0  0.471  0.0278  0.06353  1.0000
  C   C25       1.0  0.3866300000000001  0.00217  0.00937  1.0000
  O   O68       1.0  0.62586  0.024499999999999997  0.9919699999999999  1.0000
  C   C26       1.0  0.53397  0.83975  0.0006999999999999999  1.0000
  C   C27       1.0  0.4732400000000001  0.005569999999999998  0.8651199999999998  1.0000
  C   C28       1.0  0.66063  0.9803099999999999  0.99342  1.0000
  C   C29       1.0  0.5109600000000002  0.14018  0.9939699999999999  1.0000
  C   C30       1.0  0.56407  0.97264  0.13489999999999996  1.0000
  O   O69       1.0  0.41098  0.03794999999999999  0.98194  1.0000
  O   O70       1.0  0.4389900000000001  0.9780899999999999  0.8963899999999998  1.0000
  Ni  Ni21      1.0  0.4630100000000001  0.9661299999999999  0.54137  1.0000
  O   O71       1.0  0.47047000000000005  0.97496  0.46254999999999996  1.0000
  Ni  Ni22      1.0  0.43869  0.05055  0.4576499999999999  1.0000
  O   O72       1.0  0.49482  0.8876199999999999  0.53246  1.0000
  O   O73       1.0  0.42072000000000004  0.87989  0.48929999999999996  1.0000
  O   O74       1.0  0.54983  0.98016  0.5322699999999999  1.0000
  Ni  Ni23      1.0  0.41857000000000033  0.93792  0.43420999999999993  1.0000
  O   O75       1.0  0.49773  0.032069999999999994  0.6210099999999998  1.0000
  O   O76       1.0  0.3435599999999999  0.97213  0.48551  1.0000
  O   O77       1.0  0.45716  0.0529  0.37791  1.0000
  O   O78       1.0  0.4200200000000001  0.03985  0.53788  1.0000
  O   O79       1.0  0.45545000000000024  0.96099  0.6211199999999999  1.0000
  O   O80       1.0  0.4305  0.13057  0.45469  1.0000
  O   O81       1.0  0.41375  0.14632  0.54142  1.0000
  Ni  Ni24      1.0  0.45655  0.08354  0.57545  1.0000
  H   H11       1.0  0.5126299999999999  0.96601  0.4430599999999999  1.0000
  H   H12       1.0  0.37686  0.04281999999999998  0.5526599999999999  1.0000
  C   C31       1.0  0.31688  0.01965  0.48076  1.0000
  O   O82       1.0  0.52818  0.06689  0.51527  1.0000
  C   C32       1.0  0.4693700000000001  0.85918  0.5061299999999999  1.0000
  C   C33       1.0  0.44645  0.014579999999999996  0.35216  1.0000
  C   C34       1.0  0.5676299999999999  0.02419  0.51608  1.0000
  C   C35       1.0  0.43643000000000015  0.15809  0.49392  1.0000
  C   C36       1.0  0.47073  0.99697  0.6467499999999999  1.0000
  O   O83       1.0  0.34786000000000006  0.05464  0.45817  1.0000
  O   O84       1.0  0.40519000000000005  0.98793  0.3748799999999999  1.0000
  Ni  Ni25      1.0  0.52503  0.46221999999999996  0.00687  1.0000
  O   O85       1.0  0.50947  0.4679  0.9320099999999998  1.0000
  Ni  Ni26      1.0  0.48435000000000017  0.54604  0.9256899999999999  1.0000
  O   O86       1.0  0.5335700000000001  0.38289  0.010609999999999996  1.0000
  O   O87       1.0  0.44805000000000006  0.38133  0.9816599999999998  1.0000
  O   O88       1.0  0.6183100000000002  0.4451199999999999  0.9822299999999998  1.0000
  Ni  Ni27      1.0  0.43940000000000023  0.43782  0.9261099999999998  1.0000
  O   O89       1.0  0.60017  0.52359  0.05977  1.0000
  O   O90       1.0  0.3885700000000002  0.48005  0.9884399999999998  1.0000
  O   O91       1.0  0.46964999999999996  0.54665  0.85157  1.0000
  O   O92       1.0  0.5019100000000002  0.5399  0.9993499999999997  1.0000
  O   O93       1.0  0.5385800000000001  0.46414999999999995  0.08118  1.0000
  O   O94       1.0  0.4763200000000001  0.6256  0.92523  1.0000
  O   O95       1.0  0.5713200000000002  0.61539  0.9366399999999999  1.0000
  Ni  Ni28      1.0  0.57405  0.56867  0.0006699999999999998  1.0000
  H   H13       1.0  0.5454300000000001  0.45397  0.9050599999999998  1.0000
  H   H14       1.0  0.4670500000000001  0.55496  0.02676999999999999  1.0000
  C   C37       1.0  0.36233000000000004  0.52735  0.9832  1.0000
  O   O96       1.0  0.6207800000000002  0.52043  0.9422299999999998  1.0000
  C   C38       1.0  0.4993600000000001  0.35740999999999995  0.9909799999999997  1.0000
  C   C39       1.0  0.44420000000000004  0.51027  0.83749  1.0000
  C   C40       1.0  0.6493300000000004  0.47672  0.9541499999999998  1.0000
  C   C41       1.0  0.5219400000000002  0.64568  0.9321699999999999  1.0000
  C   C42       1.0  0.56446  0.50058  0.09529  1.0000
  O   O97       1.0  0.39191000000000004  0.55985  0.9543799999999999  1.0000
  O   O98       1.0  0.40834999999999994  0.4878799999999999  0.87304  1.0000
  Ni  Ni29      1.0  0.53299  0.45015  0.50917  1.0000
  O   O99       1.0  0.5693200000000002  0.46257999999999994  0.4312199999999999  1.0000
  Ni  Ni30      1.0  0.5314  0.53784  0.4261399999999999  1.0000
  O   O100      1.0  0.53685  0.37083  0.50711  1.0000
  O   O101      1.0  0.56786  0.35667  0.41955999999999993  1.0000
  O   O102      1.0  0.6174500000000003  0.4374699999999999  0.52736  1.0000
  Ni  Ni31      1.0  0.5384500000000002  0.42405  0.38367  1.0000
  O   O103      1.0  0.5484899999999999  0.5086  0.60472  1.0000
  O   O104      1.0  0.4587800000000002  0.43907  0.4357399999999999  1.0000
  O   O105      1.0  0.5539700000000001  0.54632  0.34629999999999994  1.0000
  O   O106      1.0  0.5087  0.52676  0.50464  1.0000
  O   O107      1.0  0.4975500000000001  0.4467  0.58722  1.0000
  O   O108      1.0  0.50454  0.61674  0.4363  1.0000
  O   O109      1.0  0.57135  0.61595  0.48948999999999987  1.0000
  Ni  Ni32      1.0  0.5542100000000001  0.55952  0.54453  1.0000
  H   H15       1.0  0.6137699999999999  0.45749  0.4230499999999999  1.0000
  H   H16       1.0  0.4650000000000001  0.53765  0.51843  1.0000
  C   C43       1.0  0.4231700000000001  0.48457  0.43906  1.0000
  O   O110      1.0  0.6341800000000002  0.51889  0.50789  1.0000
  C   C44       1.0  0.5374300000000001  0.3446  0.4646899999999999  1.0000
  C   C45       1.0  0.54013  0.51391  0.31563999999999987  1.0000
  C   C46       1.0  0.6527699999999999  0.47191  0.52202  1.0000
  C   C47       1.0  0.52952  0.6413799999999998  0.46667999999999993  1.0000
  C   C48       1.0  0.5037199999999997  0.48306  0.61836  1.0000
  O   O111      1.0  0.4451600000000001  0.52699  0.42277  1.0000
  O   O112      1.0  0.50777  0.47987  0.33616999999999997  1.0000
  C   C49       1.0  0.47064000000000006  0.48699  0.6728399999999999  1.0000
  C   C50       1.0  0.4445200000000002  0.53603  0.6950599999999998  1.0000
  C   C51       1.0  0.43595000000000017  0.5434499999999999  0.7490599999999997  1.0000
  H   H17       1.0  0.42033000000000004  0.58194  0.7656699999999997  1.0000
  C   C52       1.0  0.44691  0.50131  0.7816999999999998  1.0000
  C   C53       1.0  0.46396000000000015  0.45093  0.7599999999999998  1.0000
  C   C54       1.0  0.4772800000000002  0.44423  0.70552  1.0000
  H   H18       1.0  0.4952300000000001  0.40606  0.6886299999999997  1.0000
  C   C55       1.0  0.46730000000000016  0.40510999999999997  0.7937399999999998  1.0000
  C   C56       1.0  0.52316  0.37894  0.8019399999999998  1.0000
  C   C57       1.0  0.5266700000000002  0.33306  0.83029  1.0000
  C   C58       1.0  0.47447  0.31356999999999996  0.8510299999999997  1.0000
  C   C59       1.0  0.41868  0.33994  0.8435799999999999  1.0000
  C   C60       1.0  0.41504  0.38543  0.8146799999999997  1.0000
  C   C61       1.0  0.42176000000000013  0.57862  0.6624999999999998  1.0000
  C   C62       1.0  0.4510800000000001  0.6209499999999998  0.65161  1.0000
  C   C63       1.0  0.4262600000000002  0.66326  0.6246499999999999  1.0000
  C   C64       1.0  0.37204  0.66352  0.60886  1.0000
  C   C65       1.0  0.34340000000000004  0.621  0.61874  1.0000
  C   C66       1.0  0.36825  0.5785  0.6452999999999998  1.0000
  H   H19       1.0  0.4486299999999999  0.69607  0.61658  1.0000
  H   H20       1.0  0.3519500000000001  0.69678  0.5893299999999999  1.0000
  H   H21       1.0  0.30144000000000004  0.6213199999999999  0.6065299999999999  1.0000
  H   H22       1.0  0.34530000000000016  0.546  0.6535699999999998  1.0000
  H   H23       1.0  0.49252  0.62131  0.6645499999999999  1.0000
  H   H24       1.0  0.5637800000000001  0.39368  0.7856799999999999  1.0000
  H   H25       1.0  0.56993  0.31227  0.83555  1.0000
  H   H26       1.0  0.37177  0.40525  0.8082999999999998  1.0000
  H   H27       1.0  0.37835  0.32479  0.85968  1.0000
  H   H28       1.0  0.47725000000000023  0.27784  0.87247  1.0000
  C   C67       1.0  0.5626500000000002  0.51338  0.25846  1.0000
  C   C68       1.0  0.5518400000000001  0.55818  0.22847  1.0000
  C   C69       1.0  0.5536  0.55349  0.17481  1.0000
  H   H29       1.0  0.5444700000000002  0.58781  0.15184  1.0000
  C   C70       1.0  0.5681100000000001  0.50483  0.15057  1.0000
  C   C71       1.0  0.5883600000000002  0.46113  0.17881  1.0000
  C   C72       1.0  0.5840500000000002  0.4654199999999999  0.23280999999999993  1.0000
  H   H30       1.0  0.59646  0.43127  0.2551  1.0000
  C   C73       1.0  0.6204800000000001  0.4127  0.15141  1.0000
  C   C74       1.0  0.6818900000000002  0.40716  0.12866  1.0000
  C   C75       1.0  0.71209  0.3619  0.10141  1.0000
  C   C76       1.0  0.68133  0.32179  0.09741  1.0000
  C   C77       1.0  0.6203800000000003  0.32679  0.12085999999999997  1.0000
  C   C78       1.0  0.5899199999999999  0.3721  0.14798  1.0000
  C   C79       1.0  0.5450800000000003  0.6099  0.25115999999999994  1.0000
  C   C80       1.0  0.5944600000000002  0.63516  0.24251999999999996  1.0000
  C   C81       1.0  0.58665  0.68697  0.25674  1.0000
  C   C82       1.0  0.52964  0.7136399999999999  0.28002  1.0000
  C   C83       1.0  0.48052  0.68827  0.29003999999999996  1.0000
  C   C84       1.0  0.48807  0.63652  0.27529  1.0000
  H   H31       1.0  0.6246800000000001  0.7066  0.24921999999999994  1.0000
  H   H32       1.0  0.52346  0.75405  0.28970999999999997  1.0000
  H   H33       1.0  0.43644  0.70902  0.30816999999999994  1.0000
  H   H34       1.0  0.4495900000000001  0.6174899999999999  0.28136  1.0000
  H   H35       1.0  0.63835  0.61511  0.22321  1.0000
  H   H36       1.0  0.70592  0.43817  0.13151  1.0000
  H   H37       1.0  0.75929  0.35797  0.08333  1.0000
  H   H38       1.0  0.54263  0.3759  0.16579999999999995  1.0000
  H   H39       1.0  0.5968500000000001  0.29556  0.11799999999999997  1.0000
  H   H40       1.0  0.7047400000000003  0.28678  0.07626  1.0000
  C   C85       1.0  0.5139300000000003  0.6979999999999997  0.4728  1.0000
  C   C86       1.0  0.5598400000000001  0.72787  0.4665799999999999  1.0000
  C   C87       1.0  0.54608  0.77929  0.4844799999999999  1.0000
  H   H41       1.0  0.5810300000000002  0.80246  0.47820999999999997  1.0000
  C   C88       1.0  0.4865  0.80229  0.5055099999999999  1.0000
  C   C89       1.0  0.4413000000000001  0.77159  0.514  1.0000
  C   C90       1.0  0.4551  0.7203  0.49619999999999986  1.0000
  H   H42       1.0  0.4205800000000001  0.6968699999999999  0.50318  1.0000
  C   C91       1.0  0.37931000000000004  0.79296  0.54158  1.0000
  C   C92       1.0  0.36784  0.80816  0.5943  1.0000
  C   C93       1.0  0.3093700000000001  0.82945  0.6198999999999999  1.0000
  C   C94       1.0  0.26219  0.8354  0.5931299999999999  1.0000
  C   C95       1.0  0.27339  0.82007  0.5407  1.0000
  C   C96       1.0  0.33185  0.7992  0.5147999999999999  1.0000
  C   C97       1.0  0.62178  0.70628  0.43909  1.0000
  C   C98       1.0  0.63382  0.69464  0.3854499999999999  1.0000
  C   C99       1.0  0.69174  0.67164  0.36000999999999994  1.0000
  C   C100      1.0  0.7378800000000001  0.66047  0.3879199999999999  1.0000
  C   C101      1.0  0.72627  0.67259  0.44126  1.0000
  C   C102      1.0  0.66837  0.69554  0.4668699999999999  1.0000
  H   H43       1.0  0.7008200000000002  0.6624  0.3187  1.0000
  H   H44       1.0  0.7826000000000002  0.6424  0.3682599999999999  1.0000
  H   H45       1.0  0.7620700000000002  0.66398  0.4627799999999999  1.0000
  H   H46       1.0  0.6594800000000001  0.70424  0.5083299999999998  1.0000
  H   H47       1.0  0.5982  0.70296  0.3637399999999999  1.0000
  H   H48       1.0  0.40415  0.80355  0.61529  1.0000
  H   H49       1.0  0.30062000000000005  0.84133  0.66048  1.0000
  H   H50       1.0  0.34041  0.78838  0.4738699999999999  1.0000
  H   H51       1.0  0.23678999999999997  0.82436  0.52014  1.0000
  H   H52       1.0  0.21695  0.85188  0.613  1.0000
  C   C103      1.0  0.46655  0.20366  0.48456  1.0000
  C   C104      1.0  0.4966000000000001  0.21953999999999999  0.52195  1.0000
  C   C105      1.0  0.5210300000000001  0.26456  0.5137699999999998  1.0000
  H   H53       1.0  0.54414  0.2762  0.54227  1.0000
  C   C106      1.0  0.51523  0.29502  0.4697699999999999  1.0000
  C   C107      1.0  0.48646  0.27876  0.43181999999999987  1.0000
  C   C108      1.0  0.46316000000000007  0.23293999999999995  0.43925999999999993  1.0000
  H   H54       1.0  0.4404400000000001  0.22116  0.4105399999999999  1.0000
  C   C109      1.0  0.47628  0.31123  0.3863199999999999  1.0000
  C   C110      1.0  0.42051999999999995  0.34356  0.3878  1.0000
  C   C111      1.0  0.4119  0.37648  0.34604  1.0000
  C   C112      1.0  0.45836000000000005  0.37612  0.30208  1.0000
  C   C113      1.0  0.5129  0.34187  0.29923999999999995  1.0000
  C   C114      1.0  0.52162  0.30887  0.34093999999999997  1.0000
  C   C115      1.0  0.50291  0.18975  0.57002  1.0000
  C   C116      1.0  0.4573700000000001  0.19924  0.6153799999999999  1.0000
  C   C117      1.0  0.46491000000000016  0.17348999999999998  0.6617499999999997  1.0000
  C   C118      1.0  0.5188900000000003  0.14012  0.6637399999999998  1.0000
  C   C119      1.0  0.56539  0.13248  0.61943  1.0000
  C   C120      1.0  0.5575100000000001  0.15710999999999997  0.57261  1.0000
  H   H55       1.0  0.4291000000000001  0.17969999999999997  0.6962099999999998  1.0000
  H   H56       1.0  0.52481  0.12033  0.6996399999999999  1.0000
  H   H57       1.0  0.60777  0.1079  0.62153  1.0000
  H   H58       1.0  0.5940200000000002  0.1515  0.5387  1.0000
  H   H59       1.0  0.41590000000000005  0.22587999999999997  0.6143999999999998  1.0000
  H   H60       1.0  0.38408000000000003  0.34317  0.42124  1.0000
  H   H61       1.0  0.36932  0.40235999999999994  0.34783999999999987  1.0000
  H   H62       1.0  0.56406  0.28259  0.33862999999999993  1.0000
  H   H63       1.0  0.5484600000000001  0.34102  0.26483  1.0000
  H   H64       1.0  0.45192  0.4020299999999999  0.27003  1.0000
  C   C121      1.0  0.51475  0.69975  0.9471499999999998  1.0000
  C   C122      1.0  0.49467  0.71331  0.0005499999999999999  1.0000
  C   C123      1.0  0.51647  0.75264  0.02143  1.0000
  H   H65       1.0  0.50055  0.76292  0.06250999999999998  1.0000
  C   C124      1.0  0.54943  0.78471  0.98824  1.0000
  C   C125      1.0  0.5712799999999999  0.77002  0.9352099999999999  1.0000
  C   C126      1.0  0.5507400000000001  0.7299499999999999  0.91446  1.0000
  H   H66       1.0  0.5675000000000001  0.71912  0.87359  1.0000
  C   C127      1.0  0.61497  0.79702  0.9006499999999997  1.0000
  C   C128      1.0  0.67519  0.77237  0.8850199999999999  1.0000
  C   C129      1.0  0.7158500000000002  0.79644  0.8498699999999998  1.0000
  C   C130      1.0  0.69653  0.8448299999999999  0.82981  1.0000
  C   C131      1.0  0.6365  0.86924  0.8446999999999998  1.0000
  C   C132      1.0  0.5954399999999999  0.84502  0.8792199999999999  1.0000
  C   C133      1.0  0.4509  0.68619  0.03489  1.0000
  C   C134      1.0  0.46687  0.65772  0.07771  1.0000
  C   C135      1.0  0.4253900000000002  0.6320699999999999  0.10995  1.0000
  C   C136      1.0  0.36823  0.63421  0.09928999999999998  1.0000
  C   C137      1.0  0.3520400000000001  0.6626699999999999  0.05688  1.0000
  C   C138      1.0  0.3931  0.68879  0.024789999999999996  1.0000
  H   H67       1.0  0.43765999999999994  0.61021  0.14297  1.0000
  H   H68       1.0  0.33646  0.61385  0.12394  1.0000
  H   H69       1.0  0.30757000000000007  0.66468  0.04904  1.0000
  H   H70       1.0  0.3801500000000001  0.71087  0.9920599999999999  1.0000
  H   H71       1.0  0.5114  0.65523  0.08571  1.0000
  H   H72       1.0  0.6903500000000001  0.73458  0.89995  1.0000
  H   H73       1.0  0.7622100000000002  0.77739  0.8378099999999998  1.0000
  H   H74       1.0  0.54851  0.86319  0.8887599999999999  1.0000
  H   H75       1.0  0.6217300000000002  0.9067799999999998  0.82921  1.0000
  H   H76       1.0  0.7279600000000003  0.8632099999999999  0.80234  1.0000
  C   C139      1.0  0.5009500000000001  0.19635  0.9879799999999997  1.0000
  C   C140      1.0  0.5415900000000002  0.21877  0.95008  1.0000
  C   C141      1.0  0.546  0.27057  0.95533  1.0000
  H   H77       1.0  0.5770500000000001  0.28776  0.9261399999999997  1.0000
  C   C142      1.0  0.5078800000000002  0.30113  0.99603  1.0000
  C   C143      1.0  0.46763000000000005  0.27862  0.03417  1.0000
  C   C144      1.0  0.46252000000000004  0.22708  0.02852  1.0000
  H   H78       1.0  0.4318800000000001  0.2098  0.058079999999999986  1.0000
  C   C145      1.0  0.4359100000000001  0.30701  0.08289999999999997  1.0000
  C   C146      1.0  0.38252000000000014  0.3427299999999999  0.08398  1.0000
  C   C147      1.0  0.35633  0.37329  0.12854  1.0000
  C   C148      1.0  0.38094  0.36595  0.17327999999999993  1.0000
  C   C149      1.0  0.4323500000000001  0.32850999999999997  0.17324  1.0000
  C   C150      1.0  0.46015000000000006  0.2994  0.12803  1.0000
  C   C151      1.0  0.5786000000000001  0.18851  0.9039899999999998  1.0000
  C   C152      1.0  0.55082  0.16927  0.8677399999999998  1.0000
  C   C153      1.0  0.58582  0.14231  0.82326  1.0000
  C   C154      1.0  0.6484900000000002  0.13506  0.81439  1.0000
  C   C155      1.0  0.67638  0.15384  0.8504899999999999  1.0000
  C   C156      1.0  0.64164  0.18025  0.89541  1.0000
  H   H79       1.0  0.5644  0.12726  0.79551  1.0000
  H   H80       1.0  0.6754700000000002  0.11483  0.77955  1.0000
  H   H81       1.0  0.7248800000000003  0.14826  0.8434299999999998  1.0000
  H   H82       1.0  0.66357  0.19455  0.9233  1.0000
  H   H83       1.0  0.5022800000000001  0.17539  0.8739699999999998  1.0000
  H   H84       1.0  0.36209  0.34754  0.05003999999999999  1.0000
  H   H85       1.0  0.31751  0.40304999999999996  0.12815  1.0000
  H   H86       1.0  0.50054  0.27116  0.128  1.0000
  H   H87       1.0  0.4509800000000002  0.32235  0.20802999999999996  1.0000
  H   H88       1.0  0.3602099999999999  0.38926  0.20794999999999994  1.0000
  C   C157      1.0  0.46405000000000013  0.99521  0.7039499999999997  1.0000
  C   C158      1.0  0.49718999999999997  0.9544099999999998  0.72776  1.0000
  C   C159      1.0  0.5023200000000002  0.95949  0.7798299999999998  1.0000
  H   H89       1.0  0.5270600000000002  0.9277799999999999  0.7982899999999998  1.0000
  C   C160      1.0  0.47413  0.004629999999999998  0.8087  1.0000
  C   C161      1.0  0.43853000000000003  0.04435  0.7856599999999999  1.0000
  C   C162      1.0  0.4348100000000001  0.03984  0.7332499999999997  1.0000
  H   H90       1.0  0.4100900000000001  0.07163  0.7148399999999998  1.0000
  C   C163      1.0  0.40106  0.08866  0.8172399999999997  1.0000
  C   C164      1.0  0.3472500000000001  0.08264  0.85125  1.0000
  C   C165      1.0  0.31201000000000007  0.12434  0.8816199999999997  1.0000
  C   C166      1.0  0.3300500000000002  0.17229  0.8777299999999998  1.0000
  C   C167      1.0  0.38323000000000007  0.17864  0.8433  1.0000
  C   C168      1.0  0.41866000000000003  0.13696  0.8129699999999999  1.0000
  C   C169      1.0  0.5275500000000001  0.9067  0.6981399999999998  1.0000
  C   C170      1.0  0.49482  0.8681999999999997  0.69233  1.0000
  C   C171      1.0  0.5223900000000001  0.82493  0.6607799999999999  1.0000
  C   C172      1.0  0.5827100000000001  0.81974  0.63535  1.0000
  C   C173      1.0  0.6157499999999999  0.85756  0.6418  1.0000
  C   C174      1.0  0.5883100000000001  0.90102  0.67313  1.0000
  H   H91       1.0  0.4969600000000001  0.79552  0.65589  1.0000
  H   H92       1.0  0.6038600000000002  0.7863899999999999  0.61068  1.0000
  H   H93       1.0  0.6625399999999999  0.8532699999999999  0.62238  1.0000
  H   H94       1.0  0.61389  0.93056  0.67738  1.0000
  H   H95       1.0  0.44785000000000014  0.87234  0.71136  1.0000
  H   H96       1.0  0.33307000000000003  0.04565  0.8542599999999998  1.0000
  H   H97       1.0  0.27074  0.11949000000000001  0.90814  1.0000
  H   H98       1.0  0.45968000000000003  0.14215  0.78638  1.0000
  H   H99       1.0  0.39707000000000003  0.2158  0.8402199999999997  1.0000
  H   H100      1.0  0.3027700000000001  0.20453999999999997  0.9012899999999998  1.0000
  C   C175      1.0  0.5400200000000002  0.98289  0.19198  1.0000
  C   C176      1.0  0.5299200000000002  0.03327  0.21373999999999996  1.0000
  C   C177      1.0  0.49793  0.04309  0.2654  1.0000
  H   H101      1.0  0.48846  0.08205999999999997  0.28103  1.0000
  C   C178      1.0  0.47843000000000013  0.0031399999999999996  0.29699999999999993  1.0000
  C   C179      1.0  0.4924800000000001  0.95214  0.27656  1.0000
  C   C180      1.0  0.5218200000000002  0.9427099999999998  0.22410999999999998  1.0000
  H   H102      1.0  0.53123  0.90372  0.20853  1.0000
  C   C181      1.0  0.48172000000000004  0.90774  0.31061  1.0000
  C   C182      1.0  0.5262900000000001  0.88306  0.33658  1.0000
  C   C183      1.0  0.5175300000000003  0.8393799999999999  0.3666099999999999  1.0000
  C   C184      1.0  0.4635700000000001  0.8210899999999998  0.37215  1.0000
  C   C185      1.0  0.4190200000000001  0.84554  0.34629999999999994  1.0000
  C   C186      1.0  0.42834  0.88836  0.31492  1.0000
  C   C187      1.0  0.5538300000000002  0.07576  0.18376  1.0000
  C   C188      1.0  0.6123800000000001  0.08306  0.18395999999999996  1.0000
  C   C189      1.0  0.63456  0.12405  0.15643  1.0000
  C   C190      1.0  0.59804  0.1584  0.12957  1.0000
  C   C191      1.0  0.5393  0.15182  0.13026999999999997  1.0000
  C   C192      1.0  0.51721  0.1105  0.15708999999999998  1.0000
  H   H103      1.0  0.67995  0.12929  0.15605  1.0000
  H   H104      1.0  0.61517  0.1902  0.10836999999999997  1.0000
  H   H105      1.0  0.5109400000000001  0.17866  0.11002  1.0000
  H   H106      1.0  0.4718200000000001  0.10544  0.15708999999999998  1.0000
  H   H107      1.0  0.64063  0.05686999999999999  0.20519  1.0000
  H   H108      1.0  0.5680100000000001  0.89726  0.3328199999999999  1.0000
  H   H109      1.0  0.55302  0.8191899999999998  0.3846999999999999  1.0000
  H   H110      1.0  0.39393  0.90683  0.29455  1.0000
  H   H111      1.0  0.37759  0.83095  0.3500999999999999  1.0000
  H   H112      1.0  0.45694000000000035  0.7871699999999999  0.3953099999999999  1.0000
  C   C193      1.0  0.71475  0.45721  0.52962  1.0000
  C   C194      1.0  0.7345100000000001  0.48341  0.56707  1.0000
  C   C195      1.0  0.79582  0.4857  0.5605799999999999  1.0000
  H   H113      1.0  0.8108700000000001  0.5072  0.58841  1.0000
  C   C196      1.0  0.83757  0.46045  0.51806  1.0000
  C   C197      1.0  0.8179800000000003  0.42902  0.4843  1.0000
  C   C198      1.0  0.7568900000000004  0.42643  0.4917699999999999  1.0000
  H   H114      1.0  0.7416200000000004  0.40448999999999996  0.4644099999999999  1.0000
  C   C199      1.0  0.85884  0.40443  0.4369599999999999  1.0000
  C   C200      1.0  0.8533700000000001  0.42498  0.38775  1.0000
  C   C201      1.0  0.8840000000000001  0.39748999999999995  0.34239  1.0000
  C   C202      1.0  0.91956  0.34893  0.34585  1.0000
  C   C203      1.0  0.92561  0.3285  0.3946799999999999  1.0000
  C   C204      1.0  0.8949200000000002  0.35588  0.44013999999999986  1.0000
  C   C205      1.0  0.69148  0.50674  0.61402  1.0000
  C   C206      1.0  0.6745600000000002  0.56055  0.61903  1.0000
  C   C207      1.0  0.6316299999999999  0.58239  0.66236  1.0000
  C   C208      1.0  0.6057200000000003  0.55067  0.7008899999999999  1.0000
  C   C209      1.0  0.62269  0.49706999999999996  0.6961699999999997  1.0000
  C   C210      1.0  0.66532  0.47505  0.65277  1.0000
  H   H115      1.0  0.61814  0.62387  0.6658999999999999  1.0000
  H   H116      1.0  0.57223  0.56763  0.73421  1.0000
  H   H117      1.0  0.6024700000000001  0.4725799999999999  0.72594  1.0000
  H   H118      1.0  0.67764  0.43347  0.64899  1.0000
  H   H119      1.0  0.6939500000000001  0.58532  0.58904  1.0000
  H   H120      1.0  0.8245800000000002  0.46188  0.3847699999999999  1.0000
  H   H121      1.0  0.87943  0.41363999999999995  0.30471  1.0000
  H   H122      1.0  0.8986500000000003  0.33919999999999995  0.4776  1.0000
  H   H123      1.0  0.9532600000000001  0.29101  0.39734  1.0000
  H   H124      1.0  0.9417500000000003  0.32677999999999996  0.31085  1.0000
  C   C211      1.0  0.2341900000000001  0.47800999999999993  0.47193  1.0000
  C   C212      1.0  0.27735000000000004  0.4353099999999999  0.48115  1.0000
  C   C213      1.0  0.33702000000000004  0.44139  0.4774999999999999  1.0000
  H   H125      1.0  0.3689200000000001  0.40974  0.48872  1.0000
  C   C214      1.0  0.35701000000000005  0.4861499999999999  0.4554799999999999  1.0000
  C   C215      1.0  0.31427  0.52768  0.4426699999999999  1.0000
  C   C216      1.0  0.2538300000000001  0.52263  0.4496599999999999  1.0000
  H   H126      1.0  0.22131000000000006  0.55498  0.4405199999999999  1.0000
  C   C217      1.0  0.32972  0.57879  0.42893  1.0000
  C   C218      1.0  0.33736000000000005  0.59512  0.37674999999999986  1.0000
  C   C219      1.0  0.34137  0.64654  0.36478999999999995  1.0000
  C   C220      1.0  0.33823  0.68166  0.40472  1.0000
  C   C221      1.0  0.33018000000000003  0.6655799999999998  0.45673999999999987  1.0000
  C   C222      1.0  0.32692  0.61413  0.4688199999999999  1.0000
  C   C223      1.0  0.26299  0.38274  0.48665999999999987  1.0000
  C   C224      1.0  0.24495000000000003  0.36057999999999996  0.44571  1.0000
  C   C225      1.0  0.23193000000000016  0.31077  0.4506599999999999  1.0000
  C   C226      1.0  0.23827  0.28238  0.49579  1.0000
  C   C227      1.0  0.25750000000000006  0.30378  0.5361299999999999  1.0000
  C   C228      1.0  0.26937  0.35402  0.5318899999999999  1.0000
  H   H127      1.0  0.21717  0.29409  0.41942  1.0000
  H   H128      1.0  0.22854000000000008  0.24369  0.4994099999999999  1.0000
  H   H129      1.0  0.26350000000000007  0.28133  0.57053  1.0000
  H   H130      1.0  0.28365  0.37053  0.56356  1.0000
  H   H131      1.0  0.24087000000000017  0.38203  0.4102599999999999  1.0000
  H   H132      1.0  0.33856  0.56835  0.34575  1.0000
  H   H133      1.0  0.34562000000000015  0.6594099999999999  0.32472  1.0000
  H   H134      1.0  0.31979  0.60213  0.50927  1.0000
  H   H135      1.0  0.32466  0.6932699999999998  0.48783  1.0000
  H   H136      1.0  0.34094000000000013  0.72152  0.39544  1.0000
  C   C229      1.0  0.7127500000000001  0.47426  0.95645  1.0000
  C   C230      1.0  0.75319  0.48516999999999993  0.91065  1.0000
  C   C231      1.0  0.8000700000000003  0.5112499999999999  0.9145999999999997  1.0000
  H   H137      1.0  0.83336  0.51653  0.8798999999999999  1.0000
  C   C232      1.0  0.8078000000000005  0.52526  0.9638199999999998  1.0000
  C   C233      1.0  0.7640100000000002  0.51801  0.00809  1.0000
  C   C234      1.0  0.72524  0.48401  0.00493  1.0000
  H   H138      1.0  0.6990100000000002  0.4711099999999999  0.04035  1.0000
  C   C235      1.0  0.7522300000000002  0.55218  0.05432  1.0000
  C   C236      1.0  0.7932499999999999  0.54748  0.08761999999999999  1.0000
  C   C237      1.0  0.7857800000000001  0.58427  0.12696  1.0000
  C   C238      1.0  0.7346800000000004  0.62312  0.1363  1.0000
  C   C239      1.0  0.6921900000000001  0.62659  0.10480999999999999  1.0000
  C   C240      1.0  0.7015000000000001  0.59193  0.06318999999999998  1.0000
  C   C241      1.0  0.7477800000000002  0.46805  0.8587099999999998  1.0000
  C   C242      1.0  0.74937  0.41564  0.8491799999999998  1.0000
  C   C243      1.0  0.7473200000000005  0.39911  0.7993699999999998  1.0000
  C   C244      1.0  0.7439100000000002  0.43464  0.7588999999999999  1.0000
  C   C245      1.0  0.7417400000000001  0.48692  0.7682599999999998  1.0000
  C   C246      1.0  0.7434600000000001  0.50373  0.8180599999999999  1.0000
  H   H139      1.0  0.74893  0.35867  0.79204  1.0000
  H   H140      1.0  0.7434600000000001  0.42157  0.72019  1.0000
  H   H141      1.0  0.73904  0.51437  0.73685  1.0000
  H   H142      1.0  0.74189  0.5443  0.8249899999999998  1.0000
  H   H143      1.0  0.7529599999999999  0.38773  0.88012  1.0000
  H   H144      1.0  0.8312300000000001  0.51589  0.08263  1.0000
  H   H145      1.0  0.8199300000000003  0.58305  0.14975  1.0000
  H   H146      1.0  0.6701  0.5966  0.037189999999999994  1.0000
  H   H147      1.0  0.6528300000000001  0.6569099999999998  0.11183  1.0000
  H   H148      1.0  0.7285300000000001  0.6510599999999999  0.16736999999999994  1.0000
  C   C247      1.0  0.29767  0.54235  0.00693  1.0000
  C   C248      1.0  0.25578000000000006  0.56187  0.97553  1.0000
  C   C249      1.0  0.19587000000000004  0.55479  0.99087  1.0000
  H   H149      1.0  0.1640000000000001  0.5691399999999999  0.9664099999999998  1.0000
  C   C250      1.0  0.1774700000000001  0.52799  0.03676  1.0000
  C   C251      1.0  0.21844  0.51103  0.06943  1.0000
  C   C252      1.0  0.27680000000000005  0.52195  0.05610999999999999  1.0000
  H   H150      1.0  0.3084  0.50829  0.08105999999999997  1.0000
  C   C253      1.0  0.20389000000000002  0.4756199999999999  0.11317999999999999  1.0000
  C   C254      1.0  0.20695000000000002  0.48879  0.16403999999999994  1.0000
  C   C255      1.0  0.20354000000000008  0.4520199999999999  0.20362  1.0000
  C   C256      1.0  0.19455000000000003  0.40274999999999994  0.19328  1.0000
  C   C257      1.0  0.19072000000000003  0.38960999999999996  0.14286  1.0000
  C   C258      1.0  0.19556  0.42579999999999996  0.10280999999999998  1.0000
  C   C259      1.0  0.27432  0.58844  0.92596  1.0000
  C   C260      1.0  0.28475000000000006  0.63912  0.92666  1.0000
  C   C261      1.0  0.30116000000000004  0.6645699999999999  0.8796599999999998  1.0000
  C   C262      1.0  0.3062800000000001  0.63987  0.8318999999999998  1.0000
  C   C263      1.0  0.29508999999999996  0.58965  0.83107  1.0000
  C   C264      1.0  0.2792700000000001  0.56386  0.8779599999999999  1.0000
  H   H151      1.0  0.3096700000000002  0.7034999999999998  0.8802299999999997  1.0000
  H   H152      1.0  0.3189800000000001  0.65963  0.79554  1.0000
  H   H153      1.0  0.29897000000000007  0.57062  0.79407  1.0000
  H   H154      1.0  0.2710600000000001  0.52482  0.8770299999999998  1.0000
  H   H155      1.0  0.2801100000000001  0.65869  0.9635  1.0000
  H   H156      1.0  0.21437000000000003  0.52678  0.17234999999999998  1.0000
  H   H157      1.0  0.21018000000000003  0.46106  0.24168999999999993  1.0000
  H   H158      1.0  0.19502  0.41464  0.0634  1.0000
  H   H159      1.0  0.18542  0.3509999999999999  0.13454  1.0000
  H   H160      1.0  0.19188  0.37439  0.22403999999999993  1.0000
  C   C265      1.0  0.05967000000000005  0.46452  0.6893299999999998  1.0000
  C   C266      1.0  0.07199000000000005  0.4269399999999999  0.72703  1.0000
  C   C267      1.0  0.05178000000000008  0.43935  0.7802999999999998  1.0000
  H   H161      1.0  0.06125000000000002  0.41059  0.80943  1.0000
  C   C268      1.0  0.020290000000000058  0.48892  0.7962499999999998  1.0000
  C   C269      1.0  0.006880000000000012  0.52605  0.75849  1.0000
  C   C270      1.0  0.02645999999999999  0.51349  0.7053499999999999  1.0000
  H   H162      1.0  0.0163  0.54211  0.67626  1.0000
  C   C271      1.0  0.9720900000000001  0.5780699999999999  0.7740299999999998  1.0000
  C   C272      1.0  0.9092500000000002  0.58572  0.7899199999999997  1.0000
  C   C273      1.0  0.8759900000000002  0.63562  0.8002199999999998  1.0000
  C   C274      1.0  0.90525  0.67796  0.7942799999999998  1.0000
  C   C275      1.0  0.9678900000000001  0.6703899999999999  0.77949  1.0000
  C   C276      1.0  0.0013499999999999905  0.62059  0.76926  1.0000
  C   C277      1.0  0.10732999999999995  0.37507  0.71131  1.0000
  C   C278      1.0  0.07967000000000012  0.3316  0.7197099999999997  1.0000
  C   C279      1.0  0.11341000000000002  0.28246  0.7059199999999999  1.0000
  C   C280      1.0  0.17497999999999994  0.27641  0.68453  1.0000
  C   C281      1.0  0.20300000000000012  0.31946  0.6772799999999999  1.0000
  C   C282      1.0  0.16931000000000002  0.36875  0.69038  1.0000
  H   H163      1.0  0.09191000000000009  0.24905  0.7122399999999998  1.0000
  H   H164      1.0  0.20104999999999998  0.23837  0.67388  1.0000
  H   H165      1.0  0.25088000000000005  0.31462  0.66172  1.0000
  H   H166      1.0  0.19133000000000003  0.40192  0.68463  1.0000
  H   H167      1.0  0.03226000000000007  0.33585999999999994  0.7372799999999999  1.0000
  H   H168      1.0  0.88623  0.55317  0.79343  1.0000
  H   H169      1.0  0.8275100000000002  0.64151  0.8122899999999998  1.0000
  H   H170      1.0  0.049830000000000034  0.61506  0.7570199999999999  1.0000
  H   H171      1.0  0.9905000000000002  0.70314  0.77554  1.0000
  H   H172      1.0  0.87938  0.71664  0.80109  1.0000
  C   C283      1.0  0.9698200000000002  0.53065  0.32057  1.0000
  C   C284      1.0  0.024609999999999996  0.52492  0.28351  1.0000
  C   C285      1.0  0.025010000000000004  0.51761  0.23058999999999993  1.0000
  H   H173      1.0  0.06715000000000003  0.51323  0.20214  1.0000
  C   C286      1.0  0.9712  0.51822  0.21373999999999996  1.0000
  C   C287      1.0  0.9159500000000002  0.52513  0.25073  1.0000
  C   C288      1.0  0.91602  0.53189  0.30374999999999996  1.0000
  H   H174      1.0  0.87431  0.53492  0.33258999999999994  1.0000
  C   C289      1.0  0.8580900000000002  0.52203  0.23545  1.0000
  C   C290      1.0  0.80523  0.5563  0.25819  1.0000
  C   C291      1.0  0.7490400000000002  0.54661  0.25389999999999996  1.0000
  C   C292      1.0  0.7451500000000003  0.50437  0.22467999999999994  1.0000
  C   C293      1.0  0.7974600000000001  0.47151  0.19996  1.0000
  C   C294      1.0  0.85375  0.48028  0.20512999999999995  1.0000
  C   C295      1.0  0.08147000000000001  0.5286  0.2993799999999999  1.0000
  C   C296      1.0  0.10930999999999999  0.57119  0.28422  1.0000
  C   C297      1.0  0.16259000000000007  0.57514  0.29974999999999996  1.0000
  C   C298      1.0  0.18876  0.53632  0.32977999999999996  1.0000
  C   C299      1.0  0.16195000000000007  0.49324  0.34400999999999987  1.0000
  C   C300      1.0  0.10890000000000007  0.48889999999999995  0.32814999999999994  1.0000
  H   H175      1.0  0.18377000000000002  0.60818  0.28826  1.0000
  H   H176      1.0  0.2304  0.53914  0.3411699999999999  1.0000
  H   H177      1.0  0.18295000000000008  0.46273  0.36634999999999995  1.0000
  H   H178      1.0  0.08924999999999998  0.45476  0.33805999999999997  1.0000
  H   H179      1.0  0.08979000000000001  0.60104  0.26027999999999996  1.0000
  H   H180      1.0  0.8076900000000001  0.58953  0.28042  1.0000
  H   H181      1.0  0.70852  0.57171  0.27352  1.0000
  H   H182      1.0  0.89373  0.45455  0.18589999999999998  1.0000
  H   H183      1.0  0.7944500000000002  0.43912  0.17683  1.0000
  H   H184      1.0  0.7016800000000001  0.4975  0.22060999999999997  1.0000
  C   C301      1.0  0.9648600000000002  0.79873  0.5462  1.0000
  C   C302      1.0  0.9610500000000002  0.76607  0.5901  1.0000
  C   C303      1.0  0.9669  0.71262  0.58309  1.0000
  H   H185      1.0  0.9663800000000001  0.68741  0.6166799999999999  1.0000
  C   C304      1.0  0.9746100000000002  0.6914  0.53296  1.0000
  C   C305      1.0  0.9753  0.72441  0.48941  1.0000
  C   C306      1.0  0.9720600000000003  0.7775  0.4961699999999999  1.0000
  H   H186      1.0  0.9729300000000001  0.8026799999999997  0.46252999999999994  1.0000
  C   C307      1.0  0.9784200000000002  0.7040199999999999  0.43664999999999987  1.0000
  C   C308      1.0  0.03091000000000005  0.70224  0.3978999999999999  1.0000
  C   C309      1.0  0.032510000000000004  0.68599  0.34712  1.0000
  C   C310      1.0  0.98216  0.6706799999999998  0.33503  1.0000
  C   C311      1.0  0.92985  0.67222  0.37354  1.0000
  C   C312      1.0  0.92766  0.68934  0.42414  1.0000
  C   C313      1.0  0.94881  0.7873799999999997  0.6436499999999999  1.0000
  C   C314      1.0  0.9966400000000001  0.79148  0.6676299999999997  1.0000
  C   C315      1.0  0.9851600000000001  0.80663  0.72014  1.0000
  C   C316      1.0  0.92605  0.81732  0.74892  1.0000
  C   C317      1.0  0.8781900000000001  0.81458  0.7248  1.0000
  C   C318      1.0  0.8894400000000002  0.79954  0.6722699999999999  1.0000
  H   H187      1.0  0.02213000000000001  0.80908  0.73882  1.0000
  H   H188      1.0  0.91744  0.8268499999999999  0.79009  1.0000
  H   H189      1.0  0.8324500000000001  0.82327  0.74703  1.0000
  H   H190      1.0  0.85223  0.79644  0.65408  1.0000
  H   H191      1.0  0.04261  0.7820999999999999  0.64586  1.0000
  H   H192      1.0  0.07010000000000001  0.71399  0.40700999999999987  1.0000
  H   H193      1.0  0.07267000000000001  0.68551  0.31708  1.0000
  H   H194      1.0  0.8866900000000001  0.69113  0.4536099999999999  1.0000
  H   H195      1.0  0.8910000000000001  0.66021  0.36415  1.0000
  H   H196      1.0  0.9836500000000001  0.65769  0.29581  1.0000
  C   C319      1.0  0.9931300000000001  0.19022  0.49741  1.0000
  C   C320      1.0  0.04655000000000005  0.19795  0.46300999999999987  1.0000
  C   C321      1.0  0.06785000000000004  0.24406  0.4653799999999999  1.0000
  H   H197      1.0  0.10822000000000005  0.25011  0.43804  1.0000
  C   C322      1.0  0.03568999999999999  0.28375  0.50019  1.0000
  C   C323      1.0  0.9831100000000002  0.27561  0.5360399999999998  1.0000
  C   C324      1.0  0.96167  0.22932  0.53344  1.0000
  H   H198      1.0  0.9224100000000002  0.22242999999999996  0.56172  1.0000
  C   C325      1.0  0.9507500000000003  0.31463999999999986  0.57715  1.0000
  C   C326      1.0  0.98137  0.33202  0.61233  1.0000
  C   C327      1.0  0.9511  0.36986  0.6498199999999998  1.0000
  C   C328      1.0  0.8899300000000002  0.38927  0.65354  1.0000
  C   C329      1.0  0.8583700000000001  0.36979999999999996  0.62093  1.0000
  C   C330      1.0  0.88829  0.33193  0.5834899999999998  1.0000
  C   C331      1.0  0.08094000000000004  0.15795999999999996  0.42418  1.0000
  C   C332      1.0  0.05620000000000001  0.14572  0.38245  1.0000
  C   C333      1.0  0.0918  0.11376  0.34159  1.0000
  C   C334      1.0  0.15219999999999997  0.09436  0.34193  1.0000
  C   C335      1.0  0.17686  0.10603  0.38361  1.0000
  C   C336      1.0  0.14117  0.13702  0.4251  1.0000
  H   H199      1.0  0.07273999999999999  0.10423  0.30952  1.0000
  H   H200      1.0  0.17974000000000004  0.06992  0.31012  1.0000
  H   H201      1.0  0.22371  0.09121999999999998  0.38366  1.0000
  H   H202      1.0  0.16067999999999996  0.14592  0.45724  1.0000
  H   H203      1.0  0.009949999999999992  0.16184  0.38115  1.0000
  H   H204      1.0  0.028369999999999986  0.31611  0.61079  1.0000
  H   H205      1.0  0.9750000000000002  0.38416  0.6759999999999998  1.0000
  H   H206      1.0  0.8628  0.31542999999999993  0.56016  1.0000
  H   H207      1.0  0.8106  0.3837899999999999  0.6248899999999998  1.0000
  H   H208      1.0  0.8668000000000002  0.41888  0.6822299999999998  1.0000
  C   C337      1.0  0.62954  0.02897  0.51699  1.0000
  C   C338      1.0  0.66443  0.05319  0.476  1.0000
  C   C339      1.0  0.7231000000000001  0.057989999999999986  0.4790399999999999  1.0000
  H   H209      1.0  0.75141  0.07327  0.44613999999999987  1.0000
  C   C340      1.0  0.74717  0.03839  0.52222  1.0000
  C   C341      1.0  0.70958  0.019319999999999997  0.5653799999999999  1.0000
  C   C342      1.0  0.65175  0.01374  0.5619299999999999  1.0000
  H   H210      1.0  0.6236800000000002  0.99775  0.5946099999999999  1.0000
  C   C343      1.0  0.7326700000000003  0.0005899999999999992  0.6124699999999998  1.0000
  C   C344      1.0  0.75373  0.03425  0.6416799999999999  1.0000
  C   C345      1.0  0.7851900000000004  0.01482  0.6802799999999998  1.0000
  C   C346      1.0  0.7942200000000005  0.962  0.69097  1.0000
  C   C347      1.0  0.7706600000000002  0.92871  0.6637999999999997  1.0000
  C   C348      1.0  0.74021  0.9478  0.6244  1.0000
  C   C349      1.0  0.6409000000000001  0.07165  0.42897999999999986  1.0000
  C   C350      1.0  0.62647  0.12476  0.41983999999999994  1.0000
  C   C351      1.0  0.6022300000000003  0.14213  0.37638  1.0000
  C   C352      1.0  0.59308  0.10666999999999997  0.34153999999999995  1.0000
  C   C353      1.0  0.60813  0.05373999999999999  0.3500899999999999  1.0000
  C   C354      1.0  0.6320100000000002  0.03615999999999999  0.3936899999999999  1.0000
  H   H211      1.0  0.59071  0.18309  0.36962  1.0000
  H   H212      1.0  0.5745900000000003  0.1202  0.30779  1.0000
  H   H213      1.0  0.6012800000000001  0.02633  0.32296  1.0000
  H   H214      1.0  0.64324  0.9951  0.40024  1.0000
  H   H215      1.0  0.63409  0.15247  0.44624999999999987  1.0000
  H   H216      1.0  0.748  0.07504  0.6329  1.0000
  H   H217      1.0  0.8038100000000004  0.04056  0.7008999999999999  1.0000
  H   H218      1.0  0.7247600000000001  0.92141  0.60167  1.0000
  H   H219      1.0  0.77715  0.8879399999999997  0.67245  1.0000
  H   H220      1.0  0.8201200000000002  0.94676  0.7197299999999998  1.0000
  C   C355      1.0  0.13570000000000007  0.010629999999999999  0.5430599999999999  1.0000
  C   C356      1.0  0.16111000000000003  0.99839  0.48971  1.0000
  C   C357      1.0  0.21728000000000003  0.01083  0.46681  1.0000
  H   H221      1.0  0.2376200000000001  0.99932  0.4266  1.0000
  C   C358      1.0  0.25074  0.03183  0.4969199999999999  1.0000
  C   C359      1.0  0.22370000000000012  0.047009999999999996  0.5491399999999999  1.0000
  C   C360      1.0  0.16691999999999999  0.03606  0.57176  1.0000
  H   H222      1.0  0.1475  0.04664  0.6123  1.0000
  C   C361      1.0  0.2556500000000001  0.07189  0.5816099999999998  1.0000
  C   C362      1.0  0.2624900000000001  0.12337  0.5727599999999999  1.0000
  C   C363      1.0  0.29131  0.14725  0.60464  1.0000
  C   C364      1.0  0.3151300000000001  0.11936  0.6441899999999999  1.0000
  C   C365      1.0  0.30681  0.06854  0.65411  1.0000
  C   C366      1.0  0.27598  0.04514999999999999  0.6236499999999999  1.0000
  C   C367      1.0  0.13207000000000002  0.96958  0.4580299999999999  1.0000
  C   C368      1.0  0.10059999999999995  0.99582  0.4219  1.0000
  C   C369      1.0  0.08600000000000009  0.9683499999999999  0.38295999999999997  1.0000
  C   C370      1.0  0.09875000000000002  0.91443  0.38236  1.0000
  C   C371      1.0  0.12732000000000013  0.88798  0.42004  1.0000
  C   C372      1.0  0.14479000000000009  0.91543  0.4573599999999999  1.0000
  H   H223      1.0  0.06512000000000003  0.98885  0.35314  1.0000
  H   H224      1.0  0.08665000000000014  0.89317  0.35269999999999996  1.0000
  H   H225      1.0  0.13703  0.8462399999999999  0.41965  1.0000
  H   H226      1.0  0.16918  0.8947899999999999  0.4850399999999999  1.0000
  H   H227      1.0  0.08825000000000002  0.03737  0.4236299999999999  1.0000
  H   H228      1.0  0.24525000000000002  0.14485  0.54149  1.0000
  H   H229      1.0  0.2961300000000001  0.18708  0.59811  1.0000
  H   H230      1.0  0.26927  0.00592  0.63179  1.0000
  H   H231      1.0  0.3232800000000001  0.04758999999999999  0.68593  1.0000
  H   H232      1.0  0.3385099999999999  0.13761  0.6681  1.0000
  C   C373      1.0  0.02095000000000007  0.7024299999999999  0.9701999999999998  1.0000
  C   C374      1.0  0.9662  0.7379899999999998  0.9814199999999997  1.0000
  C   C375      1.0  0.96564  0.78817  0.99774  1.0000
  H   H233      1.0  0.9235700000000001  0.81561  0.0055499999999999985  1.0000
  C   C376      1.0  0.019150000000000025  0.8037  0.0028699999999999997  1.0000
  C   C377      1.0  0.07371000000000003  0.76747  0.9930499999999998  1.0000
  C   C378      1.0  0.07460000000000004  0.71872  0.9728199999999998  1.0000
  H   H234      1.0  0.11660000000000001  0.6911699999999998  0.9646199999999999  1.0000
  C   C379      1.0  0.12873  0.77786  0.00842  1.0000
  C   C380      1.0  0.18387000000000014  0.76973  0.9720799999999998  1.0000
  C   C381      1.0  0.23690999999999995  0.7743  0.98772  1.0000
  C   C382      1.0  0.23555  0.78601  0.03975  1.0000
  C   C383      1.0  0.18125  0.7926499999999999  0.07639999999999998  1.0000
  C   C384      1.0  0.12814999999999993  0.78753  0.06113  1.0000
  C   C385      1.0  0.9090100000000002  0.72255  0.9778099999999997  1.0000
  C   C386      1.0  0.88725  0.73054  0.9314099999999998  1.0000
  C   C387      1.0  0.8360600000000001  0.7116  0.92645  1.0000
  C   C388      1.0  0.8068200000000002  0.6844199999999999  0.96745  1.0000
  C   C389      1.0  0.8275200000000003  0.67756  0.01412  1.0000
  C   C390      1.0  0.87816  0.69695  0.0196  1.0000
  H   H235      1.0  0.81898  0.71803  0.89094  1.0000
  H   H236      1.0  0.7675400000000002  0.66937  0.9633499999999999  1.0000
  H   H237      1.0  0.8044600000000001  0.6572  0.04594  1.0000
  H   H238      1.0  0.8944300000000002  0.6908  0.05567  1.0000
  H   H239      1.0  0.91045  0.75066  0.89906  1.0000
  H   H240      1.0  0.18557  0.75977  0.9318199999999998  1.0000
  H   H241      1.0  0.27910000000000007  0.76867  0.9594899999999998  1.0000
  H   H242      1.0  0.08673000000000006  0.7906299999999998  0.09021999999999997  1.0000
  H   H243      1.0  0.18044999999999997  0.80117  0.11675999999999999  1.0000
  H   H244      1.0  0.2766500000000001  0.78961  0.05174  1.0000
  C   C391      1.0  0.01988999999999999  0.30954  0.02945  1.0000
  C   C392      1.0  0.0033099999999999944  0.28444  0.07705  1.0000
  C   C393      1.0  0.9888900000000002  0.23521  0.07686999999999998  1.0000
  H   H245      1.0  0.97608  0.21606  0.11370999999999998  1.0000
  C   C394      1.0  0.99501  0.20891  0.02963  1.0000
  C   C395      1.0  0.0136  0.23353  0.9819  1.0000
  C   C396      1.0  0.02911000000000002  0.28234  0.9823899999999999  1.0000
  H   H246      1.0  0.042199999999999994  0.30154  0.94563  1.0000
  C   C397      1.0  0.01428000000000008  0.20993  0.9311399999999997  1.0000
  C   C398      1.0  0.9599600000000001  0.20501  0.91752  1.0000
  C   C399      1.0  0.9597400000000003  0.18945999999999996  0.8668899999999998  1.0000
  C   C400      1.0  0.013180000000000068  0.18063  0.8292399999999998  1.0000
  C   C401      1.0  0.06717999999999999  0.18613  0.84245  1.0000
  C   C402      1.0  0.06809000000000001  0.1995  0.89352  1.0000
  C   C403      1.0  0.99762  0.31068  0.12728  1.0000
  C   C404      1.0  0.9408000000000002  0.32552  0.15971  1.0000
  C   C405      1.0  0.93451  0.35515  0.20446999999999996  1.0000
  C   C406      1.0  0.9845400000000002  0.37149999999999994  0.21611999999999995  1.0000
  C   C407      1.0  0.04159000000000005  0.35463999999999996  0.18542999999999998  1.0000
  C   C408      1.0  0.04840000000000005  0.3238299999999999  0.14124999999999996  1.0000
  H   H247      1.0  0.8905100000000001  0.3668199999999999  0.22909  1.0000
  H   H248      1.0  0.97918  0.39717  0.24893999999999997  1.0000
  H   H249      1.0  0.08035000000000003  0.36574  0.19571999999999995  1.0000
  H   H250      1.0  0.09265999999999995  0.31166999999999995  0.11693  1.0000
  H   H251      1.0  0.9014200000000001  0.31514  0.14954  1.0000
  H   H252      1.0  0.91802  0.21413  0.9458399999999998  1.0000
  H   H253      1.0  0.91798  0.18542  0.85649  1.0000
  H   H254      1.0  0.11014000000000006  0.20395  0.9032999999999998  1.0000
  H   H255      1.0  0.10794000000000006  0.18177  0.8128099999999998  1.0000
  H   H256      1.0  0.012559999999999997  0.17036  0.78964  1.0000
  C   C409      1.0  0.7265100000000004  0.97802  0.9763399999999998  1.0000
  C   C410      1.0  0.7695  0.93861  0.9923899999999998  1.0000
  C   C411      1.0  0.82881  0.94665  0.9882  1.0000
  H   H257      1.0  0.8626500000000006  0.91584  0.9980199999999998  1.0000
  C   C412      1.0  0.8438500000000002  0.9949499999999998  0.9731499999999997  1.0000
  C   C413      1.0  0.8001  0.03438  0.9594599999999999  1.0000
  C   C414      1.0  0.74559  0.022709999999999998  0.9535999999999998  1.0000
  H   H258      1.0  0.71443  0.05183  0.93794  1.0000
  C   C415      1.0  0.80548  0.08919  0.9620199999999999  1.0000
  C   C416      1.0  0.8085  0.1194  0.9168099999999999  1.0000
  C   C417      1.0  0.8030900000000001  0.17289  0.9205799999999998  1.0000
  C   C418      1.0  0.7956  0.19638  0.96933  1.0000
  C   C419      1.0  0.7936500000000001  0.1664  0.014409999999999996  1.0000
  C   C420      1.0  0.798  0.113  0.010939999999999997  1.0000
  C   C421      1.0  0.75351  0.88942  0.013649999999999999  1.0000
  C   C422      1.0  0.74256  0.85291  0.9805999999999999  1.0000
  C   C423      1.0  0.7254  0.80719  0.0013899999999999997  1.0000
  C   C424      1.0  0.7206900000000003  0.79713  0.05474999999999999  1.0000
  C   C425      1.0  0.7325500000000001  0.83301  0.08760999999999998  1.0000
  C   C426      1.0  0.7488700000000006  0.87913  0.06721  1.0000
  H   H259      1.0  0.71577  0.7795399999999998  0.97624  1.0000
  H   H260      1.0  0.7078600000000002  0.76152  0.07062  1.0000
  H   H261      1.0  0.7288300000000001  0.82519  0.12893  1.0000
  H   H262      1.0  0.7573500000000001  0.90703  0.09299999999999997  1.0000
  H   H263      1.0  0.74627  0.86038  0.93917  1.0000
  H   H264      1.0  0.8131300000000001  0.1017  0.8790999999999998  1.0000
  H   H265      1.0  0.80399  0.19622  0.88576  1.0000
  H   H266      1.0  0.7942800000000001  0.09024999999999998  0.04628  1.0000
  H   H267      1.0  0.78776  0.18464  0.05215999999999999  1.0000
  H   H268      1.0  0.79139  0.23779  0.9721499999999998  1.0000
  C   C427      1.0  0.20928999999999998  0.97517  0.041169999999999984  1.0000
  C   C428      1.0  0.2424000000000001  0.97456  0.9892599999999998  1.0000
  C   C429      1.0  0.29669000000000006  0.9928999999999999  0.9789899999999998  1.0000
  H   H269      1.0  0.32249000000000017  0.99228  0.93926  1.0000
  C   C430      1.0  0.3219  0.00557  0.019969999999999995  1.0000
  C   C431      1.0  0.2909900000000001  0.00208  0.072  1.0000
  C   C432      1.0  0.23592000000000002  0.98517  0.08233999999999997  1.0000
  H   H270      1.0  0.21108000000000002  0.98451  0.12238999999999997  1.0000
  C   C433      1.0  0.31675000000000003  0.015419999999999998  0.11591  1.0000
  C   C434      1.0  0.3189  0.06704  0.12539  1.0000
  C   C435      1.0  0.34486  0.07946  0.16598999999999997  1.0000
  C   C436      1.0  0.3688200000000001  0.040499999999999994  0.19711999999999993  1.0000
  C   C437      1.0  0.36752000000000007  0.9889599999999997  0.18735  1.0000
  C   C438      1.0  0.34139  0.97635  0.14691999999999997  1.0000
  C   C439      1.0  0.22135  0.9535999999999999  0.9454499999999999  1.0000
  C   C440      1.0  0.22973  0.97695  0.89596  1.0000
  C   C441      1.0  0.22058  0.95207  0.85269  1.0000
  C   C442      1.0  0.19477999999999995  0.90794  0.85957  1.0000
  C   C443      1.0  0.1815700000000001  0.8868099999999999  0.90929  1.0000
  C   C444      1.0  0.19786000000000017  0.9077299999999998  0.9516199999999998  1.0000
  H   H271      1.0  0.23297000000000004  0.9673199999999997  0.81388  1.0000
  H   H272      1.0  0.1845800000000001  0.89034  0.8264499999999999  1.0000
  H   H273      1.0  0.15857000000000002  0.85441  0.9149599999999999  1.0000
  H   H274      1.0  0.19137000000000015  0.8888299999999998  0.9891499999999998  1.0000
  H   H275      1.0  0.24432000000000004  0.01375  0.89089  1.0000
  H   H276      1.0  0.30065  0.0974  0.10126  1.0000
  H   H277      1.0  0.3464  0.1193  0.17334  1.0000
  H   H278      1.0  0.34076000000000006  0.93632  0.13939  1.0000
  H   H279      1.0  0.3866800000000001  0.95882  0.21112  1.0000
  H   H280      1.0  0.3880700000000003  0.05028  0.22896  1.0000
  C   C445      1.0  0.01  0.04304  0.81901  1.0000
  C   C446      1.0  0.04989000000000003  0.03387999999999999  0.7701999999999998  1.0000
  C   C447      1.0  0.03360000000000005  0.007279999999999999  0.7312699999999998  1.0000
  H   H281      1.0  0.06576000000000008  0.99692  0.6949999999999997  1.0000
  C   C448      1.0  0.9736100000000004  0.0014299999999999972  0.7356899999999997  1.0000
  C   C449      1.0  0.9324800000000001  0.0147  0.78344  1.0000
  C   C450      1.0  0.9496200000000001  0.040029999999999996  0.8225699999999999  1.0000
  H   H282      1.0  0.9175400000000005  0.05114  0.8587199999999998  1.0000
  C   C451      1.0  0.87606  0.99425  0.7964699999999999  1.0000
  C   C452      1.0  0.8205900000000004  0.027929999999999993  0.8013699999999998  1.0000
  C   C453      1.0  0.7671300000000001  0.01025  0.8218699999999999  1.0000
  C   C454      1.0  0.76883  0.95924  0.8383799999999998  1.0000
  C   C455      1.0  0.8239500000000003  0.9256499999999999  0.8340599999999999  1.0000
  C   C456      1.0  0.8775100000000002  0.94303  0.81313  1.0000
  C   C457      1.0  0.09936999999999999  0.06353  0.75519  1.0000
  C   C458      1.0  0.09817  0.09958  0.7145  1.0000
  C   C459      1.0  0.14187  0.13069999999999998  0.70306  1.0000
  C   C460      1.0  0.18646  0.12653  0.73244  1.0000
  C   C461      1.0  0.18950000000000003  0.08926  0.77134  1.0000
  C   C462      1.0  0.14605000000000007  0.05789  0.7828099999999998  1.0000
  H   H283      1.0  0.14057000000000003  0.15864999999999999  0.67198  1.0000
  H   H284      1.0  0.21792000000000003  0.15283  0.7258  1.0000
  H   H285      1.0  0.22468000000000005  0.08554  0.79352  1.0000
  H   H286      1.0  0.14794000000000002  0.03023  0.81375  1.0000
  H   H287      1.0  0.06257000000000003  0.10432  0.69268  1.0000
  H   H288      1.0  0.81897  0.06784999999999998  0.7897899999999998  1.0000
  H   H289      1.0  0.7244500000000003  0.03628  0.82584  1.0000
  H   H290      1.0  0.9201900000000001  0.91736  0.8116499999999999  1.0000
  H   H291      1.0  0.82524  0.88639  0.84765  1.0000
  H   H292      1.0  0.7274900000000003  0.94607  0.8554799999999998  1.0000
  C   C463      1.0  0.9439800000000002  0.9951  0.33166999999999996  1.0000
  C   C464      1.0  0.93109  0.03609  0.29752999999999996  1.0000
  C   C465      1.0  0.94973  0.02812  0.24337999999999999  1.0000
  H   H293      1.0  0.9415900000000003  0.059999999999999984  0.21706999999999996  1.0000
  C   C466      1.0  0.9809100000000002  0.97976  0.22297999999999996  1.0000
  C   C467      1.0  0.9897600000000001  0.93793  0.25711  1.0000
  C   C468      1.0  0.9705399999999998  0.94581  0.31121999999999994  1.0000
  H   H294      1.0  0.9779800000000003  0.9138099999999998  0.33754  1.0000
  C   C469      1.0  0.02086999999999998  0.88624  0.23692999999999995  1.0000
  C   C470      1.0  0.08198000000000005  0.8698699999999998  0.23758999999999994  1.0000
  C   C471      1.0  0.11000000000000007  0.81917  0.22338  1.0000
  C   C472      1.0  0.07736000000000004  0.7848699999999998  0.20793  1.0000
  C   C473      1.0  0.01670999999999999  0.80127  0.20641999999999996  1.0000
  C   C474      1.0  0.9883500000000002  0.85181  0.22108999999999998  1.0000
  C   C475      1.0  0.89748  0.0872  0.31804  1.0000
  C   C476      1.0  0.9264700000000002  0.12989  0.31308999999999987  1.0000
  C   C477      1.0  0.8951000000000001  0.17788  0.33367  1.0000
  C   C478      1.0  0.8344900000000002  0.18366  0.3583699999999999  1.0000
  C   C479      1.0  0.80504  0.14153  0.36233  1.0000
  C   C480      1.0  0.8363899999999999  0.09332  0.3423  1.0000
  H   H295      1.0  0.91773  0.21062  0.3303299999999999  1.0000
  H   H296      1.0  0.8102500000000002  0.22085999999999997  0.37418  1.0000
  H   H297      1.0  0.75791  0.14626  0.38085  1.0000
  H   H298      1.0  0.8133600000000001  0.06079  0.34571999999999997  1.0000
  H   H299      1.0  0.9730800000000002  0.12589  0.29323  1.0000
  H   H300      1.0  0.10744000000000008  0.8961999999999999  0.24974999999999997  1.0000
  H   H301      1.0  0.15701  0.80647  0.22431  1.0000
  H   H302      1.0  0.9411000000000003  0.86406  0.22065  1.0000
  H   H303      1.0  0.9916  0.77476  0.19418  1.0000
  H   H304      1.0  0.09918  0.7456799999999999  0.19677  1.0000
