data_image0
_chemical_formula_structural       CHCHZn2OCO5ZnOZnCHZn2O3C2O6ZnOZnC2HC3HC5H2C3HC3HC2HC3HC3HC6H5C3HC3HC2H2CHC5H2Zn2CO4ZnOHZn2OC2O6CHC7H2C4HC6H4C6H5C6H4C2H2C4H3C3H3C2H2C4H3C5OH2C2H2CHC2H3C2H2CH2C7OC2H2OC7HCOCOHC2HC2HC2H2C2HC6H3C6H3C3H2C3H2C6H5C3HC3HC12H10C6H4C2H3C3HC3HC12H9C6H5C3HC8H3C3HC11H6CHC3HC6H5C3HC6H3C6HC6H4C3HCHC6H4C6H3C6H3C4H3CHCH2C4H4C3HC8H5CHCHCHC3HC6H3C3HC8H4C8H4C3HCHC4H3ZnC2O3ZnC2O3H4CH2CHC6H4C3H3CHC6H6C6H6CHC6H5CHC6H5Zn2O4CO4Zn2OZnOCOCO4ZnC2H2Zn2O4CO3Zn2OZnOCOCO4ZnC2H2C4H4C4H4CHC6H4C3HC6H5CHC4H4C3HC6H4CZn2OCO3ZnOZnCO3CHZn2OCO3ZnCO3CHC2H2C2H2C7H4CHC4H3C3H3C2H3C4H2C6H3C6H3CO2CO3C4HC4H2C2HC5H4C3HC5H3C2HC10H6C2HC5H4C3HC5H2C4HCH3C3HC3HCHCHC4H4C2HC3HC4H3CO2CO3C2HC3HC6H2C3HC4H4C3HC3HC3H2C3H3C4H4C2HC3HC4H3C5H3ZnC2O3ZnC2O3H5C6H3C6H3C2H3C2HC9H6CH2C2HC9H5CH2C3HC4H2C3HC3HC7H4C6H5C3HC4H2C3HC3HCHC7H4C6H3C6H3CH2CH2CH2C3HC4H2CHC7H3C3HC4H2C3HC5H3CHCOCOCHC3H2O2C2H2CH2C2H2CH4ZnOZnO4HZnOZnOCOCO2HC2HC5HOZnO3ZnCO2C2HCHCHC3H3CHC2H2CHCH2CHCH4CHCH6C2HCHCHC3H2C2HC3H3CH2CH3C11H6C4HC2H2CHC3H2C3H4C3H3C3H2CHC4H2CHC5H4CH3CH3CHC11H6C3HCHC2H2CHC6HC3HCH2C6HCHCHC2HC2HC2HC2H2C2H2C4HC2HC4H3CHC3H3C2HC5HCOCOH2C3H4O2C2HC3H2C2HC3H3C4H2C4HCHCHC3H2CHC4HCOCOCH3C2H2CO2H6C3HOCOZnC8OH2OCHCHC13H3C3HC4H2ZnCO2ZnCO2C3HOZnO2COZnO2ZnCH2C3HCHC6HCHC2ZnCO2ZnCO2C10H2C2HC4HZnOZnOHC2HC2H4Zn2H2C3HOZnO2C2HC2HCOCH3C2HCH3C4HO3CZnHO3CHC2HC2H3CHC2H3C3HCH2C2O2HCH
_chemical_formula_sum              "C1056 H672 Zn56 O160"
_cell_length_a       38.80346
_cell_length_b       36.21879
_cell_length_c       31.78864
_cell_angle_alpha    104.41451
_cell_angle_beta     116.10488
_cell_angle_gamma    110.61680000000001

_space_group_name_H-M_alt    "P 1"
_space_group_IT_number       1

loop_
  _space_group_symop_operation_xyz
  'x, y, z'

loop_
  _atom_site_type_symbol
  _atom_site_label
  _atom_site_symmetry_multiplicity
  _atom_site_fract_x
  _atom_site_fract_y
  _atom_site_fract_z
  _atom_site_occupancy
  C   C1        1.0  0.19158  0.37099  0.01046  1.0000
  H   H1        1.0  0.15965  0.35807  0.00593  1.0000
  C   C2        1.0  0.14995000000000008  0.34771  0.49217000000000005  1.0000
  H   H2        1.0  0.12225000000000007  0.33243  0.4953500000000001  1.0000
  Zn  Zn1       1.0  0.12001000000000002  0.60511  0.02704  1.0000
  Zn  Zn2       1.0  0.03985000000000003  0.56781  0.9099600000000002  1.0000
  O   O1        1.0  0.051129999999999995  0.44854  0.87768  1.0000
  C   C3        1.0  0.11368000000000013  0.66717  0.9813600000000002  1.0000
  O   O2        1.0  0.17502  0.60853  0.03786  1.0000
  O   O3        1.0  0.05902000000000002  0.57069  0.9828600000000001  1.0000
  O   O4        1.0  0.08695000000000006  0.50053  0.96357  1.0000
  O   O5        1.0  0.08419000000000001  0.6315800000000001  0.93307  1.0000
  O   O6        1.0  0.12922000000000006  0.66275  0.02476  1.0000
  Zn  Zn3       1.0  0.02565000000000001  0.50704  0.95763  1.0000
  O   O7        1.0  0.04873000000000001  0.50741  0.025470000000000003  1.0000
  Zn  Zn4       1.0  0.015190000000000049  0.4729400000000001  0.8528300000000001  1.0000
  C   C4        1.0  0.08232999999999992  0.46679  0.92893  1.0000
  H   H3        1.0  0.08216000000000007  0.5246200000000001  0.05061  1.0000
  Zn  Zn5       1.0  0.08124000000000003  0.57777  0.4939900000000001  1.0000
  Zn  Zn6       1.0  0.012420000000000027  0.54914  0.37844  1.0000
  O   O8        1.0  0.99601  0.46716  0.28365  1.0000
  O   O9        1.0  0.9944699999999997  0.53176  0.3029  1.0000
  O   O10       1.0  0.99394  0.41307  0.35694  1.0000
  C   C5        1.0  0.12683  0.55247  0.45561  1.0000
  C   C6        1.0  0.0912300000000001  0.64386  0.45473  1.0000
  O   O11       1.0  0.13082000000000002  0.57131  0.49987000000000004  1.0000
  O   O12       1.0  0.08680999999999998  0.53001  0.40983  1.0000
  O   O13       1.0  0.020930000000000018  0.55413  0.44834  1.0000
  O   O14       1.0  0.031029999999999995  0.4717  0.43884  1.0000
  O   O15       1.0  0.06557000000000006  0.60896  0.4064300000000001  1.0000
  O   O16       1.0  0.10343999999999999  0.63821  0.49733  1.0000
  Zn  Zn7       1.0  0.97612  0.49306000000000005  0.42039000000000004  1.0000
  O   O17       1.0  0.98851  0.49563999999999997  0.48674  1.0000
  Zn  Zn8       1.0  0.9745600000000001  0.44594  0.32406  1.0000
  C   C7        1.0  0.0008500000000000054  0.50301  0.27763  1.0000
  C   C8        1.0  0.02443000000000008  0.43396000000000007  0.4087400000000001  1.0000
  H   H4        1.0  0.020719999999999995  0.50852  0.51506  1.0000
  C   C9        1.0  0.11256000000000004  0.18997000000000003  0.46182000000000006  1.0000
  C   C10       1.0  0.08759000000000002  0.20245000000000005  0.42657  1.0000
  C   C11       1.0  0.10896000000000002  0.24596000000000004  0.43356000000000006  1.0000
  H   H5        1.0  0.08995000000000009  0.25510000000000005  0.4057900000000001  1.0000
  C   C12       1.0  0.15353000000000008  0.27870000000000006  0.4781900000000001  1.0000
  C   C13       1.0  0.15788  0.22225  0.50521  1.0000
  C   C14       1.0  0.03805000000000009  0.17247000000000007  0.3867100000000001  1.0000
  C   C15       1.0  0.019870000000000037  0.14227000000000006  0.33452000000000004  1.0000
  C   C16       1.0  0.00897000000000005  0.17627000000000007  0.3999800000000001  1.0000
  H   H6        1.0  0.022760000000000103  0.20059000000000005  0.4396500000000001  1.0000
  H   H7        1.0  0.04206000000000003  0.13979000000000003  0.3235700000000001  1.0000
  C   C17       1.0  0.057350000000000054  0.42039000000000004  0.4317900000000001  1.0000
  C   C18       1.0  0.045439999999999994  0.37531  0.40773  1.0000
  C   C19       1.0  0.07918000000000001  0.36508  0.4243  1.0000
  H   H8        1.0  0.07029  0.3309  0.4036700000000001  1.0000
  C   C20       1.0  0.12384  0.39803  0.46854  1.0000
  C   C21       1.0  0.13496000000000005  0.44223  0.4960700000000001  1.0000
  C   C22       1.0  0.10192  0.45331  0.47676  1.0000
  H   H9        1.0  0.11092000000000003  0.48754000000000003  0.49707  1.0000
  C   C23       1.0  0.9976100000000001  0.33785  0.37117  1.0000
  C   C24       1.0  0.9763099999999999  0.3171300000000001  0.3919200000000001  1.0000
  H   H10       1.0  0.9928500000000001  0.33186  0.43467  1.0000
  C   C25       1.0  0.13503000000000015  0.21256000000000008  0.9866600000000002  1.0000
  C   C26       1.0  0.14241  0.24979000000000004  0.02524  1.0000
  C   C27       1.0  0.17260000000000003  0.29357000000000005  0.03899  1.0000
  H   H11       1.0  0.18005  0.3222  0.07045  1.0000
  C   C28       1.0  0.18887000000000004  0.30065000000000003  0.0083  1.0000
  C   C29       1.0  0.17565  0.26305000000000006  0.96425  1.0000
  C   C30       1.0  0.15101000000000014  0.21944000000000008  0.9556100000000002  1.0000
  H   H12       1.0  0.1431600000000002  0.19087000000000015  0.9237300000000003  1.0000
  C   C31       1.0  0.11204999999999997  0.24356999999999998  0.04259  1.0000
  C   C32       1.0  0.06576999999999998  0.22556  0.00497  1.0000
  C   C33       1.0  0.03876  0.22863  0.022010000000000002  1.0000
  C   C34       1.0  0.057670000000000006  0.24951000000000004  0.07653000000000001  1.0000
  C   C35       1.0  0.10334000000000002  0.26637  0.11412  1.0000
  C   C36       1.0  0.13048  0.26318  0.09730000000000001  1.0000
  H   H13       1.0  0.0033599999999999954  0.21552999999999994  0.99295  1.0000
  H   H14       1.0  0.036820000000000006  0.25226  0.08965  1.0000
  H   H15       1.0  0.11768  0.28184  0.15627  1.0000
  H   H16       1.0  0.16602  0.27696  0.12669  1.0000
  H   H17       1.0  0.05125000000000012  0.21098000000000006  0.9626900000000003  1.0000
  C   C37       1.0  0.11485000000000013  0.45207  0.9472800000000002  1.0000
  C   C38       1.0  0.10166000000000004  0.4070100000000001  0.91931  1.0000
  C   C39       1.0  0.13374000000000003  0.39468  0.93524  1.0000
  H   H18       1.0  0.12352000000000009  0.3602  0.91328  1.0000
  C   C40       1.0  0.1779300000000001  0.4253600000000001  0.9816000000000003  1.0000
  C   C41       1.0  0.19142000000000003  0.47053  0.00938  1.0000
  C   C42       1.0  0.1596800000000001  0.4834100000000003  0.9923300000000003  1.0000
  H   H19       1.0  0.17019  0.51812  0.013620000000000004  1.0000
  C   C43       1.0  0.05360000000000003  0.3714700000000001  0.8771800000000001  1.0000
  C   C44       1.0  0.023759999999999965  0.35575  0.89101  1.0000
  H   H20       1.0  0.06114000000000003  0.36322  0.81258  1.0000
  H   H21       1.0  0.03549000000000013  0.3707900000000001  0.9323100000000002  1.0000
  C   C45       1.0  0.1369400000000001  0.9922200000000001  0.38275  1.0000
  H   H22       1.0  0.08196999999999999  0.9916499999999999  0.32129  1.0000
  C   C46       1.0  0.18443  0.08919000000000005  0.95145  1.0000
  C   C47       1.0  0.16598000000000007  0.042910000000000094  0.9224900000000003  1.0000
  C   C48       1.0  0.10603000000000012  0.038100000000000064  0.8463700000000002  1.0000
  C   C49       1.0  0.12272000000000002  0.08354  0.87584  1.0000
  C   C50       1.0  0.1618300000000001  0.10910000000000006  0.9282700000000002  1.0000
  H   H23       1.0  0.18389000000000005  0.027479999999999994  0.93907  1.0000
  H   H24       1.0  0.10631000000000007  0.09934000000000003  0.8574200000000001  1.0000
  Zn  Zn9       1.0  0.12001000000000002  0.10511  0.02704  1.0000
  Zn  Zn10      1.0  0.039850000000000066  0.06781000000000005  0.9099600000000002  1.0000
  C   C51       1.0  0.11368000000000014  0.16717000000000007  0.9813600000000002  1.0000
  O   O18       1.0  0.17502  0.10853000000000002  0.03786  1.0000
  O   O19       1.0  0.059020000000000065  0.07069000000000006  0.9828600000000001  1.0000
  O   O20       1.0  0.08418999999999999  0.13157999999999997  0.93307  1.0000
  O   O21       1.0  0.12922  0.16275  0.02476  1.0000
  Zn  Zn11      1.0  0.025650000000000013  0.007040000000000016  0.95763  1.0000
  O   O22       1.0  0.04873  0.00741  0.025470000000000003  1.0000
  H   H25       1.0  0.08216  0.02462  0.05061  1.0000
  Zn  Zn12      1.0  0.08124000000000005  0.07777000000000003  0.4939900000000001  1.0000
  Zn  Zn13      1.0  0.012420000000000028  0.049140000000000024  0.37844  1.0000
  O   O23       1.0  0.9944700000000001  0.031760000000000004  0.3029  1.0000
  C   C52       1.0  0.12683  0.052470000000000024  0.45561  1.0000
  C   C53       1.0  0.09123  0.14386  0.45473  1.0000
  O   O24       1.0  0.13082000000000005  0.07131000000000003  0.49987000000000004  1.0000
  O   O25       1.0  0.08681  0.030009999999999978  0.40983  1.0000
  O   O26       1.0  0.020929999999999997  0.05412999999999999  0.44834  1.0000
  O   O27       1.0  0.06557000000000007  0.10896000000000006  0.4064300000000001  1.0000
  O   O28       1.0  0.10343999999999996  0.13821  0.49733  1.0000
  O   O29       1.0  0.98851  0.99564  0.48674  1.0000
  C   C54       1.0  0.0008499999999999966  0.003009999999999997  0.27763  1.0000
  H   H26       1.0  0.02072  0.008520000000000005  0.51506  1.0000
  C   C55       1.0  0.11255999999999998  0.68997  0.46182000000000006  1.0000
  C   C56       1.0  0.08759000000000006  0.70245  0.42657  1.0000
  C   C57       1.0  0.10895999999999999  0.74596  0.43356000000000006  1.0000
  C   C58       1.0  0.15788000000000008  0.7222500000000001  0.50521  1.0000
  C   C59       1.0  0.03805000000000013  0.6724700000000002  0.3867100000000001  1.0000
  C   C60       1.0  0.019870000000000013  0.64227  0.33452000000000004  1.0000
  C   C61       1.0  0.00897000000000004  0.67627  0.3999800000000001  1.0000
  H   H27       1.0  0.022760000000000023  0.70059  0.4396500000000001  1.0000
  H   H28       1.0  0.04206000000000005  0.6397900000000001  0.3235700000000001  1.0000
  C   C62       1.0  0.13503000000000018  0.7125600000000001  0.9866600000000002  1.0000
  C   C63       1.0  0.14241000000000006  0.74979  0.02524  1.0000
  C   C64       1.0  0.17565  0.76305  0.96425  1.0000
  C   C65       1.0  0.15101000000000014  0.71945  0.9556100000000002  1.0000
  H   H29       1.0  0.14316000000000015  0.69087  0.9237300000000003  1.0000
  C   C66       1.0  0.11205  0.74357  0.04259  1.0000
  C   C67       1.0  0.06577000000000001  0.72556  0.00497  1.0000
  C   C68       1.0  0.03876  0.72863  0.022010000000000002  1.0000
  C   C69       1.0  0.05766999999999994  0.74951  0.07653000000000001  1.0000
  C   C70       1.0  0.10333999999999996  0.76637  0.11412  1.0000
  C   C71       1.0  0.13047999999999996  0.76318  0.09730000000000001  1.0000
  H   H30       1.0  0.00335999999999995  0.71553  0.99295  1.0000
  H   H31       1.0  0.03682000000000009  0.7522600000000004  0.08965  1.0000
  H   H32       1.0  0.05125000000000012  0.7109800000000001  0.9626900000000003  1.0000
  H   H33       1.0  0.17019  0.01812  0.013620000000000004  1.0000
  C   C72       1.0  0.13694000000000003  0.49222000000000005  0.38275  1.0000
  C   C73       1.0  0.09389000000000004  0.47144  0.33531  1.0000
  C   C74       1.0  0.06632  0.42449  0.3059  1.0000
  C   C75       1.0  0.08266000000000003  0.39825  0.32221000000000005  1.0000
  C   C76       1.0  0.12655  0.41886999999999996  0.36772  1.0000
  C   C77       1.0  0.15364000000000003  0.46575  0.39816000000000007  1.0000
  H   H34       1.0  0.032550000000000016  0.40847  0.27016  1.0000
  H   H35       1.0  0.061580000000000044  0.36196  0.29923  1.0000
  H   H36       1.0  0.13969000000000006  0.39851000000000003  0.37907000000000013  1.0000
  H   H37       1.0  0.18796000000000004  0.48154  0.4327700000000001  1.0000
  H   H38       1.0  0.08197  0.4916499999999999  0.32129  1.0000
  C   C78       1.0  0.18443000000000004  0.58919  0.95145  1.0000
  C   C79       1.0  0.16598000000000007  0.54291  0.9224900000000003  1.0000
  C   C80       1.0  0.12699000000000008  0.51758  0.8700800000000002  1.0000
  C   C81       1.0  0.10603000000000012  0.5381  0.8463700000000002  1.0000
  C   C82       1.0  0.12272000000000002  0.58354  0.87584  1.0000
  C   C83       1.0  0.1618300000000001  0.6091  0.9282700000000002  1.0000
  H   H39       1.0  0.18389000000000008  0.5274800000000001  0.93907  1.0000
  H   H40       1.0  0.11391000000000016  0.4823400000000002  0.8472500000000002  1.0000
  H   H41       1.0  0.10631000000000011  0.5993400000000001  0.8574200000000001  1.0000
  H   H42       1.0  0.07761000000000004  0.5191  0.8047600000000003  1.0000
  C   C84       1.0  0.04852000000000001  0.17972  0.54133  1.0000
  C   C85       1.0  0.059460000000000054  0.20207000000000008  0.5922100000000001  1.0000
  H   H43       1.0  0.07518000000000001  0.18510999999999997  0.53594  1.0000
  H   H44       1.0  0.09459000000000001  0.22432000000000005  0.6262  1.0000
  C   C86       1.0  0.05076000000000002  0.14739000000000005  0.05887000000000001  1.0000
  C   C87       1.0  0.09429  0.16733  0.105  1.0000
  C   C88       1.0  0.10281000000000003  0.1846  0.15535000000000002  1.0000
  C   C89       1.0  0.06774999999999999  0.18145  0.15976  1.0000
  H   H45       1.0  0.12152  0.16977  0.10183000000000002  1.0000
  H   H46       1.0  0.07444999999999999  0.19501  0.1988  1.0000
  H   H47       1.0  0.13660000000000003  0.2005  0.19097000000000006  1.0000
  C   C90       1.0  0.08208000000000003  0.36668  0.07994000000000002  1.0000
  C   C91       1.0  0.09478  0.3515  0.047630000000000006  1.0000
  C   C92       1.0  0.06179000000000011  0.3200600000000001  0.9935200000000002  1.0000
  H   H48       1.0  0.10764999999999998  0.39083  0.12188000000000002  1.0000
  H   H49       1.0  0.13017  0.36388  0.06461  1.0000
  H   H50       1.0  0.0716600000000001  0.30816000000000004  0.9686300000000002  1.0000
  C   C93       1.0  0.04852000000000001  0.67972  0.54133  1.0000
  C   C94       1.0  0.059460000000000075  0.7020700000000001  0.5922100000000001  1.0000
  H   H51       1.0  0.07518000000000005  0.68511  0.53594  1.0000
  H   H52       1.0  0.09459000000000002  0.72432  0.6262  1.0000
  C   C95       1.0  0.05076000000000003  0.64739  0.05887000000000001  1.0000
  C   C96       1.0  0.09429000000000001  0.66733  0.105  1.0000
  C   C97       1.0  0.10280999999999998  0.6846  0.15535000000000002  1.0000
  C   C98       1.0  0.06775000000000009  0.68145  0.15976  1.0000
  H   H53       1.0  0.12152000000000004  0.6697700000000001  0.10183000000000002  1.0000
  H   H54       1.0  0.07445000000000002  0.69501  0.1988  1.0000
  H   H55       1.0  0.13660000000000005  0.7005  0.19097000000000006  1.0000
  C   C99       1.0  0.20781999999999998  0.40842  0.0031800000000000005  1.0000
  C   C100      1.0  0.21337  0.34703  0.01705  1.0000
  C   C101      1.0  0.15857  0.38573  0.4848  1.0000
  C   C102      1.0  0.1728  0.32589  0.48818000000000006  1.0000
  C   C103      1.0  0.04676999999999999  0.47999  0.11781000000000003  1.0000
  O   O30       1.0  0.04106000000000006  0.44934000000000013  0.0781  1.0000
  H   H56       1.0  0.9816000000000001  0.4424100000000001  0.62298  1.0000
  H   H57       1.0  0.99228  0.46780999999999995  0.70817  1.0000
  C   C104      1.0  0.02546  0.48584999999999995  0.21992  1.0000
  C   C105      1.0  0.04321999999999999  0.47045  0.15452  1.0000
  H   H58       1.0  0.03315000000000003  0.4367  0.1495  1.0000
  H   H59       1.0  0.01888999999999999  0.45433000000000007  0.22059  1.0000
  C   C106      1.0  0.1779600000000001  0.26684000000000013  0.5146400000000001  1.0000
  H   H60       1.0  0.17719000000000004  0.21303000000000002  0.53257  1.0000
  C   C107      1.0  0.18305  0.26877  0.92391  1.0000
  C   C108      1.0  0.15602000000000005  0.27849000000000007  0.8872100000000003  1.0000
  H   H61       1.0  0.1289500000000001  0.2806400000000001  0.8874400000000001  1.0000
  H   H62       1.0  0.14395000000000005  0.2942  0.82298  1.0000
  H   H63       1.0  0.17719  0.71303  0.53257  1.0000
  C   C109      1.0  0.18305  0.76877  0.92391  1.0000
  C   C110      1.0  0.003179999999999981  0.15081  0.49737  1.0000
  H   H64       1.0  0.9949800000000001  0.13266  0.4583500000000001  1.0000
  H   H65       1.0  0.04465  0.13525  0.02004  1.0000
  C   C111      1.0  0.0031799999999999697  0.65081  0.49737  1.0000
  H   H66       1.0  0.9949800000000001  0.63266  0.4583500000000001  1.0000
  H   H67       1.0  0.04465000000000005  0.63525  0.02004  1.0000
  C   C112      1.0  0.03827000000000005  0.35142000000000007  0.8236  1.0000
  C   C113      1.0  0.025080000000000036  0.19576000000000005  0.59923  1.0000
  C   C114      1.0  0.023870000000000002  0.16018  0.11381  1.0000
  C   C115      1.0  0.025080000000000026  0.6957600000000002  0.59923  1.0000
  C   C116      1.0  0.023870000000000058  0.66018  0.11381  1.0000
  C   C117      1.0  0.9816299999999999  0.4717900000000001  0.62027  1.0000
  C   C118      1.0  0.16453000000000012  0.28629000000000004  0.8508900000000003  1.0000
  O   O31       1.0  0.9974  0.48374999999999996  0.79176  1.0000
  C   C119      1.0  0.00020000000000003896  0.52095  0.79096  1.0000
  C   C120      1.0  0.00020000000000000893  0.02095000000000003  0.79096  1.0000
  H   H68       1.0  0.03361000000000002  0.21296999999999996  0.63868  1.0000
  H   H69       1.0  0.03361999999999997  0.71297  0.63868  1.0000
  O   O32       1.0  0.97077  0.44342  0.53927  1.0000
  C   C121      1.0  0.9893900000000001  0.49588  0.70471  1.0000
  C   C122      1.0  0.1998500000000001  0.28425000000000006  0.8508900000000003  1.0000
  C   C123      1.0  0.036340000000000004  0.35042  0.05821  1.0000
  C   C124      1.0  0.04669999999999999  0.50045  0.19366  1.0000
  C   C125      1.0  0.046700000000000005  0.00045000000000000427  0.19366  1.0000
  C   C126      1.0  0.97969  0.16752000000000006  0.5552700000000002  1.0000
  C   C127      1.0  0.9796900000000002  0.6675200000000001  0.5552700000000002  1.0000
  H   H70       1.0  0.19596  0.5212  0.51365  1.0000
  C   C128      1.0  0.21138  0.64707  0.0582  1.0000
  O   O33       1.0  0.21618  0.6848  0.08464000000000003  1.0000
  C   C129      1.0  0.21138  0.14707  0.0582  1.0000
  O   O34       1.0  0.21618  0.1848  0.08464000000000003  1.0000
  H   H71       1.0  0.27153999999999995  0.38921  0.77711  1.0000
  C   C130      1.0  0.1678  0.06694  0.4562  1.0000
  C   C131      1.0  0.16662  0.04175000000000002  0.4132100000000001  1.0000
  H   H72       1.0  0.18338999999999997  0.11697000000000005  0.79982  1.0000
  C   C132      1.0  0.24539000000000002  0.14814000000000002  0.04848  1.0000
  C   C133      1.0  0.23228000000000007  0.11809000000000001  0.9984300000000002  1.0000
  H   H73       1.0  0.17615000000000014  0.1448900000000001  0.9496700000000002  1.0000
  C   C134      1.0  0.16780000000000006  0.56694  0.4562  1.0000
  C   C135      1.0  0.16661999999999996  0.54175  0.4132100000000001  1.0000
  H   H74       1.0  0.1935600000000001  0.47266  0.84568  1.0000
  H   H75       1.0  0.18339  0.61697  0.79982  1.0000
  C   C136      1.0  0.24539000000000002  0.64814  0.04848  1.0000
  C   C137      1.0  0.23228000000000001  0.61809  0.9984300000000002  1.0000
  H   H76       1.0  0.1761500000000001  0.64489  0.9496700000000002  1.0000
  C   C138      1.0  0.34096  0.16421  0.01184  1.0000
  C   C139      1.0  0.35256000000000004  0.13268000000000005  0.9996200000000001  1.0000
  C   C140      1.0  0.37067000000000017  0.1333100000000001  0.9701100000000002  1.0000
  C   C141      1.0  0.37524  0.16418  0.951  1.0000
  C   C142      1.0  0.36890000000000017  0.19892000000000015  0.9685800000000002  1.0000
  C   C143      1.0  0.3513  0.19877999999999996  0.99866  1.0000
  H   H77       1.0  0.34776  0.10794  0.013340000000000003  1.0000
  H   H78       1.0  0.38914000000000004  0.1645100000000001  0.9279200000000002  1.0000
  H   H79       1.0  0.34512  0.22503  0.011120000000000003  1.0000
  C   C144      1.0  0.26871000000000006  0.12963000000000005  0.4322900000000001  1.0000
  C   C145      1.0  0.27122  0.16579  0.42232  1.0000
  C   C146      1.0  0.29762000000000005  0.18264000000000005  0.4047  1.0000
  C   C147      1.0  0.31942  0.16177  0.39442  1.0000
  C   C148      1.0  0.31870000000000004  0.12723000000000004  0.40686000000000005  1.0000
  C   C149      1.0  0.29428  0.11201  0.42707  1.0000
  H   H80       1.0  0.2530100000000001  0.18085000000000004  0.4285000000000001  1.0000
  H   H81       1.0  0.33951  0.17453  0.38037  1.0000
  H   H82       1.0  0.29479  0.08614000000000005  0.43823000000000006  1.0000
  C   C150      1.0  0.27179  0.40178  0.01684  1.0000
  C   C151      1.0  0.24812  0.42385  0.006680000000000002  1.0000
  C   C152      1.0  0.25516  0.36430000000000007  0.023940000000000006  1.0000
  H   H83       1.0  0.25957  0.45114000000000004  0.99826  1.0000
  H   H84       1.0  0.27276  0.34652000000000005  0.03039  1.0000
  C   C153      1.0  0.22047000000000005  0.3863700000000001  0.48211000000000004  1.0000
  C   C154      1.0  0.19534  0.40622  0.48244  1.0000
  C   C155      1.0  0.20875  0.34581  0.4842  1.0000
  H   H85       1.0  0.20272000000000007  0.43600000000000005  0.47762000000000004  1.0000
  H   H86       1.0  0.22592000000000004  0.3287  0.4799000000000001  1.0000
  C   C156      1.0  0.22307000000000005  0.30135000000000006  0.5646900000000001  1.0000
  C   C157      1.0  0.22686999999999996  0.32833  0.6087  1.0000
  C   C158      1.0  0.2694400000000001  0.3590400000000001  0.6572000000000002  1.0000
  C   C159      1.0  0.30826000000000003  0.36288  0.6619400000000001  1.0000
  C   C160      1.0  0.30468000000000006  0.33682  0.6178100000000001  1.0000
  C   C161      1.0  0.26217  0.30584  0.56933  1.0000
  H   H87       1.0  0.19685000000000005  0.32517000000000007  0.60541  1.0000
  H   H88       1.0  0.2723300000000001  0.3796800000000001  0.6911900000000001  1.0000
  H   H89       1.0  0.25958  0.28529  0.53551  1.0000
  H   H90       1.0  0.3348500000000001  0.3405800000000001  0.6212200000000001  1.0000
  H   H91       1.0  0.34117  0.38643  0.69963  1.0000
  C   C162      1.0  0.2540200000000001  0.4041100000000001  0.4706600000000001  1.0000
  C   C163      1.0  0.30059  0.43365  0.5122  1.0000
  C   C164      1.0  0.33127  0.45144  0.50011  1.0000
  H   H92       1.0  0.36696  0.4747  0.53234  1.0000
  C   C165      1.0  0.31690000000000007  0.4370700000000002  0.4468400000000001  1.0000
  C   C166      1.0  0.26976000000000006  0.40830000000000005  0.4051500000000001  1.0000
  C   C167      1.0  0.23889000000000007  0.39260000000000006  0.4176800000000001  1.0000
  H   H93       1.0  0.20291  0.37091  0.38594  1.0000
  C   C168      1.0  0.25200000000000006  0.39458000000000015  0.34852  1.0000
  C   C169      1.0  0.23291000000000003  0.34973  0.31278  1.0000
  C   C170      1.0  0.21412000000000003  0.3363  0.25871  1.0000
  C   C171      1.0  0.21554000000000004  0.36775  0.24039000000000005  1.0000
  C   C172      1.0  0.23467  0.41245  0.27584  1.0000
  C   C173      1.0  0.25190000000000007  0.4257000000000001  0.32959  1.0000
  C   C174      1.0  0.3182  0.44386  0.5681  1.0000
  C   C175      1.0  0.34714000000000006  0.43  0.59379  1.0000
  C   C176      1.0  0.3687800000000001  0.4446300000000001  0.6484900000000001  1.0000
  C   C177      1.0  0.36068  0.47202000000000005  0.67749  1.0000
  C   C178      1.0  0.33131000000000005  0.48528  0.6519600000000001  1.0000
  C   C179      1.0  0.31037000000000003  0.47161  0.59746  1.0000
  H   H94       1.0  0.39155  0.4344100000000001  0.66832  1.0000
  H   H95       1.0  0.3772  0.483  0.7197700000000001  1.0000
  H   H96       1.0  0.32542000000000004  0.50679  0.6746300000000001  1.0000
  H   H97       1.0  0.28888  0.4833  0.57837  1.0000
  H   H98       1.0  0.35358  0.40872  0.57159  1.0000
  H   H99       1.0  0.23225000000000004  0.32529000000000013  0.32682000000000005  1.0000
  H   H100      1.0  0.19790000000000002  0.30145  0.23090000000000005  1.0000
  H   H101      1.0  0.26660000000000006  0.4603400000000001  0.35689000000000004  1.0000
  H   H102      1.0  0.23631  0.43681  0.26168  1.0000
  H   H103      1.0  0.20169  0.35748  0.19870000000000002  1.0000
  C   C180      1.0  0.18057  0.4768  0.54583  1.0000
  C   C181      1.0  0.19614000000000006  0.47117  0.59144  1.0000
  C   C182      1.0  0.23881000000000002  0.50439  0.6387200000000001  1.0000
  C   C183      1.0  0.26597  0.5434  0.64078  1.0000
  C   C184      1.0  0.25056  0.54923  0.59554  1.0000
  C   C185      1.0  0.20789  0.51616  0.54822  1.0000
  H   H104      1.0  0.17516  0.44117  0.59025  1.0000
  H   H105      1.0  0.25085  0.49990000000000007  0.6737600000000001  1.0000
  H   H106      1.0  0.2715800000000001  0.5794600000000001  0.5972  1.0000
  H   H107      1.0  0.2990200000000001  0.5690400000000001  0.6774000000000002  1.0000
  C   C186      1.0  0.22695000000000012  0.2748000000000001  0.8875200000000002  1.0000
  C   C187      1.0  0.21843000000000004  0.26673  0.9237600000000001  1.0000
  H   H108      1.0  0.2398900000000001  0.25994  0.9524600000000002  1.0000
  H   H109      1.0  0.25483  0.27421  0.88818  1.0000
  H   H110      1.0  0.2066800000000001  0.29073  0.82309  1.0000
  C   C188      1.0  0.30812  0.41195  0.00879  1.0000
  C   C189      1.0  0.3540400000000001  0.43554  0.05236000000000001  1.0000
  C   C190      1.0  0.38774  0.44479  0.04327000000000001  1.0000
  H   H111      1.0  0.42307999999999996  0.46414  0.077  1.0000
  C   C191      1.0  0.37594000000000016  0.4295400000000001  0.9908600000000002  1.0000
  C   C192      1.0  0.32929  0.40387  0.94717  1.0000
  C   C193      1.0  0.2963200000000001  0.39725000000000005  0.9568100000000003  1.0000
  H   H112      1.0  0.26101000000000013  0.3794200000000001  0.9234500000000002  1.0000
  C   C194      1.0  0.31414000000000003  0.3811000000000001  0.89142  1.0000
  C   C195      1.0  0.31399000000000016  0.3416400000000001  0.8724400000000002  1.0000
  C   C196      1.0  0.29889  0.31968  0.81937  1.0000
  C   C197      1.0  0.28375999999999996  0.33692999999999995  0.78509  1.0000
  C   C198      1.0  0.28342  0.376  0.80373  1.0000
  C   C199      1.0  0.29834000000000016  0.39797000000000016  0.8567200000000003  1.0000
  C   C200      1.0  0.36703  0.45078  0.10748  1.0000
  C   C201      1.0  0.37766  0.42649  0.13394  1.0000
  C   C202      1.0  0.38573000000000013  0.43839  0.18416  1.0000
  C   C203      1.0  0.38363  0.47473  0.20826000000000003  1.0000
  C   C204      1.0  0.3738  0.49943000000000004  0.18240000000000006  1.0000
  C   C205      1.0  0.3656  0.48762000000000005  0.13215  1.0000
  H   H113      1.0  0.39352  0.4194  0.20435000000000006  1.0000
  H   H114      1.0  0.38958  0.48376  0.24695  1.0000
  H   H115      1.0  0.37233  0.52756  0.20118  1.0000
  H   H116      1.0  0.35722  0.50644  0.11193  1.0000
  H   H117      1.0  0.3787400000000001  0.39793  0.11513000000000001  1.0000
  H   H118      1.0  0.32556  0.3281  0.8988  1.0000
  H   H119      1.0  0.2988400000000001  0.2892800000000001  0.8047900000000002  1.0000
  H   H120      1.0  0.29792000000000013  0.4281700000000001  0.8708900000000003  1.0000
  H   H121      1.0  0.27221  0.31998  0.74407  1.0000
  C   C206      1.0  0.2388  0.50493  0.05518  1.0000
  C   C207      1.0  0.25494  0.50776  0.10568  1.0000
  C   C208      1.0  0.29879  0.54236  0.14975  1.0000
  C   C209      1.0  0.32683  0.57389  0.14347  1.0000
  C   C210      1.0  0.31095  0.57103  0.09314000000000003  1.0000
  C   C211      1.0  0.26699  0.53673  0.04905000000000002  1.0000
  H   H122      1.0  0.23343  0.48339000000000004  0.11078000000000002  1.0000
  H   H123      1.0  0.31108  0.54472  0.18876  1.0000
  H   H124      1.0  0.25483  0.53483  0.010220000000000002  1.0000
  H   H125      1.0  0.33262  0.59552  0.08834000000000002  1.0000
  H   H126      1.0  0.3608700000000001  0.6004700000000001  0.17759000000000005  1.0000
  C   C212      1.0  0.34819  0.11101000000000003  0.40548  1.0000
  C   C213      1.0  0.32957  0.06693000000000003  0.36755000000000004  1.0000
  C   C214      1.0  0.35574  0.04735000000000004  0.37649000000000005  1.0000
  H   H127      1.0  0.34071  0.012569999999999993  0.34899  1.0000
  C   C215      1.0  0.40029  0.07168000000000002  0.4228  1.0000
  C   C216      1.0  0.3943000000000001  0.13714000000000007  0.44740000000000013  1.0000
  C   C217      1.0  0.28362  0.04211000000000002  0.31739  1.0000
  C   C218      1.0  0.27806  0.042610000000000016  0.27088000000000007  1.0000
  C   C219      1.0  0.23456  0.02094  0.22399  1.0000
  C   C220      1.0  0.19653000000000012  0.9987600000000001  0.22338  1.0000
  C   C221      1.0  0.20190999999999998  0.9981499999999999  0.26962  1.0000
  C   C222      1.0  0.24532999999999996  0.019560000000000004  0.3165  1.0000
  H   H128      1.0  0.23033000000000003  0.021660000000000002  0.18828  1.0000
  H   H129      1.0  0.24917  0.018430000000000012  0.35192  1.0000
  H   H130      1.0  0.30738  0.060160000000000005  0.27125  1.0000
  C   C223      1.0  0.33736000000000005  0.30551  0.39774000000000004  1.0000
  C   C224      1.0  0.30578000000000005  0.26388000000000006  0.34997000000000006  1.0000
  C   C225      1.0  0.28937000000000007  0.22393000000000002  0.35274000000000005  1.0000
  H   H131      1.0  0.26564  0.19185999999999998  0.31631  1.0000
  C   C226      1.0  0.30662000000000006  0.22494  0.40251000000000003  1.0000
  C   C227      1.0  0.3375  0.26678  0.44996  1.0000
  C   C228      1.0  0.34925000000000006  0.30653000000000014  0.44658  1.0000
  C   C229      1.0  0.36325000000000013  0.26975000000000005  0.5028700000000002  1.0000
  C   C230      1.0  0.36213  0.2932  0.54425  1.0000
  C   C231      1.0  0.29190000000000005  0.26152  0.29740000000000005  1.0000
  C   C232      1.0  0.24746000000000004  0.24913  0.26017  1.0000
  C   C233      1.0  0.23524000000000003  0.24937  0.21178  1.0000
  C   C234      1.0  0.2674700000000001  0.2628400000000001  0.20094000000000006  1.0000
  C   C235      1.0  0.31126  0.27359  0.23701  1.0000
  C   C236      1.0  0.3234  0.2726  0.28495  1.0000
  H   H132      1.0  0.20103  0.23986  0.18306  1.0000
  H   H133      1.0  0.25860000000000005  0.26528000000000007  0.16480000000000006  1.0000
  H   H134      1.0  0.33602  0.28339  0.22822  1.0000
  H   H135      1.0  0.35779  0.28269  0.31361  1.0000
  H   H136      1.0  0.22273  0.24009  0.26909  1.0000
  H   H137      1.0  0.33742  0.30295  0.53564  1.0000
  C   C237      1.0  0.19919000000000006  0.06306000000000007  0.4050700000000001  1.0000
  H   H138      1.0  0.19671  0.04475999999999998  0.37012  1.0000
  C   C238      1.0  0.23601000000000003  0.10723000000000003  0.44298000000000004  1.0000
  C   C239      1.0  0.2416  0.12908  0.49103  1.0000
  C   C240      1.0  0.20670000000000002  0.10939000000000003  0.4965100000000001  1.0000
  H   H139      1.0  0.2098  0.12728  0.53212  1.0000
  C   C241      1.0  0.28528  0.16976999999999998  0.53777  1.0000
  C   C242      1.0  0.32401  0.16726  0.56232  1.0000
  C   C243      1.0  0.36242  0.20180000000000006  0.61303  1.0000
  C   C244      1.0  0.3621100000000001  0.23855000000000004  0.63981  1.0000
  C   C245      1.0  0.32413000000000003  0.24177000000000004  0.61508  1.0000
  C   C246      1.0  0.28619  0.20807  0.56366  1.0000
  H   H140      1.0  0.32365  0.13773  0.54311  1.0000
  H   H141      1.0  0.39217  0.19976  0.63193  1.0000
  H   H142      1.0  0.25666  0.21056  0.54505  1.0000
  H   H143      1.0  0.32404  0.27029  0.63588  1.0000
  H   H144      1.0  0.39179000000000014  0.26520000000000005  0.6790700000000002  1.0000
  C   C247      1.0  0.39554  0.11081999999999999  0.97159  1.0000
  C   C248      1.0  0.37278  0.06367999999999999  0.94202  1.0000
  C   C249      1.0  0.3980500000000002  0.04351000000000008  0.9454400000000002  1.0000
  H   H145      1.0  0.38077000000000016  0.0072700000000000785  0.9225700000000002  1.0000
  C   C250      1.0  0.4453400000000001  0.06941000000000011  0.9823200000000002  1.0000
  C   C251      1.0  0.4428099999999999  0.13684  0.00589  1.0000
  C   C252      1.0  0.32309000000000015  0.03519000000000012  0.9125600000000003  1.0000
  C   C253      1.0  0.30475  0.011160000000000012  0.93348  1.0000
  C   C254      1.0  0.2475800000000001  0.01285000000000011  0.8424200000000002  1.0000
  C   C255      1.0  0.29420000000000013  0.035360000000000134  0.8664100000000002  1.0000
  H   H146      1.0  0.2254600000000001  0.013690000000000074  0.8074100000000001  1.0000
  H   H147      1.0  0.3080100000000001  0.05391000000000005  0.8500500000000002  1.0000
  H   H148      1.0  0.32674  0.010869999999999956  0.96915  1.0000
  C   C256      1.0  0.42669000000000024  0.3082800000000001  0.9438800000000003  1.0000
  C   C257      1.0  0.4545400000000001  0.2993000000000002  0.9816800000000002  1.0000
  C   C258      1.0  0.43483000000000005  0.26688000000000006  0.9934800000000001  1.0000
  C   C259      1.0  0.38776  0.23872000000000002  0.96302  1.0000
  C   C260      1.0  0.35981000000000013  0.2440800000000001  0.9213300000000002  1.0000
  C   C261      1.0  0.3793500000000001  0.2788900000000001  0.9120600000000001  1.0000
  H   H149      1.0  0.35774000000000006  0.2831000000000001  0.8801700000000001  1.0000
  C   C262      1.0  0.3103  0.21177999999999994  0.88551  1.0000
  C   C263      1.0  0.28342000000000017  0.2132300000000001  0.9035700000000002  1.0000
  C   C264      1.0  0.23784000000000013  0.17883000000000007  0.8728800000000002  1.0000
  C   C265      1.0  0.2186500000000001  0.14358000000000012  0.8235000000000001  1.0000
  C   C266      1.0  0.2450300000000001  0.14257000000000006  0.8047600000000003  1.0000
  C   C267      1.0  0.2908  0.17651999999999995  0.8357  1.0000
  H   H150      1.0  0.2980900000000001  0.2404300000000001  0.9418300000000001  1.0000
  H   H151      1.0  0.21748000000000012  0.17935000000000015  0.8875300000000003  1.0000
  H   H152      1.0  0.31135000000000007  0.17485999999999993  0.82162  1.0000
  H   H153      1.0  0.23015  0.11517999999999996  0.76658  1.0000
  C   C268      1.0  0.31032  0.15574000000000002  0.028200000000000003  1.0000
  C   C269      1.0  0.32389  0.18579  0.07821  1.0000
  C   C270      1.0  0.29144  0.181  0.08861000000000002  1.0000
  H   H154      1.0  0.3018  0.20378  0.12722  1.0000
  C   C271      1.0  0.2654000000000002  0.1203800000000001  0.9905000000000003  1.0000
  H   H155      1.0  0.2554000000000001  0.09731000000000005  0.9522200000000002  1.0000
  C   C272      1.0  0.37137  0.22378  0.11837000000000003  1.0000
  C   C273      1.0  0.4064  0.21549000000000001  0.13965000000000002  1.0000
  C   C274      1.0  0.45158  0.251  0.17148  1.0000
  C   C275      1.0  0.4619900000000001  0.29489  0.18284000000000006  1.0000
  C   C276      1.0  0.42729  0.30354000000000003  0.16344000000000003  1.0000
  C   C277      1.0  0.38204000000000005  0.26811  0.13122000000000003  1.0000
  H   H156      1.0  0.47852000000000017  0.24444000000000002  0.18696000000000004  1.0000
  H   H157      1.0  0.43546  0.33762  0.17270000000000005  1.0000
  H   H158      1.0  0.35531  0.27489  0.11493  1.0000
  H   H159      1.0  0.3985600000000001  0.18146  0.13031  1.0000
  C   C278      1.0  0.34096  0.66421  0.01184  1.0000
  C   C279      1.0  0.35256  0.63268  0.9996200000000001  1.0000
  C   C280      1.0  0.3706700000000001  0.63331  0.9701100000000002  1.0000
  C   C281      1.0  0.3752400000000001  0.66418  0.951  1.0000
  C   C282      1.0  0.3689000000000001  0.6989200000000001  0.9685800000000002  1.0000
  C   C283      1.0  0.3513  0.69878  0.99866  1.0000
  H   H160      1.0  0.3477600000000001  0.6079400000000003  0.013340000000000003  1.0000
  H   H161      1.0  0.3891400000000001  0.6645100000000003  0.9279200000000002  1.0000
  H   H162      1.0  0.34512  0.72503  0.011120000000000003  1.0000
  C   C284      1.0  0.26871  0.62963  0.4322900000000001  1.0000
  C   C285      1.0  0.27122  0.66579  0.42232  1.0000
  C   C286      1.0  0.29762  0.68264  0.4047  1.0000
  C   C287      1.0  0.31942  0.66177  0.39442  1.0000
  C   C288      1.0  0.3187  0.62723  0.40686000000000005  1.0000
  C   C289      1.0  0.29428  0.61201  0.42707  1.0000
  H   H163      1.0  0.2530100000000001  0.6808500000000001  0.4285000000000001  1.0000
  H   H164      1.0  0.3395100000000001  0.67453  0.38037  1.0000
  H   H165      1.0  0.29479000000000005  0.5861400000000001  0.43823000000000006  1.0000
  C   C290      1.0  0.23881000000000002  0.00439000000000002  0.6387200000000001  1.0000
  C   C291      1.0  0.26597  0.04340000000000001  0.64078  1.0000
  C   C292      1.0  0.25055  0.04923  0.59554  1.0000
  C   C293      1.0  0.20789  0.01616000000000001  0.54822  1.0000
  H   H166      1.0  0.25085  0.9999000000000001  0.6737600000000001  1.0000
  H   H167      1.0  0.27159  0.07946  0.5972  1.0000
  H   H168      1.0  0.2990200000000001  0.0690400000000001  0.6774000000000002  1.0000
  C   C294      1.0  0.21843000000000004  0.76673  0.9237600000000001  1.0000
  H   H169      1.0  0.2398900000000002  0.7599400000000003  0.9524600000000002  1.0000
  C   C295      1.0  0.3738000000000001  0.9994300000000002  0.18240000000000006  1.0000
  H   H170      1.0  0.37233  0.02754999999999999  0.20118  1.0000
  H   H171      1.0  0.35722  0.006440000000000001  0.11193  1.0000
  C   C296      1.0  0.29879  0.042360000000000016  0.14975  1.0000
  C   C297      1.0  0.32683  0.07389  0.14347  1.0000
  C   C298      1.0  0.31095  0.07104000000000005  0.09314000000000003  1.0000
  C   C299      1.0  0.26699  0.036730000000000006  0.04905000000000002  1.0000
  H   H172      1.0  0.31108  0.04471999999999999  0.18876  1.0000
  H   H173      1.0  0.25483  0.03483  0.010220000000000002  1.0000
  H   H174      1.0  0.33262  0.09552000000000001  0.08834000000000002  1.0000
  H   H175      1.0  0.3608700000000001  0.10047000000000003  0.17759000000000005  1.0000
  C   C300      1.0  0.34819  0.61101  0.40548  1.0000
  C   C301      1.0  0.32957000000000003  0.56693  0.36755000000000004  1.0000
  C   C302      1.0  0.35574000000000006  0.54735  0.37649000000000005  1.0000
  H   H176      1.0  0.34071  0.51257  0.34899  1.0000
  C   C303      1.0  0.40029  0.57168  0.4228  1.0000
  C   C304      1.0  0.39430000000000004  0.63714  0.44740000000000013  1.0000
  C   C305      1.0  0.28362  0.54211  0.31739  1.0000
  C   C306      1.0  0.27806000000000003  0.54261  0.27088000000000007  1.0000
  C   C307      1.0  0.23456  0.52094  0.22399  1.0000
  C   C308      1.0  0.19652999999999998  0.49876  0.22338  1.0000
  C   C309      1.0  0.20191000000000003  0.49815000000000004  0.26962  1.0000
  C   C310      1.0  0.24532999999999996  0.51956  0.3165  1.0000
  H   H177      1.0  0.23033000000000003  0.52166  0.18828  1.0000
  H   H178      1.0  0.16290000000000002  0.48212000000000005  0.1871  1.0000
  H   H179      1.0  0.17245000000000002  0.48090000000000005  0.26908  1.0000
  H   H180      1.0  0.24917  0.51843  0.35192  1.0000
  H   H181      1.0  0.30738  0.56016  0.27125  1.0000
  C   C311      1.0  0.28937000000000007  0.72393  0.35274000000000005  1.0000
  H   H182      1.0  0.26564  0.69186  0.31631  1.0000
  C   C312      1.0  0.30662000000000006  0.72494  0.40251000000000003  1.0000
  H   H183      1.0  0.20103  0.73986  0.18306  1.0000
  C   C313      1.0  0.19919000000000003  0.56306  0.4050700000000001  1.0000
  H   H184      1.0  0.19671  0.54476  0.37012  1.0000
  C   C314      1.0  0.23601000000000003  0.60723  0.44298000000000004  1.0000
  C   C315      1.0  0.2416  0.62908  0.49103  1.0000
  C   C316      1.0  0.20670000000000002  0.60939  0.4965100000000001  1.0000
  H   H185      1.0  0.2098  0.62728  0.53212  1.0000
  C   C317      1.0  0.28528000000000003  0.6697700000000001  0.53777  1.0000
  C   C318      1.0  0.32401  0.66726  0.56232  1.0000
  C   C319      1.0  0.36242  0.7018  0.61303  1.0000
  C   C320      1.0  0.3621100000000001  0.73855  0.63981  1.0000
  C   C321      1.0  0.32413000000000003  0.7417700000000002  0.61508  1.0000
  C   C322      1.0  0.28619  0.70807  0.56366  1.0000
  H   H186      1.0  0.32365  0.63773  0.54311  1.0000
  H   H187      1.0  0.39217  0.69976  0.63193  1.0000
  H   H188      1.0  0.25666000000000005  0.7105700000000001  0.54505  1.0000
  C   C323      1.0  0.39554000000000006  0.61082  0.97159  1.0000
  C   C324      1.0  0.37278  0.56368  0.94202  1.0000
  C   C325      1.0  0.3980500000000001  0.54351  0.9454400000000002  1.0000
  H   H189      1.0  0.3807700000000001  0.5072700000000001  0.9225700000000002  1.0000
  C   C326      1.0  0.44534000000000024  0.56941  0.9823200000000002  1.0000
  C   C327      1.0  0.4428099999999999  0.63684  0.00589  1.0000
  C   C328      1.0  0.32309000000000015  0.5351900000000002  0.9125600000000003  1.0000
  C   C329      1.0  0.30475  0.51116  0.93348  1.0000
  C   C330      1.0  0.25809  0.48855  0.90921  1.0000
  C   C331      1.0  0.22959000000000004  0.48968000000000017  0.8639800000000002  1.0000
  C   C332      1.0  0.2475900000000001  0.51285  0.8424200000000002  1.0000
  C   C333      1.0  0.29420000000000024  0.5353600000000002  0.8664100000000002  1.0000
  H   H190      1.0  0.24407000000000012  0.47051  0.9257200000000002  1.0000
  H   H191      1.0  0.2254600000000001  0.5136900000000001  0.8074100000000001  1.0000
  H   H192      1.0  0.30801000000000006  0.5539100000000001  0.8500500000000002  1.0000
  H   H193      1.0  0.3267400000000001  0.51087  0.96915  1.0000
  C   C334      1.0  0.38776  0.73872  0.96302  1.0000
  C   C335      1.0  0.35981000000000013  0.74408  0.9213300000000002  1.0000
  C   C336      1.0  0.31029999999999996  0.71178  0.88551  1.0000
  C   C337      1.0  0.2834200000000002  0.7132300000000001  0.9035700000000002  1.0000
  C   C338      1.0  0.23784000000000016  0.6788300000000004  0.8728800000000002  1.0000
  C   C339      1.0  0.21865000000000007  0.6435800000000002  0.8235000000000001  1.0000
  C   C340      1.0  0.24503000000000014  0.64257  0.8047600000000003  1.0000
  C   C341      1.0  0.2908  0.67652  0.8357  1.0000
  H   H194      1.0  0.29809000000000013  0.7404300000000003  0.9418300000000001  1.0000
  H   H195      1.0  0.21748000000000006  0.6793500000000001  0.8875300000000003  1.0000
  H   H196      1.0  0.31135  0.67486  0.82162  1.0000
  H   H197      1.0  0.23015  0.61518  0.76658  1.0000
  C   C342      1.0  0.31032  0.65574  0.028200000000000003  1.0000
  C   C343      1.0  0.32389  0.68579  0.07821  1.0000
  C   C344      1.0  0.29144000000000003  0.6810000000000002  0.08861000000000002  1.0000
  H   H198      1.0  0.3018  0.70378  0.12722  1.0000
  C   C345      1.0  0.26540000000000014  0.62038  0.9905000000000003  1.0000
  H   H199      1.0  0.2554000000000001  0.5973100000000001  0.9522200000000002  1.0000
  C   C346      1.0  0.37137000000000003  0.7237800000000002  0.11837000000000003  1.0000
  C   C347      1.0  0.4064  0.71549  0.13965000000000002  1.0000
  C   C348      1.0  0.4515800000000001  0.751  0.17148  1.0000
  C   C349      1.0  0.38204000000000005  0.76811  0.13122000000000003  1.0000
  H   H200      1.0  0.47852  0.74444  0.18696000000000004  1.0000
  H   H201      1.0  0.35531  0.77489  0.11493  1.0000
  H   H202      1.0  0.39856  0.68146  0.13031  1.0000
  Zn  Zn14      1.0  0.43564000000000014  0.42091000000000006  0.9116600000000001  1.0000
  C   C350      1.0  0.44594  0.35123  0.94303  1.0000
  C   C351      1.0  0.41234000000000004  0.44222  0.98217  1.0000
  O   O35       1.0  0.41839000000000004  0.3617800000000001  0.9135800000000002  1.0000
  O   O36       1.0  0.40204000000000006  0.4364600000000001  0.93492  1.0000
  O   O37       1.0  0.45339999999999997  0.45324  0.019360000000000002  1.0000
  Zn  Zn15      1.0  0.37342  0.41897  0.36706  1.0000
  C   C352      1.0  0.36465  0.34647  0.39888000000000007  1.0000
  C   C353      1.0  0.35198000000000007  0.4472400000000002  0.43613  1.0000
  O   O38       1.0  0.34468  0.35907  0.3646800000000001  1.0000
  O   O39       1.0  0.3413300000000001  0.4402300000000001  0.38848000000000005  1.0000
  O   O40       1.0  0.3909800000000001  0.45331000000000005  0.4708000000000001  1.0000
  H   H203      1.0  0.40770000000000006  0.09703000000000003  0.2808800000000001  1.0000
  H   H204      1.0  0.42938  0.2721000000000001  0.7680300000000002  1.0000
  H   H205      1.0  0.40770000000000006  0.59703  0.2808800000000001  1.0000
  H   H206      1.0  0.9921100000000002  0.33379000000000003  0.29925  1.0000
  C   C354      1.0  0.39488  0.3068  0.5972  1.0000
  H   H207      1.0  0.39522000000000007  0.3266400000000001  0.62923  1.0000
  H   H208      1.0  0.37245  0.33864  0.483  1.0000
  C   C355      1.0  0.42051000000000016  0.11773000000000004  0.45683000000000007  1.0000
  H   H209      1.0  0.40911999999999993  0.1719  0.4747700000000001  1.0000
  C   C356      1.0  0.46851  0.14533  0.50393  1.0000
  C   C357      1.0  0.50318  0.15081  0.49737  1.0000
  C   C358      1.0  0.54852  0.17972  0.54133  1.0000
  C   C359      1.0  0.5594600000000001  0.20207000000000008  0.5922100000000001  1.0000
  C   C360      1.0  0.5250900000000001  0.19576000000000005  0.59923  1.0000
  C   C361      1.0  0.4797  0.16752000000000006  0.5552700000000002  1.0000
  H   H210      1.0  0.49498000000000014  0.13266  0.4583500000000001  1.0000
  H   H211      1.0  0.57518  0.18510999999999997  0.53594  1.0000
  H   H212      1.0  0.45325  0.16305  0.56099  1.0000
  H   H213      1.0  0.53361  0.21296999999999996  0.63868  1.0000
  C   C362      1.0  0.39602  0.25799  0.51496  1.0000
  C   C363      1.0  0.4269700000000001  0.26938000000000006  0.5676200000000001  1.0000
  C   C364      1.0  0.427  0.29454  0.60882  1.0000
  H   H214      1.0  0.39896999999999994  0.24212999999999998  0.48408  1.0000
  H   H215      1.0  0.4519100000000002  0.2599600000000001  0.5766800000000001  1.0000
  H   H216      1.0  0.45179  0.30441  0.64976  1.0000
  C   C365      1.0  0.4677  0.11632000000000002  0.014490000000000003  1.0000
  H   H217      1.0  0.45994000000000007  0.17297  0.029610000000000008  1.0000
  C   C366      1.0  0.51501  0.14249  0.06303  1.0000
  C   C367      1.0  0.5507600000000001  0.14739000000000005  0.05887000000000001  1.0000
  C   C368      1.0  0.59429  0.16733  0.105  1.0000
  C   C369      1.0  0.60281  0.1846  0.15535000000000002  1.0000
  C   C370      1.0  0.56775  0.18145  0.15976  1.0000
  C   C371      1.0  0.5238699999999998  0.16018  0.11381  1.0000
  H   H218      1.0  0.54465  0.13525  0.02004  1.0000
  H   H219      1.0  0.6215200000000002  0.16977  0.10183000000000002  1.0000
  H   H220      1.0  0.49663  0.15674  0.11758000000000002  1.0000
  H   H221      1.0  0.57445  0.19501  0.1988  1.0000
  H   H222      1.0  0.6366000000000002  0.2005  0.19097000000000006  1.0000
  H   H223      1.0  0.45621  0.26099  0.02364  1.0000
  C   C372      1.0  0.50309  0.31902  0.003820000000000001  1.0000
  C   C373      1.0  0.53634  0.35042  0.05821  1.0000
  C   C374      1.0  0.5820799999999999  0.36668  0.07994000000000002  1.0000
  C   C375      1.0  0.59478  0.3515  0.047630000000000006  1.0000
  C   C376      1.0  0.56179  0.3200600000000001  0.9935200000000002  1.0000
  C   C377      1.0  0.51597  0.30353000000000013  0.9716600000000002  1.0000
  H   H224      1.0  0.60765  0.39083  0.12188000000000002  1.0000
  H   H225      1.0  0.63017  0.36388  0.06461  1.0000
  H   H226      1.0  0.57166  0.30816000000000004  0.9686300000000002  1.0000
  H   H227      1.0  0.4905200000000001  0.2784300000000001  0.9299900000000002  1.0000
  H   H228      1.0  0.5267  0.36203  0.08358  1.0000
  H   H229      1.0  0.49691  0.32215000000000005  0.2064  1.0000
  C   C378      1.0  0.42051000000000005  0.61773  0.45683000000000007  1.0000
  H   H230      1.0  0.40912000000000004  0.6719  0.4747700000000001  1.0000
  C   C379      1.0  0.46851  0.64533  0.50393  1.0000
  C   C380      1.0  0.50318  0.65081  0.49737  1.0000
  C   C381      1.0  0.54852  0.67972  0.54133  1.0000
  C   C382      1.0  0.5594600000000001  0.7020700000000001  0.5922100000000001  1.0000
  C   C383      1.0  0.5250900000000001  0.6957600000000002  0.59923  1.0000
  C   C384      1.0  0.4797000000000001  0.6675200000000001  0.5552700000000002  1.0000
  H   H231      1.0  0.49498000000000003  0.63266  0.4583500000000001  1.0000
  H   H232      1.0  0.57518  0.68511  0.53594  1.0000
  H   H233      1.0  0.45325  0.66305  0.56099  1.0000
  H   H234      1.0  0.53361  0.71297  0.63868  1.0000
  H   H235      1.0  0.39897  0.74213  0.48408  1.0000
  C   C385      1.0  0.4677  0.61632  0.014490000000000003  1.0000
  H   H236      1.0  0.45994000000000007  0.67297  0.029610000000000008  1.0000
  C   C386      1.0  0.51501  0.64249  0.06303  1.0000
  C   C387      1.0  0.55076  0.64739  0.05887000000000001  1.0000
  C   C388      1.0  0.59429  0.66733  0.105  1.0000
  C   C389      1.0  0.60281  0.6846  0.15535000000000002  1.0000
  C   C390      1.0  0.56775  0.68145  0.15976  1.0000
  C   C391      1.0  0.52387  0.66018  0.11381  1.0000
  H   H237      1.0  0.54465  0.63525  0.02004  1.0000
  H   H238      1.0  0.6215200000000001  0.6697700000000001  0.10183000000000002  1.0000
  H   H239      1.0  0.49663  0.6567400000000001  0.11758000000000002  1.0000
  H   H240      1.0  0.57445  0.69501  0.1988  1.0000
  H   H241      1.0  0.6366  0.7005  0.19097000000000006  1.0000
  Zn  Zn16      1.0  0.62001  0.60511  0.02704  1.0000
  Zn  Zn17      1.0  0.53985  0.56781  0.9099600000000002  1.0000
  O   O41       1.0  0.49739999999999995  0.48374999999999996  0.79176  1.0000
  O   O42       1.0  0.5083900000000001  0.5535500000000001  0.8311200000000001  1.0000
  O   O43       1.0  0.55113  0.44854  0.87768  1.0000
  O   O44       1.0  0.50084  0.50541  0.8896800000000002  1.0000
  C   C392      1.0  0.61368  0.66717  0.9813600000000002  1.0000
  O   O45       1.0  0.5590199999999999  0.57069  0.9828600000000001  1.0000
  O   O46       1.0  0.58696  0.50053  0.96357  1.0000
  O   O47       1.0  0.58419  0.6315800000000001  0.93307  1.0000
  O   O48       1.0  0.62922  0.66275  0.02476  1.0000
  Zn  Zn18      1.0  0.52079  0.44348  0.002630000000000001  1.0000
  Zn  Zn19      1.0  0.52565  0.50704  0.95763  1.0000
  O   O49       1.0  0.46634000000000003  0.5177700000000001  0.9552200000000002  1.0000
  Zn  Zn20      1.0  0.51992  0.5206  0.05507  1.0000
  O   O50       1.0  0.49011  0.3786999999999999  0.97239  1.0000
  C   C393      1.0  0.54677  0.47999  0.11781000000000003  1.0000
  O   O51       1.0  0.49273  0.44348  0.9310600000000001  1.0000
  C   C394      1.0  0.47000000000000003  0.54676  0.9940100000000002  1.0000
  O   O52       1.0  0.5410600000000001  0.44934000000000013  0.0781  1.0000
  O   O53       1.0  0.55235  0.51832  0.11933  1.0000
  O   O54       1.0  0.49167  0.55193  0.04217000000000001  1.0000
  O   O55       1.0  0.54873  0.50741  0.025470000000000003  1.0000
  Zn  Zn21      1.0  0.51519  0.4729400000000001  0.8528300000000001  1.0000
  C   C395      1.0  0.5002  0.52095  0.79096  1.0000
  C   C396      1.0  0.58233  0.46679  0.92893  1.0000
  H   H242      1.0  0.58216  0.5246200000000001  0.05061  1.0000
  H   H243      1.0  0.4681600000000001  0.4945100000000001  0.8692500000000002  1.0000
  Zn  Zn22      1.0  0.58124  0.57777  0.4939900000000001  1.0000
  Zn  Zn23      1.0  0.51242  0.54914  0.37844  1.0000
  O   O56       1.0  0.49601000000000006  0.46716  0.28365  1.0000
  O   O57       1.0  0.4944700000000001  0.53176  0.3029  1.0000
  O   O58       1.0  0.49394  0.41307  0.35694  1.0000
  O   O59       1.0  0.4639900000000001  0.48929000000000006  0.35346000000000005  1.0000
  C   C397      1.0  0.59123  0.64386  0.45473  1.0000
  O   O60       1.0  0.52093  0.55413  0.44834  1.0000
  O   O61       1.0  0.53103  0.4717  0.43884  1.0000
  O   O62       1.0  0.5655700000000001  0.60896  0.4064300000000001  1.0000
  Zn  Zn24      1.0  0.4503700000000001  0.43276000000000003  0.4630400000000001  1.0000
  Zn  Zn25      1.0  0.47612  0.49306000000000005  0.42039000000000004  1.0000
  O   O63       1.0  0.4235500000000001  0.5190300000000001  0.40649000000000013  1.0000
  Zn  Zn26      1.0  0.45989000000000013  0.5171400000000002  0.5098500000000001  1.0000
  O   O64       1.0  0.40911  0.3686  0.43274  1.0000
  C   C398      1.0  0.47702  0.47602  0.57761  1.0000
  O   O65       1.0  0.43073000000000006  0.43212  0.39165  1.0000
  C   C399      1.0  0.4224  0.54755  0.44036  1.0000
  O   O66       1.0  0.4707700000000001  0.44342  0.53927  1.0000
  O   O67       1.0  0.48082  0.51311  0.57549  1.0000
  O   O68       1.0  0.43602  0.55088  0.48765  1.0000
  O   O69       1.0  0.48851  0.49563999999999997  0.48674  1.0000
  Zn  Zn27      1.0  0.47456  0.44594  0.32406  1.0000
  C   C400      1.0  0.50085  0.50301  0.27763  1.0000
  C   C401      1.0  0.5244300000000002  0.43396000000000007  0.4087400000000001  1.0000
  H   H244      1.0  0.52072  0.50852  0.51506  1.0000
  H   H245      1.0  0.43325  0.48285  0.32901  1.0000
  C   C402      1.0  0.49156  0.52514  0.74286  1.0000
  C   C403      1.0  0.4893899999999999  0.49588  0.70471  1.0000
  C   C404      1.0  0.48431  0.50184  0.65849  1.0000
  C   C405      1.0  0.48163  0.4717900000000001  0.62027  1.0000
  H   H246      1.0  0.48255  0.53054  0.65562  1.0000
  H   H247      1.0  0.48886000000000024  0.5533100000000001  0.7395800000000002  1.0000
  H   H248      1.0  0.4816000000000001  0.4424100000000001  0.62298  1.0000
  H   H249      1.0  0.49228  0.46780999999999995  0.70817  1.0000
  C   C406      1.0  0.51461  0.51183  0.24307  1.0000
  C   C407      1.0  0.5254599999999999  0.48584999999999995  0.21992  1.0000
  C   C408      1.0  0.5467  0.50045  0.19366  1.0000
  C   C409      1.0  0.54322  0.47045  0.15452  1.0000
  H   H250      1.0  0.56158  0.5356  0.20293  1.0000
  H   H251      1.0  0.5188900000000001  0.54189  0.23927000000000004  1.0000
  H   H252      1.0  0.53315  0.4367  0.1495  1.0000
  H   H253      1.0  0.51889  0.45433000000000007  0.22059  1.0000
  C   C410      1.0  0.5875900000000001  0.20245000000000005  0.42657  1.0000
  H   H254      1.0  0.58995  0.25510000000000005  0.4057900000000001  1.0000
  C   C411      1.0  0.53805  0.17247000000000007  0.3867100000000001  1.0000
  C   C412      1.0  0.51987  0.14227000000000006  0.33452000000000004  1.0000
  C   C413      1.0  0.4729  0.11493999999999997  0.29653  1.0000
  C   C414      1.0  0.4440200000000001  0.11805000000000003  0.31032000000000004  1.0000
  C   C415      1.0  0.46204000000000006  0.14869  0.36199  1.0000
  C   C416      1.0  0.50897  0.17627000000000007  0.3999800000000001  1.0000
  H   H255      1.0  0.45893  0.09151  0.25638  1.0000
  H   H256      1.0  0.43967  0.15118  0.37257  1.0000
  H   H257      1.0  0.52276  0.20059000000000005  0.4396500000000001  1.0000
  H   H258      1.0  0.54206  0.13979000000000003  0.3235700000000001  1.0000
  C   C417      1.0  0.5573500000000001  0.42039000000000004  0.4317900000000001  1.0000
  C   C418      1.0  0.54544  0.37531  0.40773  1.0000
  C   C419      1.0  0.57918  0.36508  0.4243  1.0000
  H   H259      1.0  0.57029  0.3309  0.4036700000000001  1.0000
  C   C420      1.0  0.49761  0.33785  0.37117  1.0000
  C   C421      1.0  0.4763100000000001  0.3171300000000001  0.3919200000000001  1.0000
  C   C422      1.0  0.4345800000000001  0.27631  0.35765  1.0000
  C   C423      1.0  0.41348  0.25654  0.30252000000000007  1.0000
  C   C424      1.0  0.43367  0.27796  0.28151  1.0000
  C   C425      1.0  0.47597  0.31818  0.31571000000000005  1.0000
  H   H260      1.0  0.41852  0.26006  0.37381  1.0000
  H   H261      1.0  0.3810500000000001  0.22505000000000006  0.2760000000000001  1.0000
  H   H262      1.0  0.4167  0.26318  0.2388  1.0000
  H   H263      1.0  0.49211  0.33379000000000003  0.29925  1.0000
  H   H264      1.0  0.49285  0.33186  0.43467  1.0000
  C   C426      1.0  0.6350300000000002  0.21256000000000008  0.9866600000000002  1.0000
  H   H265      1.0  0.64316  0.19087000000000015  0.9237300000000003  1.0000
  C   C427      1.0  0.61205  0.24356999999999998  0.04259  1.0000
  C   C428      1.0  0.56577  0.22556  0.00497  1.0000
  C   C429      1.0  0.53877  0.22863  0.022010000000000002  1.0000
  C   C430      1.0  0.5576700000000001  0.24951000000000004  0.07653000000000001  1.0000
  H   H266      1.0  0.50336  0.21552999999999994  0.99295  1.0000
  H   H267      1.0  0.5368199999999999  0.25226  0.08965  1.0000
  H   H268      1.0  0.55125  0.21098000000000006  0.9626900000000003  1.0000
  H   H269      1.0  0.6289500000000001  0.2806400000000001  0.8874400000000001  1.0000
  C   C431      1.0  0.6148500000000001  0.45207  0.9472800000000002  1.0000
  C   C432      1.0  0.6016600000000002  0.4070100000000001  0.91931  1.0000
  C   C433      1.0  0.63375  0.39468  0.93524  1.0000
  H   H270      1.0  0.62352  0.3602  0.91328  1.0000
  C   C434      1.0  0.5536  0.3714700000000001  0.8771800000000001  1.0000
  C   C435      1.0  0.52376  0.35575  0.89101  1.0000
  C   C436      1.0  0.47897  0.32015  0.85158  1.0000
  C   C437      1.0  0.46386000000000005  0.30010000000000003  0.7983100000000001  1.0000
  C   C438      1.0  0.4934000000000001  0.3158700000000001  0.7842600000000001  1.0000
  C   C439      1.0  0.53827  0.35142000000000007  0.8236  1.0000
  H   H271      1.0  0.45611  0.30774  0.86236  1.0000
  H   H272      1.0  0.48164  0.3003  0.74298  1.0000
  H   H273      1.0  0.56114  0.36322  0.81258  1.0000
  H   H274      1.0  0.5354900000000001  0.3707900000000001  0.9323100000000002  1.0000
  C   C440      1.0  0.6060300000000001  0.038100000000000064  0.8463700000000002  1.0000
  Zn  Zn28      1.0  0.62001  0.10511  0.02704  1.0000
  Zn  Zn29      1.0  0.53985  0.06781000000000005  0.9099600000000002  1.0000
  O   O70       1.0  0.5083900000000001  0.05355000000000009  0.8311200000000001  1.0000
  C   C441      1.0  0.6136800000000001  0.16717000000000007  0.9813600000000002  1.0000
  O   O71       1.0  0.55902  0.07069000000000006  0.9828600000000001  1.0000
  O   O72       1.0  0.58419  0.13157999999999997  0.93307  1.0000
  O   O73       1.0  0.62922  0.16275  0.02476  1.0000
  Zn  Zn30      1.0  0.52565  0.007040000000000016  0.95763  1.0000
  O   O74       1.0  0.46634000000000003  0.01777000000000011  0.9552200000000002  1.0000
  Zn  Zn31      1.0  0.51992  0.0206  0.05507  1.0000
  C   C442      1.0  0.47000000000000014  0.046760000000000114  0.9940100000000002  1.0000
  O   O75       1.0  0.55235  0.018320000000000006  0.11933  1.0000
  O   O76       1.0  0.49167  0.05193000000000001  0.04217000000000001  1.0000
  O   O77       1.0  0.54873  0.00741  0.025470000000000003  1.0000
  C   C443      1.0  0.5002  0.02095000000000003  0.79096  1.0000
  H   H275      1.0  0.58216  0.02462  0.05061  1.0000
  Zn  Zn32      1.0  0.58124  0.07777000000000003  0.4939900000000001  1.0000
  Zn  Zn33      1.0  0.51242  0.049140000000000024  0.37844  1.0000
  O   O78       1.0  0.4944700000000001  0.031760000000000004  0.3029  1.0000
  C   C444      1.0  0.59123  0.14386  0.45473  1.0000
  O   O79       1.0  0.52093  0.05412999999999999  0.44834  1.0000
  O   O80       1.0  0.56557  0.10896000000000006  0.4064300000000001  1.0000
  O   O81       1.0  0.4235500000000001  0.019030000000000054  0.40649000000000013  1.0000
  Zn  Zn34      1.0  0.45989000000000013  0.017140000000000044  0.5098500000000001  1.0000
  C   C445      1.0  0.4224  0.047549999999999995  0.44036  1.0000
  O   O82       1.0  0.48082  0.013109999999999986  0.57549  1.0000
  O   O83       1.0  0.43602  0.05088000000000001  0.48765  1.0000
  O   O84       1.0  0.48851  0.99564  0.48674  1.0000
  C   C446      1.0  0.50085  0.003009999999999997  0.27763  1.0000
  H   H276      1.0  0.52072  0.008520000000000005  0.51506  1.0000
  C   C447      1.0  0.49156  0.025139999999999985  0.74286  1.0000
  C   C448      1.0  0.48431  0.001839999999999978  0.65849  1.0000
  H   H277      1.0  0.4825500000000001  0.03054000000000006  0.65562  1.0000
  H   H278      1.0  0.4888600000000001  0.053310000000000114  0.7395800000000002  1.0000
  C   C449      1.0  0.51461  0.011829999999999997  0.24307  1.0000
  C   C450      1.0  0.5467  0.00045000000000000427  0.19366  1.0000
  H   H279      1.0  0.56158  0.0356  0.20293  1.0000
  H   H280      1.0  0.51889  0.04189000000000001  0.23927000000000004  1.0000
  C   C451      1.0  0.58759  0.70245  0.42657  1.0000
  C   C452      1.0  0.5380500000000001  0.6724700000000002  0.3867100000000001  1.0000
  C   C453      1.0  0.51987  0.64227  0.33452000000000004  1.0000
  C   C454      1.0  0.4729  0.61494  0.29653  1.0000
  C   C455      1.0  0.44402  0.61805  0.31032000000000004  1.0000
  C   C456      1.0  0.46205000000000007  0.64869  0.36199  1.0000
  C   C457      1.0  0.50897  0.67627  0.3999800000000001  1.0000
  H   H281      1.0  0.45892999999999995  0.5915099999999999  0.25638  1.0000
  H   H282      1.0  0.43967  0.65118  0.37257  1.0000
  H   H283      1.0  0.52276  0.70059  0.4396500000000001  1.0000
  H   H284      1.0  0.54206  0.6397900000000001  0.3235700000000001  1.0000
  C   C458      1.0  0.6350300000000002  0.7125600000000001  0.9866600000000002  1.0000
  H   H285      1.0  0.6431600000000002  0.69087  0.9237300000000003  1.0000
  C   C459      1.0  0.61205  0.74357  0.04259  1.0000
  C   C460      1.0  0.56577  0.72556  0.00497  1.0000
  C   C461      1.0  0.53877  0.72863  0.022010000000000002  1.0000
  C   C462      1.0  0.5576700000000001  0.74951  0.07653000000000001  1.0000
  H   H286      1.0  0.50336  0.71553  0.99295  1.0000
  H   H287      1.0  0.5368200000000001  0.7522600000000004  0.08965  1.0000
  H   H288      1.0  0.5512500000000002  0.7109800000000001  0.9626900000000003  1.0000
  C   C463      1.0  0.56632  0.42449  0.3059  1.0000
  C   C464      1.0  0.58266  0.39825  0.32221000000000005  1.0000
  C   C465      1.0  0.62655  0.41886999999999996  0.36772  1.0000
  H   H289      1.0  0.53255  0.40847  0.27016  1.0000
  H   H290      1.0  0.56158  0.36196  0.29923  1.0000
  H   H291      1.0  0.6396800000000001  0.39851000000000003  0.37907000000000013  1.0000
  C   C466      1.0  0.6269900000000003  0.51758  0.8700800000000002  1.0000
  C   C467      1.0  0.60603  0.5381  0.8463700000000002  1.0000
  H   H292      1.0  0.6139100000000001  0.4823400000000002  0.8472500000000002  1.0000
  H   H293      1.0  0.5776200000000001  0.5191  0.8047600000000003  1.0000
  H   H294      1.0  0.02670000000000003  0.36203  0.08358  1.0000
  C   C468      1.0  0.60896  0.24596000000000004  0.43356000000000006  1.0000
  C   C469      1.0  0.6033400000000001  0.26637  0.11412  1.0000
  C   C470      1.0  0.60896  0.74596  0.43356000000000006  1.0000
  C   C471      1.0  0.60334  0.76637  0.11412  1.0000
  H   H295      1.0  0.59459  0.22432000000000005  0.6262  1.0000
  H   H296      1.0  0.59459  0.72432  0.6262  1.0000
  C   C472      1.0  0.77179  0.40178  0.01684  1.0000
  C   C473      1.0  0.74812  0.42385  0.006680000000000002  1.0000
  C   C474      1.0  0.70782  0.40842  0.0031800000000000005  1.0000
  C   C475      1.0  0.69158  0.37099  0.01046  1.0000
  C   C476      1.0  0.71337  0.34703  0.01705  1.0000
  C   C477      1.0  0.75516  0.36430000000000007  0.023940000000000006  1.0000
  H   H297      1.0  0.75957  0.45114000000000004  0.99826  1.0000
  H   H298      1.0  0.65965  0.35807  0.00593  1.0000
  H   H299      1.0  0.7727600000000001  0.34652000000000005  0.03039  1.0000
  C   C478      1.0  0.72047  0.3863700000000001  0.48211000000000004  1.0000
  C   C479      1.0  0.69534  0.40622  0.48244  1.0000
  C   C480      1.0  0.65858  0.38573  0.4848  1.0000
  C   C481      1.0  0.64995  0.34771  0.49217000000000005  1.0000
  C   C482      1.0  0.6728  0.32589  0.48818000000000006  1.0000
  C   C483      1.0  0.70876  0.34581  0.4842  1.0000
  H   H300      1.0  0.70272  0.43600000000000005  0.47762000000000004  1.0000
  H   H301      1.0  0.6222500000000001  0.33243  0.4953500000000001  1.0000
  H   H302      1.0  0.7259200000000001  0.3287  0.4799000000000001  1.0000
  C   C484      1.0  0.71138  0.64707  0.0582  1.0000
  O   O85       1.0  0.67502  0.60853  0.03786  1.0000
  O   O86       1.0  0.71618  0.6848  0.08464000000000003  1.0000
  C   C485      1.0  0.62683  0.55247  0.45561  1.0000
  O   O87       1.0  0.6308200000000002  0.57131  0.49987000000000004  1.0000
  O   O88       1.0  0.58681  0.53001  0.40983  1.0000
  O   O89       1.0  0.60344  0.63821  0.49733  1.0000
  C   C486      1.0  0.6125600000000001  0.18997000000000003  0.46182000000000006  1.0000
  C   C487      1.0  0.65353  0.27870000000000006  0.4781900000000001  1.0000
  C   C488      1.0  0.6779600000000002  0.26684000000000013  0.5146400000000001  1.0000
  C   C489      1.0  0.6578799999999999  0.22225  0.50521  1.0000
  H   H303      1.0  0.6771900000000001  0.21303000000000002  0.53257  1.0000
  C   C490      1.0  0.7230700000000001  0.30135000000000006  0.5646900000000001  1.0000
  C   C491      1.0  0.72687  0.32833  0.6087  1.0000
  C   C492      1.0  0.7694400000000002  0.3590400000000001  0.6572000000000002  1.0000
  C   C493      1.0  0.7621699999999999  0.30584  0.56933  1.0000
  H   H304      1.0  0.6968500000000001  0.32517000000000007  0.60541  1.0000
  H   H305      1.0  0.75958  0.28529  0.53551  1.0000
  C   C494      1.0  0.75402  0.4041100000000001  0.4706600000000001  1.0000
  C   C495      1.0  0.7388900000000002  0.39260000000000006  0.4176800000000001  1.0000
  H   H306      1.0  0.70291  0.37091  0.38594  1.0000
  C   C496      1.0  0.7520000000000001  0.39458000000000015  0.34852  1.0000
  C   C497      1.0  0.7329100000000001  0.34973  0.31278  1.0000
  C   C498      1.0  0.7141200000000002  0.3363  0.25871  1.0000
  C   C499      1.0  0.71554  0.36775  0.24039000000000005  1.0000
  C   C500      1.0  0.73467  0.41245  0.27584  1.0000
  H   H307      1.0  0.78888  0.4833  0.57837  1.0000
  H   H308      1.0  0.73225  0.32529000000000013  0.32682000000000005  1.0000
  H   H309      1.0  0.69791  0.30145  0.23090000000000005  1.0000
  H   H310      1.0  0.70169  0.35748  0.19870000000000002  1.0000
  C   C501      1.0  0.62384  0.39803  0.46854  1.0000
  C   C502      1.0  0.63496  0.44223  0.4960700000000001  1.0000
  C   C503      1.0  0.60192  0.45331  0.47676  1.0000
  H   H311      1.0  0.61092  0.48754000000000003  0.49707  1.0000
  C   C504      1.0  0.6805700000000001  0.4768  0.54583  1.0000
  C   C505      1.0  0.69614  0.47117  0.59144  1.0000
  C   C506      1.0  0.73881  0.50439  0.6387200000000001  1.0000
  C   C507      1.0  0.75055  0.54923  0.59554  1.0000
  C   C508      1.0  0.70789  0.51616  0.54822  1.0000
  H   H312      1.0  0.67516  0.44117  0.59025  1.0000
  H   H313      1.0  0.69596  0.5212  0.51365  1.0000
  H   H314      1.0  0.7715800000000002  0.5794600000000001  0.5972  1.0000
  C   C509      1.0  0.64241  0.24979000000000004  0.02524  1.0000
  C   C510      1.0  0.6726  0.29357000000000005  0.03899  1.0000
  H   H315      1.0  0.6800500000000002  0.3222  0.07045  1.0000
  C   C511      1.0  0.68887  0.30065000000000003  0.0083  1.0000
  C   C512      1.0  0.67565  0.26305000000000006  0.96425  1.0000
  C   C513      1.0  0.651  0.21944000000000008  0.9556100000000002  1.0000
  C   C514      1.0  0.68305  0.26877  0.92391  1.0000
  C   C515      1.0  0.6560200000000002  0.27849000000000007  0.8872100000000003  1.0000
  C   C516      1.0  0.6645300000000001  0.28629000000000004  0.8508900000000003  1.0000
  C   C517      1.0  0.69985  0.28425000000000006  0.8508900000000003  1.0000
  C   C518      1.0  0.7269500000000001  0.2748000000000001  0.8875200000000002  1.0000
  C   C519      1.0  0.71843  0.26673  0.9237600000000001  1.0000
  C   C520      1.0  0.63048  0.26318  0.09730000000000001  1.0000
  H   H316      1.0  0.61768  0.28184  0.15627  1.0000
  H   H317      1.0  0.66602  0.27696  0.12669  1.0000
  H   H318      1.0  0.64395  0.2942  0.82298  1.0000
  H   H319      1.0  0.7398900000000002  0.25994  0.9524600000000002  1.0000
  H   H320      1.0  0.75483  0.27421  0.88818  1.0000
  H   H321      1.0  0.7066800000000001  0.29073  0.82309  1.0000
  C   C521      1.0  0.80812  0.41195  0.00879  1.0000
  C   C522      1.0  0.7963200000000004  0.39725000000000005  0.9568100000000003  1.0000
  H   H322      1.0  0.76101  0.3794200000000001  0.9234500000000002  1.0000
  C   C523      1.0  0.81399  0.3416400000000001  0.8724400000000002  1.0000
  C   C524      1.0  0.79889  0.31968  0.81937  1.0000
  C   C525      1.0  0.7837599999999999  0.33692999999999995  0.78509  1.0000
  C   C526      1.0  0.78342  0.376  0.80373  1.0000
  C   C527      1.0  0.7983400000000003  0.39797000000000016  0.8567200000000003  1.0000
  H   H323      1.0  0.7988400000000001  0.2892800000000001  0.8047900000000002  1.0000
  H   H324      1.0  0.7979200000000002  0.4281700000000001  0.8708900000000003  1.0000
  H   H325      1.0  0.7715400000000001  0.38921  0.77711  1.0000
  H   H326      1.0  0.7722099999999998  0.31998  0.74407  1.0000
  C   C528      1.0  0.6779300000000001  0.4253600000000001  0.9816000000000003  1.0000
  C   C529      1.0  0.69142  0.47053  0.00938  1.0000
  C   C530      1.0  0.6596800000000002  0.4834100000000003  0.9923300000000003  1.0000
  H   H327      1.0  0.67019  0.51812  0.013620000000000004  1.0000
  C   C531      1.0  0.73879  0.50493  0.05518  1.0000
  C   C532      1.0  0.7549399999999999  0.50776  0.10568  1.0000
  C   C533      1.0  0.7988  0.54236  0.14975  1.0000
  C   C534      1.0  0.81095  0.57103  0.09314000000000003  1.0000
  C   C535      1.0  0.76699  0.53673  0.04905000000000002  1.0000
  H   H328      1.0  0.73343  0.48339000000000004  0.11078000000000002  1.0000
  H   H329      1.0  0.75483  0.53483  0.010220000000000002  1.0000
  C   C536      1.0  0.73456  0.02094  0.22399  1.0000
  C   C537      1.0  0.6965300000000001  0.9987600000000001  0.22338  1.0000
  C   C538      1.0  0.7019099999999999  0.9981499999999999  0.26962  1.0000
  C   C539      1.0  0.74533  0.019560000000000004  0.3165  1.0000
  H   H330      1.0  0.73033  0.021660000000000002  0.18828  1.0000
  C   C540      1.0  0.73525  0.24937  0.21178  1.0000
  H   H331      1.0  0.7010300000000002  0.23986  0.18306  1.0000
  H   H332      1.0  0.7586  0.26528000000000007  0.16480000000000006  1.0000
  H   H333      1.0  0.72273  0.24009  0.26909  1.0000
  C   C541      1.0  0.6678  0.06694  0.4562  1.0000
  C   C542      1.0  0.66662  0.04175000000000002  0.4132100000000001  1.0000
  C   C543      1.0  0.6991900000000001  0.06306000000000007  0.4050700000000001  1.0000
  H   H334      1.0  0.69671  0.04475999999999998  0.37012  1.0000
  C   C544      1.0  0.73601  0.10723000000000003  0.44298000000000004  1.0000
  C   C545      1.0  0.7416  0.12908  0.49103  1.0000
  C   C546      1.0  0.7067  0.10939000000000003  0.4965100000000001  1.0000
  H   H335      1.0  0.7098  0.12728  0.53212  1.0000
  C   C547      1.0  0.6369400000000001  0.9922200000000001  0.38275  1.0000
  H   H336      1.0  0.58197  0.9916499999999999  0.32129  1.0000
  C   C548      1.0  0.7475900000000001  0.01285000000000011  0.8424200000000002  1.0000
  H   H337      1.0  0.7254600000000001  0.013690000000000074  0.8074100000000001  1.0000
  C   C549      1.0  0.78342  0.2132300000000001  0.9035700000000002  1.0000
  C   C550      1.0  0.73784  0.17883000000000007  0.8728800000000002  1.0000
  C   C551      1.0  0.71865  0.14358000000000012  0.8235000000000001  1.0000
  C   C552      1.0  0.74503  0.14257000000000006  0.8047600000000003  1.0000
  H   H338      1.0  0.7980900000000002  0.2404300000000001  0.9418300000000001  1.0000
  H   H339      1.0  0.71748  0.17935000000000015  0.8875300000000003  1.0000
  H   H340      1.0  0.7301499999999999  0.11517999999999996  0.76658  1.0000
  H   H341      1.0  0.6833900000000002  0.11697000000000005  0.79982  1.0000
  C   C553      1.0  0.81032  0.15574000000000002  0.028200000000000003  1.0000
  C   C554      1.0  0.79144  0.181  0.08861000000000002  1.0000
  H   H342      1.0  0.8018  0.20378  0.12722  1.0000
  C   C555      1.0  0.74539  0.14814000000000002  0.04848  1.0000
  C   C556      1.0  0.73228  0.11809000000000001  0.9984300000000002  1.0000
  C   C557      1.0  0.7654000000000001  0.1203800000000001  0.9905000000000003  1.0000
  H   H343      1.0  0.7554000000000003  0.09731000000000005  0.9522200000000002  1.0000
  C   C558      1.0  0.68443  0.08919000000000005  0.95145  1.0000
  C   C559      1.0  0.6659800000000001  0.042910000000000094  0.9224900000000003  1.0000
  C   C560      1.0  0.62272  0.08354  0.87584  1.0000
  C   C561      1.0  0.66183  0.10910000000000006  0.9282700000000002  1.0000
  H   H344      1.0  0.68389  0.027479999999999994  0.93907  1.0000
  H   H345      1.0  0.6761500000000001  0.1448900000000001  0.9496700000000002  1.0000
  H   H346      1.0  0.6063100000000001  0.09934000000000003  0.8574200000000001  1.0000
  C   C562      1.0  0.71138  0.14707  0.0582  1.0000
  O   O90       1.0  0.67502  0.10853000000000002  0.03786  1.0000
  O   O91       1.0  0.71618  0.1848  0.08464000000000003  1.0000
  C   C563      1.0  0.62683  0.052470000000000024  0.45561  1.0000
  O   O92       1.0  0.63082  0.07131000000000003  0.49987000000000004  1.0000
  O   O93       1.0  0.58681  0.030009999999999978  0.40983  1.0000
  O   O94       1.0  0.60344  0.13821  0.49733  1.0000
  C   C564      1.0  0.61256  0.68997  0.46182000000000006  1.0000
  C   C565      1.0  0.65788  0.7222500000000001  0.50521  1.0000
  H   H347      1.0  0.67719  0.71303  0.53257  1.0000
  C   C566      1.0  0.7388100000000002  0.00439000000000002  0.6387200000000001  1.0000
  C   C567      1.0  0.75055  0.04923  0.59554  1.0000
  C   C568      1.0  0.7078899999999999  0.01616000000000001  0.54822  1.0000
  H   H348      1.0  0.7715800000000002  0.07946  0.5972  1.0000
  C   C569      1.0  0.64241  0.74979  0.02524  1.0000
  C   C570      1.0  0.67565  0.76305  0.96425  1.0000
  C   C571      1.0  0.6510000000000002  0.71945  0.9556100000000002  1.0000
  C   C572      1.0  0.68305  0.76877  0.92391  1.0000
  C   C573      1.0  0.71843  0.76673  0.9237600000000001  1.0000
  C   C574      1.0  0.63048  0.76318  0.09730000000000001  1.0000
  H   H349      1.0  0.7398900000000002  0.7599400000000003  0.9524600000000002  1.0000
  H   H350      1.0  0.67019  0.01812  0.013620000000000004  1.0000
  C   C575      1.0  0.7988  0.042360000000000016  0.14975  1.0000
  C   C576      1.0  0.81095  0.07104000000000005  0.09314000000000003  1.0000
  C   C577      1.0  0.76699  0.036730000000000006  0.04905000000000002  1.0000
  H   H351      1.0  0.75483  0.03483  0.010220000000000002  1.0000
  C   C578      1.0  0.73456  0.52094  0.22399  1.0000
  C   C579      1.0  0.6965299999999999  0.49876  0.22338  1.0000
  C   C580      1.0  0.70191  0.49815000000000004  0.26962  1.0000
  C   C581      1.0  0.74533  0.51956  0.3165  1.0000
  H   H352      1.0  0.73033  0.52166  0.18828  1.0000
  H   H353      1.0  0.6629  0.48212000000000005  0.1871  1.0000
  H   H354      1.0  0.67245  0.48090000000000005  0.26908  1.0000
  H   H355      1.0  0.7010300000000002  0.73986  0.18306  1.0000
  C   C582      1.0  0.6678000000000002  0.56694  0.4562  1.0000
  C   C583      1.0  0.66662  0.54175  0.4132100000000001  1.0000
  C   C584      1.0  0.69919  0.56306  0.4050700000000001  1.0000
  H   H356      1.0  0.69671  0.54476  0.37012  1.0000
  C   C585      1.0  0.73601  0.60723  0.44298000000000004  1.0000
  C   C586      1.0  0.7416  0.62908  0.49103  1.0000
  C   C587      1.0  0.7067000000000001  0.60939  0.4965100000000001  1.0000
  H   H357      1.0  0.7098  0.62728  0.53212  1.0000
  C   C588      1.0  0.6369400000000001  0.49222000000000005  0.38275  1.0000
  C   C589      1.0  0.59389  0.47144  0.33531  1.0000
  C   C590      1.0  0.65364  0.46575  0.39816000000000007  1.0000
  H   H358      1.0  0.68796  0.48154  0.4327700000000001  1.0000
  H   H359      1.0  0.58197  0.4916499999999999  0.32129  1.0000
  C   C591      1.0  0.7581  0.48855  0.90921  1.0000
  C   C592      1.0  0.7295900000000001  0.48968000000000017  0.8639800000000002  1.0000
  C   C593      1.0  0.7475900000000001  0.51285  0.8424200000000002  1.0000
  H   H360      1.0  0.74407  0.47051  0.9257200000000002  1.0000
  H   H361      1.0  0.69356  0.47266  0.84568  1.0000
  H   H362      1.0  0.7254600000000001  0.5136900000000001  0.8074100000000001  1.0000
  C   C594      1.0  0.7834200000000002  0.7132300000000001  0.9035700000000002  1.0000
  C   C595      1.0  0.7378400000000005  0.6788300000000004  0.8728800000000002  1.0000
  C   C596      1.0  0.7186500000000002  0.6435800000000002  0.8235000000000001  1.0000
  C   C597      1.0  0.7450300000000001  0.64257  0.8047600000000003  1.0000
  H   H363      1.0  0.7980900000000001  0.7404300000000003  0.9418300000000001  1.0000
  H   H364      1.0  0.7174800000000001  0.6793500000000001  0.8875300000000003  1.0000
  H   H365      1.0  0.73015  0.61518  0.76658  1.0000
  H   H366      1.0  0.68339  0.61697  0.79982  1.0000
  C   C598      1.0  0.81032  0.65574  0.028200000000000003  1.0000
  C   C599      1.0  0.7914400000000001  0.6810000000000002  0.08861000000000002  1.0000
  H   H367      1.0  0.8018  0.70378  0.12722  1.0000
  C   C600      1.0  0.7453900000000001  0.64814  0.04848  1.0000
  C   C601      1.0  0.7322800000000002  0.61809  0.9984300000000002  1.0000
  C   C602      1.0  0.7654  0.62038  0.9905000000000003  1.0000
  H   H368      1.0  0.7554000000000001  0.5973100000000001  0.9522200000000002  1.0000
  C   C603      1.0  0.68443  0.58919  0.95145  1.0000
  C   C604      1.0  0.66598  0.54291  0.9224900000000003  1.0000
  C   C605      1.0  0.62272  0.58354  0.87584  1.0000
  C   C606      1.0  0.6618300000000001  0.6091  0.9282700000000002  1.0000
  H   H369      1.0  0.6838900000000001  0.5274800000000001  0.93907  1.0000
  H   H370      1.0  0.67615  0.64489  0.9496700000000002  1.0000
  H   H371      1.0  0.6063000000000001  0.5993400000000001  0.8574200000000001  1.0000
  C   C607      1.0  0.76747  0.2628400000000001  0.20094000000000006  1.0000
  C   C608      1.0  0.7942000000000001  0.035360000000000134  0.8664100000000002  1.0000
  C   C609      1.0  0.7908  0.17651999999999995  0.8357  1.0000
  C   C610      1.0  0.7942000000000001  0.5353600000000002  0.8664100000000002  1.0000
  C   C611      1.0  0.7908000000000001  0.67652  0.8357  1.0000
  H   H372      1.0  0.8255599999999998  0.3281  0.8988  1.0000
  H   H373      1.0  0.8326200000000001  0.59552  0.08834000000000002  1.0000
  H   H374      1.0  0.8326200000000001  0.09552000000000001  0.08834000000000002  1.0000
  Zn  Zn35      1.0  0.9356400000000001  0.42091000000000006  0.9116600000000001  1.0000
  C   C612      1.0  0.9459400000000001  0.35123  0.94303  1.0000
  C   C613      1.0  0.9123400000000002  0.44222  0.98217  1.0000
  O   O95       1.0  0.91839  0.3617800000000001  0.9135800000000002  1.0000
  O   O96       1.0  0.9020400000000004  0.4364600000000001  0.93492  1.0000
  O   O97       1.0  0.9534  0.45324  0.019360000000000002  1.0000
  Zn  Zn36      1.0  0.87342  0.41897  0.36706  1.0000
  C   C614      1.0  0.8646500000000001  0.34647  0.39888000000000007  1.0000
  C   C615      1.0  0.85198  0.4472400000000002  0.43613  1.0000
  O   O98       1.0  0.8446799999999999  0.35907  0.3646800000000001  1.0000
  O   O99       1.0  0.8413300000000002  0.4402300000000001  0.38848000000000005  1.0000
  O   O100      1.0  0.8909800000000003  0.45331000000000005  0.4708000000000001  1.0000
  H   H375      1.0  0.9077000000000001  0.09703000000000003  0.2808800000000001  1.0000
  H   H376      1.0  0.88105  0.22505000000000006  0.2760000000000001  1.0000
  H   H377      1.0  0.9561100000000001  0.30774  0.86236  1.0000
  H   H378      1.0  0.9293800000000002  0.2721000000000001  0.7680300000000002  1.0000
  H   H379      1.0  0.9077000000000001  0.59703  0.2808800000000001  1.0000
  C   C616      1.0  0.84096  0.16421  0.01184  1.0000
  C   C617      1.0  0.8525599999999999  0.13268000000000005  0.9996200000000001  1.0000
  C   C618      1.0  0.87067  0.1333100000000001  0.9701100000000002  1.0000
  C   C619      1.0  0.8752400000000001  0.16418  0.951  1.0000
  C   C620      1.0  0.8689  0.19892000000000015  0.9685800000000002  1.0000
  C   C621      1.0  0.8512999999999996  0.19877999999999996  0.99866  1.0000
  H   H380      1.0  0.84776  0.10794  0.013340000000000003  1.0000
  H   H381      1.0  0.88914  0.1645100000000001  0.9279200000000002  1.0000
  H   H382      1.0  0.84512  0.22503  0.011120000000000003  1.0000
  C   C622      1.0  0.7687100000000003  0.12963000000000005  0.4322900000000001  1.0000
  C   C623      1.0  0.7712200000000003  0.16579  0.42232  1.0000
  C   C624      1.0  0.79761  0.18264000000000005  0.4047  1.0000
  C   C625      1.0  0.81942  0.16177  0.39442  1.0000
  C   C626      1.0  0.8187  0.12723000000000004  0.40686000000000005  1.0000
  C   C627      1.0  0.79428  0.11201  0.42707  1.0000
  H   H383      1.0  0.75301  0.18085000000000004  0.4285000000000001  1.0000
  H   H384      1.0  0.83951  0.17453  0.38037  1.0000
  H   H385      1.0  0.7947900000000002  0.08614000000000005  0.43823000000000006  1.0000
  C   C628      1.0  0.80826  0.36288  0.6619400000000001  1.0000
  C   C629      1.0  0.8046800000000001  0.33682  0.6178100000000001  1.0000
  H   H386      1.0  0.7723300000000001  0.3796800000000001  0.6911900000000001  1.0000
  H   H387      1.0  0.8348500000000001  0.3405800000000001  0.6212200000000001  1.0000
  H   H388      1.0  0.84117  0.38643  0.69963  1.0000
  C   C630      1.0  0.80059  0.43365  0.5122  1.0000
  C   C631      1.0  0.83127  0.45144  0.50011  1.0000
  H   H389      1.0  0.86696  0.4747  0.53234  1.0000
  C   C632      1.0  0.8169000000000001  0.4370700000000002  0.4468400000000001  1.0000
  C   C633      1.0  0.7697600000000001  0.40830000000000005  0.4051500000000001  1.0000
  C   C634      1.0  0.7519  0.4257000000000001  0.32959  1.0000
  C   C635      1.0  0.8182000000000003  0.44386  0.5681  1.0000
  C   C636      1.0  0.84714  0.43  0.59379  1.0000
  C   C637      1.0  0.8687800000000004  0.4446300000000001  0.6484900000000001  1.0000
  C   C638      1.0  0.8606800000000001  0.47202000000000005  0.67749  1.0000
  C   C639      1.0  0.83131  0.48528  0.6519600000000001  1.0000
  C   C640      1.0  0.81037  0.47161  0.59746  1.0000
  H   H390      1.0  0.89155  0.4344100000000001  0.66832  1.0000
  H   H391      1.0  0.8772000000000003  0.483  0.7197700000000001  1.0000
  H   H392      1.0  0.8254199999999999  0.50679  0.6746300000000001  1.0000
  H   H393      1.0  0.85358  0.40872  0.57159  1.0000
  H   H394      1.0  0.7666  0.4603400000000001  0.35689000000000004  1.0000
  H   H395      1.0  0.73631  0.43681  0.26168  1.0000
  C   C641      1.0  0.76597  0.5434  0.64078  1.0000
  H   H396      1.0  0.75085  0.49990000000000007  0.6737600000000001  1.0000
  H   H397      1.0  0.79902  0.5690400000000001  0.6774000000000002  1.0000
  C   C642      1.0  0.85404  0.43554  0.05236000000000001  1.0000
  C   C643      1.0  0.88774  0.44479  0.04327000000000001  1.0000
  H   H398      1.0  0.92308  0.46414  0.077  1.0000
  C   C644      1.0  0.8759399999999999  0.4295400000000001  0.9908600000000002  1.0000
  C   C645      1.0  0.82929  0.40387  0.94717  1.0000
  C   C646      1.0  0.8141400000000001  0.3811000000000001  0.89142  1.0000
  C   C647      1.0  0.8670300000000001  0.45078  0.10748  1.0000
  C   C648      1.0  0.87766  0.42649  0.13394  1.0000
  C   C649      1.0  0.88574  0.43839  0.18416  1.0000
  C   C650      1.0  0.88363  0.47473  0.20826000000000003  1.0000
  C   C651      1.0  0.8738  0.49943000000000004  0.18240000000000006  1.0000
  C   C652      1.0  0.8656  0.48762000000000005  0.13215  1.0000
  H   H399      1.0  0.8935199999999999  0.4194  0.20435000000000006  1.0000
  H   H400      1.0  0.8895800000000001  0.48376  0.24695  1.0000
  H   H401      1.0  0.87233  0.52756  0.20118  1.0000
  H   H402      1.0  0.8572200000000001  0.50644  0.11193  1.0000
  H   H403      1.0  0.87874  0.39793  0.11513000000000001  1.0000
  C   C653      1.0  0.82683  0.57389  0.14347  1.0000
  H   H404      1.0  0.8110800000000001  0.54472  0.18876  1.0000
  H   H405      1.0  0.86087  0.6004700000000001  0.17759000000000005  1.0000
  C   C654      1.0  0.84819  0.11101000000000003  0.40548  1.0000
  C   C655      1.0  0.8295700000000003  0.06693000000000003  0.36755000000000004  1.0000
  C   C656      1.0  0.85574  0.04735000000000004  0.37649000000000005  1.0000
  H   H406      1.0  0.8407099999999998  0.012569999999999993  0.34899  1.0000
  C   C657      1.0  0.9002900000000001  0.07168000000000002  0.4228  1.0000
  C   C658      1.0  0.8943000000000001  0.13714000000000007  0.44740000000000013  1.0000
  C   C659      1.0  0.7836200000000001  0.04211000000000002  0.31739  1.0000
  C   C660      1.0  0.77806  0.042610000000000016  0.27088000000000007  1.0000
  H   H407      1.0  0.74918  0.018430000000000012  0.35192  1.0000
  H   H408      1.0  0.80738  0.060160000000000005  0.27125  1.0000
  C   C661      1.0  0.8373600000000001  0.30551  0.39774000000000004  1.0000
  C   C662      1.0  0.80578  0.26388000000000006  0.34997000000000006  1.0000
  C   C663      1.0  0.7893700000000001  0.22393000000000002  0.35274000000000005  1.0000
  H   H409      1.0  0.76564  0.19185999999999998  0.31631  1.0000
  C   C664      1.0  0.8066200000000001  0.22494  0.40251000000000003  1.0000
  C   C665      1.0  0.8375  0.26678  0.44996  1.0000
  C   C666      1.0  0.84925  0.30653000000000014  0.44658  1.0000
  H   H410      1.0  0.87245  0.33864  0.483  1.0000
  C   C667      1.0  0.86325  0.26975000000000005  0.5028700000000002  1.0000
  C   C668      1.0  0.8948800000000005  0.3068  0.5972  1.0000
  C   C669      1.0  0.86213  0.2932  0.54425  1.0000
  C   C670      1.0  0.7919000000000002  0.26152  0.29740000000000005  1.0000
  C   C671      1.0  0.74746  0.24913  0.26017  1.0000
  C   C672      1.0  0.81126  0.27359  0.23701  1.0000
  C   C673      1.0  0.8234  0.2726  0.28495  1.0000
  H   H411      1.0  0.83602  0.28339  0.22822  1.0000
  H   H412      1.0  0.85779  0.28269  0.31361  1.0000
  H   H413      1.0  0.8374200000000002  0.30295  0.53564  1.0000
  H   H414      1.0  0.89523  0.3266400000000001  0.62923  1.0000
  C   C674      1.0  0.7852800000000001  0.16976999999999998  0.53777  1.0000
  C   C675      1.0  0.82401  0.16726  0.56232  1.0000
  C   C676      1.0  0.86242  0.20180000000000006  0.61303  1.0000
  C   C677      1.0  0.8621100000000002  0.23855000000000004  0.63981  1.0000
  C   C678      1.0  0.8241300000000001  0.24177000000000004  0.61508  1.0000
  C   C679      1.0  0.7862  0.20807  0.56366  1.0000
  H   H415      1.0  0.8236500000000001  0.13773  0.54311  1.0000
  H   H416      1.0  0.8921700000000001  0.19976  0.63193  1.0000
  H   H417      1.0  0.7566600000000001  0.21056  0.54505  1.0000
  H   H418      1.0  0.82404  0.27029  0.63588  1.0000
  H   H419      1.0  0.8917900000000004  0.26520000000000005  0.6790700000000002  1.0000
  C   C680      1.0  0.89554  0.11081999999999999  0.97159  1.0000
  C   C681      1.0  0.8727799999999999  0.06367999999999999  0.94202  1.0000
  C   C682      1.0  0.8980500000000001  0.04351000000000008  0.9454400000000002  1.0000
  H   H420      1.0  0.88077  0.0072700000000000785  0.9225700000000002  1.0000
  C   C683      1.0  0.9453400000000002  0.06941000000000011  0.9823200000000002  1.0000
  C   C684      1.0  0.94281  0.13684  0.00589  1.0000
  C   C685      1.0  0.82309  0.03519000000000012  0.9125600000000003  1.0000
  C   C686      1.0  0.80475  0.011160000000000012  0.93348  1.0000
  H   H421      1.0  0.8080100000000002  0.05391000000000005  0.8500500000000002  1.0000
  H   H422      1.0  0.8267400000000001  0.010869999999999956  0.96915  1.0000
  C   C687      1.0  0.92669  0.3082800000000001  0.9438800000000003  1.0000
  C   C688      1.0  0.95454  0.2993000000000002  0.9816800000000002  1.0000
  C   C689      1.0  0.9348300000000002  0.26688000000000006  0.9934800000000001  1.0000
  H   H423      1.0  0.9562  0.26099  0.02364  1.0000
  C   C690      1.0  0.8877600000000003  0.23872000000000002  0.96302  1.0000
  C   C691      1.0  0.8598099999999999  0.2440800000000001  0.9213300000000002  1.0000
  C   C692      1.0  0.87935  0.2788900000000001  0.9120600000000001  1.0000
  H   H424      1.0  0.8577400000000002  0.2831000000000001  0.8801700000000001  1.0000
  C   C693      1.0  0.8103  0.21177999999999994  0.88551  1.0000
  H   H425      1.0  0.81135  0.17485999999999993  0.82162  1.0000
  C   C694      1.0  0.82389  0.18579  0.07821  1.0000
  C   C695      1.0  0.87137  0.22378  0.11837000000000003  1.0000
  C   C696      1.0  0.9064000000000001  0.21549000000000001  0.13965000000000002  1.0000
  C   C697      1.0  0.9515799999999999  0.251  0.17148  1.0000
  C   C698      1.0  0.9619900000000001  0.29489  0.18284000000000006  1.0000
  C   C699      1.0  0.92729  0.30354000000000003  0.16344000000000003  1.0000
  C   C700      1.0  0.8820400000000002  0.26811  0.13122000000000003  1.0000
  H   H426      1.0  0.97852  0.24444000000000002  0.18696000000000004  1.0000
  H   H427      1.0  0.9354600000000004  0.33762  0.17270000000000005  1.0000
  H   H428      1.0  0.8553100000000001  0.27489  0.11493  1.0000
  H   H429      1.0  0.8985600000000001  0.18146  0.13031  1.0000
  C   C701      1.0  0.84096  0.66421  0.01184  1.0000
  C   C702      1.0  0.8525599999999999  0.63268  0.9996200000000001  1.0000
  C   C703      1.0  0.8706700000000004  0.63331  0.9701100000000002  1.0000
  C   C704      1.0  0.8752400000000001  0.66418  0.951  1.0000
  C   C705      1.0  0.8689000000000001  0.6989200000000001  0.9685800000000002  1.0000
  C   C706      1.0  0.8513000000000001  0.69878  0.99866  1.0000
  H   H430      1.0  0.84776  0.6079400000000003  0.013340000000000003  1.0000
  H   H431      1.0  0.88914  0.6645100000000003  0.9279200000000002  1.0000
  H   H432      1.0  0.84512  0.72503  0.011120000000000003  1.0000
  C   C707      1.0  0.76871  0.62963  0.4322900000000001  1.0000
  C   C708      1.0  0.7712199999999999  0.66579  0.42232  1.0000
  C   C709      1.0  0.79761  0.68264  0.4047  1.0000
  C   C710      1.0  0.81942  0.66177  0.39442  1.0000
  C   C711      1.0  0.8187  0.62723  0.40686000000000005  1.0000
  C   C712      1.0  0.79428  0.61201  0.42707  1.0000
  H   H433      1.0  0.7530100000000001  0.6808500000000001  0.4285000000000001  1.0000
  H   H434      1.0  0.83951  0.67453  0.38037  1.0000
  H   H435      1.0  0.7947900000000001  0.5861400000000001  0.43823000000000006  1.0000
  C   C713      1.0  0.76597  0.04340000000000001  0.64078  1.0000
  H   H436      1.0  0.75085  0.9999000000000001  0.6737600000000001  1.0000
  H   H437      1.0  0.7990200000000001  0.0690400000000001  0.6774000000000002  1.0000
  C   C714      1.0  0.8738  0.9994300000000002  0.18240000000000006  1.0000
  H   H438      1.0  0.87233  0.02754999999999999  0.20118  1.0000
  H   H439      1.0  0.8572200000000001  0.006440000000000001  0.11193  1.0000
  C   C715      1.0  0.82683  0.07389  0.14347  1.0000
  H   H440      1.0  0.81108  0.04471999999999999  0.18876  1.0000
  H   H441      1.0  0.86087  0.10047000000000003  0.17759000000000005  1.0000
  C   C716      1.0  0.84819  0.61101  0.40548  1.0000
  C   C717      1.0  0.8295700000000001  0.56693  0.36755000000000004  1.0000
  C   C718      1.0  0.85574  0.54735  0.37649000000000005  1.0000
  H   H442      1.0  0.8407099999999998  0.51257  0.34899  1.0000
  C   C719      1.0  0.9002900000000001  0.57168  0.4228  1.0000
  C   C720      1.0  0.8943000000000001  0.63714  0.44740000000000013  1.0000
  C   C721      1.0  0.78362  0.54211  0.31739  1.0000
  C   C722      1.0  0.77806  0.54261  0.27088000000000007  1.0000
  H   H443      1.0  0.74918  0.51843  0.35192  1.0000
  H   H444      1.0  0.8073800000000001  0.56016  0.27125  1.0000
  C   C723      1.0  0.7893700000000002  0.72393  0.35274000000000005  1.0000
  H   H445      1.0  0.76564  0.69186  0.31631  1.0000
  C   C724      1.0  0.8066200000000001  0.72494  0.40251000000000003  1.0000
  C   C725      1.0  0.78528  0.6697700000000001  0.53777  1.0000
  C   C726      1.0  0.82401  0.66726  0.56232  1.0000
  C   C727      1.0  0.86242  0.7018  0.61303  1.0000
  C   C728      1.0  0.8621100000000002  0.73855  0.63981  1.0000
  C   C729      1.0  0.82413  0.7417700000000002  0.61508  1.0000
  C   C730      1.0  0.7861900000000002  0.70807  0.56366  1.0000
  H   H446      1.0  0.8236500000000001  0.63773  0.54311  1.0000
  H   H447      1.0  0.8921699999999999  0.69976  0.63193  1.0000
  H   H448      1.0  0.7566600000000001  0.7105700000000001  0.54505  1.0000
  C   C731      1.0  0.89554  0.61082  0.97159  1.0000
  C   C732      1.0  0.8727799999999999  0.56368  0.94202  1.0000
  C   C733      1.0  0.8980499999999999  0.54351  0.9454400000000002  1.0000
  H   H449      1.0  0.8807700000000002  0.5072700000000001  0.9225700000000002  1.0000
  C   C734      1.0  0.9453400000000001  0.56941  0.9823200000000002  1.0000
  C   C735      1.0  0.94281  0.63684  0.00589  1.0000
  C   C736      1.0  0.8230900000000001  0.5351900000000002  0.9125600000000003  1.0000
  C   C737      1.0  0.80475  0.51116  0.93348  1.0000
  H   H450      1.0  0.8080100000000001  0.5539100000000001  0.8500500000000002  1.0000
  H   H451      1.0  0.8267400000000001  0.51087  0.96915  1.0000
  C   C738      1.0  0.88776  0.73872  0.96302  1.0000
  C   C739      1.0  0.8598099999999999  0.74408  0.9213300000000002  1.0000
  C   C740      1.0  0.8103  0.71178  0.88551  1.0000
  H   H452      1.0  0.81135  0.67486  0.82162  1.0000
  C   C741      1.0  0.8238900000000002  0.68579  0.07821  1.0000
  C   C742      1.0  0.87137  0.7237800000000002  0.11837000000000003  1.0000
  C   C743      1.0  0.90639  0.71549  0.13965000000000002  1.0000
  C   C744      1.0  0.9515799999999999  0.751  0.17148  1.0000
  C   C745      1.0  0.8820400000000002  0.76811  0.13122000000000003  1.0000
  H   H453      1.0  0.97852  0.74444  0.18696000000000004  1.0000
  H   H454      1.0  0.8553100000000001  0.77489  0.11493  1.0000
  H   H455      1.0  0.8985600000000001  0.68146  0.13031  1.0000
  C   C746      1.0  0.9700000000000002  0.54676  0.9940100000000002  1.0000
  H   H456      1.0  0.9167000000000001  0.26318  0.2388  1.0000
  C   C747      1.0  0.9700000000000001  0.046760000000000114  0.9940100000000002  1.0000
  O   O101      1.0  0.008390000000000028  0.5535500000000001  0.8311200000000001  1.0000
  C   C748      1.0  0.9759700000000001  0.31818  0.31571000000000005  1.0000
  O   O102      1.0  0.008390000000000048  0.05355000000000009  0.8311200000000001  1.0000
  C   C749      1.0  0.93458  0.27631  0.35765  1.0000
  H   H457      1.0  0.9185199999999999  0.26006  0.37381  1.0000
  C   C750      1.0  0.015970000000000078  0.30353000000000013  0.9716600000000002  1.0000
  C   C751      1.0  0.96205  0.14869  0.36199  1.0000
  C   C752      1.0  0.96205  0.64869  0.36199  1.0000
  H   H458      1.0  0.93966  0.15118  0.37257  1.0000
  H   H459      1.0  0.93966  0.65118  0.37257  1.0000
  O   O103      1.0  0.0008400000000001133  0.50541  0.8896800000000002  1.0000
  O   O104      1.0  0.9639899999999999  0.48929000000000006  0.35346000000000005  1.0000
  C   C753      1.0  0.99155  0.52514  0.74286  1.0000
  C   C754      1.0  0.98431  0.50184  0.65849  1.0000
  H   H460      1.0  0.98255  0.53054  0.65562  1.0000
  H   H461      1.0  0.9888600000000001  0.5533100000000001  0.7395800000000002  1.0000
  C   C755      1.0  0.014609999999999967  0.51183  0.24307  1.0000
  H   H462      1.0  0.061579999999999996  0.5356  0.20293  1.0000
  H   H463      1.0  0.01888999999999999  0.54189  0.23927000000000004  1.0000
  C   C756      1.0  0.99155  0.025139999999999985  0.74286  1.0000
  C   C757      1.0  0.98431  0.001839999999999978  0.65849  1.0000
  H   H464      1.0  0.98255  0.03054000000000006  0.65562  1.0000
  H   H465      1.0  0.9888599999999999  0.053310000000000114  0.7395800000000002  1.0000
  C   C758      1.0  0.014609999999999993  0.011829999999999997  0.24307  1.0000
  H   H466      1.0  0.06158000000000001  0.0356  0.20293  1.0000
  H   H467      1.0  0.018890000000000035  0.04189000000000001  0.23927000000000004  1.0000
  H   H468      1.0  0.99663  0.15674  0.11758000000000002  1.0000
  H   H469      1.0  0.9966300000000002  0.6567400000000001  0.11758000000000002  1.0000
  Zn  Zn37      1.0  0.020789999999999996  0.44348  0.002630000000000001  1.0000
  O   O105      1.0  0.9663400000000002  0.5177700000000001  0.9552200000000002  1.0000
  Zn  Zn38      1.0  0.01992  0.5206  0.05507  1.0000
  O   O106      1.0  0.9901099999999999  0.3786999999999999  0.97239  1.0000
  O   O107      1.0  0.99273  0.44348  0.9310600000000001  1.0000
  O   O108      1.0  0.052350000000000015  0.51832  0.11933  1.0000
  O   O109      1.0  0.99167  0.55193  0.04217000000000001  1.0000
  H   H470      1.0  0.9681600000000001  0.4945100000000001  0.8692500000000002  1.0000
  Zn  Zn39      1.0  0.95037  0.43276000000000003  0.4630400000000001  1.0000
  O   O110      1.0  0.92355  0.5190300000000001  0.40649000000000013  1.0000
  Zn  Zn40      1.0  0.95989  0.5171400000000002  0.5098500000000001  1.0000
  O   O111      1.0  0.90911  0.3686  0.43274  1.0000
  C   C759      1.0  0.97702  0.47602  0.57761  1.0000
  O   O112      1.0  0.9307300000000001  0.43212  0.39165  1.0000
  C   C760      1.0  0.9224000000000001  0.54755  0.44036  1.0000
  O   O113      1.0  0.9808199999999999  0.51311  0.57549  1.0000
  O   O114      1.0  0.93602  0.55088  0.48765  1.0000
  H   H471      1.0  0.93325  0.48285  0.32901  1.0000
  C   C761      1.0  0.9729000000000001  0.11493999999999997  0.29653  1.0000
  C   C762      1.0  0.94402  0.11805000000000003  0.31032000000000004  1.0000
  H   H472      1.0  0.95893  0.09151  0.25638  1.0000
  C   C763      1.0  0.91348  0.25654  0.30252000000000007  1.0000
  C   C764      1.0  0.9336699999999998  0.27796  0.28151  1.0000
  C   C765      1.0  0.97897  0.32015  0.85158  1.0000
  C   C766      1.0  0.96386  0.30010000000000003  0.7983100000000001  1.0000
  C   C767      1.0  0.9934  0.3158700000000001  0.7842600000000001  1.0000
  H   H473      1.0  0.9816500000000004  0.3003  0.74298  1.0000
  O   O115      1.0  0.96634  0.01777000000000011  0.9552200000000002  1.0000
  Zn  Zn41      1.0  0.01992  0.0206  0.05507  1.0000
  O   O116      1.0  0.05235  0.018320000000000006  0.11933  1.0000
  O   O117      1.0  0.99167  0.05193000000000001  0.04217000000000001  1.0000
  O   O118      1.0  0.92355  0.019030000000000054  0.40649000000000013  1.0000
  Zn  Zn42      1.0  0.95989  0.017140000000000044  0.5098500000000001  1.0000
  C   C768      1.0  0.9224000000000001  0.047549999999999995  0.44036  1.0000
  O   O119      1.0  0.9808199999999999  0.013109999999999986  0.57549  1.0000
  O   O120      1.0  0.93602  0.05088000000000001  0.48765  1.0000
  C   C769      1.0  0.9729000000000001  0.61494  0.29653  1.0000
  C   C770      1.0  0.94402  0.61805  0.31032000000000004  1.0000
  H   H474      1.0  0.95893  0.5915099999999999  0.25638  1.0000
  C   C771      1.0  0.9205100000000002  0.11773000000000004  0.45683000000000007  1.0000
  H   H475      1.0  0.90912  0.1719  0.4747700000000001  1.0000
  C   C772      1.0  0.96851  0.14533  0.50393  1.0000
  H   H476      1.0  0.95325  0.16305  0.56099  1.0000
  C   C773      1.0  0.89602  0.25799  0.51496  1.0000
  C   C774      1.0  0.9269700000000002  0.26938000000000006  0.5676200000000001  1.0000
  C   C775      1.0  0.92699  0.29454  0.60882  1.0000
  H   H477      1.0  0.8989699999999996  0.24212999999999998  0.48408  1.0000
  H   H478      1.0  0.9519100000000001  0.2599600000000001  0.5766800000000001  1.0000
  H   H479      1.0  0.9517899999999999  0.30441  0.64976  1.0000
  C   C776      1.0  0.9677  0.11632000000000002  0.014490000000000003  1.0000
  H   H480      1.0  0.95994  0.17297  0.029610000000000008  1.0000
  C   C777      1.0  0.015010000000000011  0.14249  0.06303  1.0000
  C   C778      1.0  0.003090000000000048  0.31902  0.003820000000000001  1.0000
  H   H481      1.0  0.9905200000000003  0.2784300000000001  0.9299900000000002  1.0000
  H   H482      1.0  0.99691  0.32215000000000005  0.2064  1.0000
  C   C779      1.0  0.9205100000000002  0.61773  0.45683000000000007  1.0000
  H   H483      1.0  0.90912  0.6719  0.4747700000000001  1.0000
  C   C780      1.0  0.96851  0.64533  0.50393  1.0000
  H   H484      1.0  0.9532500000000005  0.66305  0.56099  1.0000
  H   H485      1.0  0.89897  0.74213  0.48408  1.0000
  C   C781      1.0  0.9677  0.61632  0.014490000000000003  1.0000
  H   H486      1.0  0.95994  0.67297  0.029610000000000008  1.0000
  C   C782      1.0  0.015009999999999907  0.64249  0.06303  1.0000
  H   H487      1.0  0.38105000000000006  0.7250500000000001  0.2760000000000001  1.0000
  H   H488      1.0  0.88105  0.7250500000000001  0.2760000000000001  1.0000
  H   H489      1.0  0.19596  0.02121000000000001  0.51365  1.0000
  H   H490      1.0  0.69596  0.02121000000000001  0.51365  1.0000
  C   C783      1.0  0.23525  0.74937  0.21178  1.0000
  H   H491      1.0  0.22273  0.74009  0.26909  1.0000
  C   C784      1.0  0.73525  0.74937  0.21178  1.0000
  H   H492      1.0  0.72273  0.74009  0.26909  1.0000
  H   H493      1.0  0.16602000000000008  0.7769600000000002  0.12669  1.0000
  H   H494      1.0  0.45191000000000014  0.7599600000000001  0.5766800000000001  1.0000
  H   H495      1.0  0.66602  0.7769600000000002  0.12669  1.0000
  H   H496      1.0  0.9519100000000003  0.7599600000000001  0.5766800000000001  1.0000
  H   H497      1.0  0.08995000000000004  0.7551  0.4057900000000001  1.0000
  C   C785      1.0  0.1535300000000001  0.7787  0.4781900000000001  1.0000
  C   C786      1.0  0.1726  0.79357  0.03899  1.0000
  H   H498      1.0  0.18005  0.8222  0.07045  1.0000
  C   C787      1.0  0.18887000000000007  0.80065  0.0083  1.0000
  H   H499      1.0  0.11769000000000002  0.78184  0.15627  1.0000
  C   C788      1.0  0.06179000000000013  0.8200700000000001  0.9935200000000002  1.0000
  H   H500      1.0  0.07166000000000007  0.8081600000000001  0.9686300000000002  1.0000
  C   C789      1.0  0.1728  0.82589  0.48818000000000006  1.0000
  C   C790      1.0  0.17796000000000003  0.7668400000000001  0.5146400000000001  1.0000
  C   C791      1.0  0.15602000000000005  0.77849  0.8872100000000003  1.0000
  H   H501      1.0  0.12895000000000012  0.7806500000000002  0.8874400000000001  1.0000
  H   H502      1.0  0.14395000000000002  0.7942  0.82298  1.0000
  C   C792      1.0  0.16453000000000007  0.78629  0.8508900000000003  1.0000
  C   C793      1.0  0.19985  0.78425  0.8508900000000003  1.0000
  H   H503      1.0  0.2259200000000001  0.8287  0.4799000000000001  1.0000
  C   C794      1.0  0.22307000000000002  0.80135  0.5646900000000001  1.0000
  C   C795      1.0  0.30468000000000006  0.83682  0.6178100000000001  1.0000
  C   C796      1.0  0.26217  0.80584  0.56933  1.0000
  H   H504      1.0  0.25958  0.78529  0.53551  1.0000
  H   H505      1.0  0.33485000000000004  0.84058  0.6212200000000001  1.0000
  H   H506      1.0  0.19789999999999996  0.80145  0.23090000000000005  1.0000
  C   C797      1.0  0.22695000000000012  0.7748  0.8875200000000002  1.0000
  H   H507      1.0  0.25483  0.77421  0.88818  1.0000
  H   H508      1.0  0.20668000000000003  0.79073  0.82309  1.0000
  C   C798      1.0  0.29889  0.81969  0.81937  1.0000
  H   H509      1.0  0.32556  0.8281  0.8988  1.0000
  H   H510      1.0  0.29884000000000016  0.7892800000000001  0.8047900000000002  1.0000
  H   H511      1.0  0.27221  0.8199799999999999  0.74407  1.0000
  C   C799      1.0  0.33736  0.80551  0.39774000000000004  1.0000
  C   C800      1.0  0.30578000000000005  0.76388  0.34997000000000006  1.0000
  C   C801      1.0  0.33749999999999997  0.76678  0.44996  1.0000
  C   C802      1.0  0.3492499999999999  0.80653  0.44658  1.0000
  C   C803      1.0  0.36325  0.76975  0.5028700000000002  1.0000
  C   C804      1.0  0.36213  0.7932  0.54425  1.0000
  C   C805      1.0  0.29190000000000005  0.7615200000000001  0.29740000000000005  1.0000
  C   C806      1.0  0.24746000000000004  0.74914  0.26017  1.0000
  C   C807      1.0  0.26747  0.76284  0.20094000000000006  1.0000
  C   C808      1.0  0.31126  0.7736  0.23701  1.0000
  C   C809      1.0  0.3234  0.7726  0.28495  1.0000
  H   H512      1.0  0.2586  0.76528  0.16480000000000006  1.0000
  H   H513      1.0  0.33602  0.78339  0.22822  1.0000
  H   H514      1.0  0.35778999999999994  0.78269  0.31361  1.0000
  H   H515      1.0  0.33742  0.8029500000000003  0.53564  1.0000
  H   H516      1.0  0.32404  0.77029  0.63588  1.0000
  H   H517      1.0  0.3917900000000002  0.7652000000000001  0.6790700000000002  1.0000
  C   C810      1.0  0.4266900000000001  0.80828  0.9438800000000003  1.0000
  C   C811      1.0  0.45454  0.7993  0.9816800000000002  1.0000
  C   C812      1.0  0.43483000000000016  0.7668800000000002  0.9934800000000001  1.0000
  C   C813      1.0  0.37934999999999997  0.77889  0.9120600000000001  1.0000
  H   H518      1.0  0.35773999999999995  0.7831  0.8801700000000001  1.0000
  C   C814      1.0  0.4619900000000001  0.79489  0.18284000000000006  1.0000
  C   C815      1.0  0.42729  0.80354  0.16344000000000003  1.0000
  H   H519      1.0  0.43546  0.8376200000000001  0.17270000000000005  1.0000
  H   H520      1.0  0.42938  0.7721  0.7680300000000002  1.0000
  C   C816      1.0  0.39488  0.8068  0.5972  1.0000
  H   H521      1.0  0.39522  0.82664  0.62923  1.0000
  C   C817      1.0  0.39602  0.75799  0.51496  1.0000
  C   C818      1.0  0.4269700000000001  0.76938  0.5676200000000001  1.0000
  C   C819      1.0  0.427  0.7945399999999999  0.60882  1.0000
  H   H522      1.0  0.45179  0.80441  0.64976  1.0000
  H   H523      1.0  0.45621  0.76099  0.02364  1.0000
  C   C820      1.0  0.50309  0.81902  0.003820000000000001  1.0000
  C   C821      1.0  0.5617900000000002  0.8200700000000001  0.9935200000000002  1.0000
  C   C822      1.0  0.5159700000000002  0.80353  0.9716600000000002  1.0000
  H   H524      1.0  0.5716600000000001  0.8081600000000001  0.9686300000000002  1.0000
  H   H525      1.0  0.49052000000000007  0.77843  0.9299900000000002  1.0000
  H   H526      1.0  0.49691  0.82215  0.2064  1.0000
  H   H527      1.0  0.58995  0.7551  0.4057900000000001  1.0000
  C   C823      1.0  0.4345800000000001  0.77631  0.35765  1.0000
  C   C824      1.0  0.41348  0.75653  0.30252000000000007  1.0000
  C   C825      1.0  0.43367  0.77795  0.28151  1.0000
  H   H528      1.0  0.41851999999999995  0.76006  0.37381  1.0000
  H   H529      1.0  0.4167  0.76318  0.2388  1.0000
  H   H530      1.0  0.6289500000000001  0.7806500000000002  0.8874400000000001  1.0000
  C   C826      1.0  0.47897  0.82015  0.85158  1.0000
  C   C827      1.0  0.46386000000000005  0.8001  0.7983100000000001  1.0000
  C   C828      1.0  0.4934000000000001  0.8158700000000001  0.7842600000000001  1.0000
  H   H531      1.0  0.45611  0.80774  0.86236  1.0000
  H   H532      1.0  0.4816400000000001  0.8003000000000001  0.74298  1.0000
  C   C829      1.0  0.6728  0.82589  0.48818000000000006  1.0000
  H   H533      1.0  0.72592  0.8287  0.4799000000000001  1.0000
  C   C830      1.0  0.65353  0.7787  0.4781900000000001  1.0000
  C   C831      1.0  0.67796  0.7668400000000001  0.5146400000000001  1.0000
  C   C832      1.0  0.72307  0.80135  0.5646900000000001  1.0000
  C   C833      1.0  0.7621699999999999  0.80584  0.56933  1.0000
  H   H534      1.0  0.75958  0.78529  0.53551  1.0000
  H   H535      1.0  0.6978999999999999  0.80145  0.23090000000000005  1.0000
  C   C834      1.0  0.6726  0.79357  0.03899  1.0000
  H   H536      1.0  0.68005  0.8222  0.07045  1.0000
  C   C835      1.0  0.68887  0.80065  0.0083  1.0000
  C   C836      1.0  0.65602  0.77849  0.8872100000000003  1.0000
  C   C837      1.0  0.6645300000000001  0.78629  0.8508900000000003  1.0000
  C   C838      1.0  0.6998500000000001  0.78425  0.8508900000000003  1.0000
  C   C839      1.0  0.72695  0.7748  0.8875200000000002  1.0000
  H   H537      1.0  0.6176799999999999  0.78184  0.15627  1.0000
  H   H538      1.0  0.64395  0.7942  0.82298  1.0000
  H   H539      1.0  0.75483  0.77421  0.88818  1.0000
  H   H540      1.0  0.7066800000000001  0.79073  0.82309  1.0000
  C   C840      1.0  0.7988900000000002  0.81969  0.81937  1.0000
  H   H541      1.0  0.79884  0.7892800000000001  0.8047900000000002  1.0000
  H   H542      1.0  0.7722099999999998  0.8199799999999999  0.74407  1.0000
  H   H543      1.0  0.7585999999999999  0.76528  0.16480000000000006  1.0000
  C   C841      1.0  0.7674699999999999  0.76284  0.20094000000000006  1.0000
  H   H544      1.0  0.8255599999999998  0.8281  0.8988  1.0000
  H   H545      1.0  0.9561100000000001  0.80774  0.86236  1.0000
  H   H546      1.0  0.9293800000000001  0.7721  0.7680300000000002  1.0000
  C   C842      1.0  0.80468  0.83682  0.6178100000000001  1.0000
  H   H547      1.0  0.8348500000000001  0.84058  0.6212200000000001  1.0000
  C   C843      1.0  0.8373600000000001  0.80551  0.39774000000000004  1.0000
  C   C844      1.0  0.8057800000000002  0.76388  0.34997000000000006  1.0000
  C   C845      1.0  0.8375  0.76678  0.44996  1.0000
  C   C846      1.0  0.84925  0.80653  0.44658  1.0000
  C   C847      1.0  0.86325  0.76975  0.5028700000000002  1.0000
  C   C848      1.0  0.8948800000000001  0.8068  0.5972  1.0000
  C   C849      1.0  0.86213  0.7932  0.54425  1.0000
  C   C850      1.0  0.7919  0.7615200000000001  0.29740000000000005  1.0000
  C   C851      1.0  0.74746  0.74914  0.26017  1.0000
  C   C852      1.0  0.8112599999999999  0.7736  0.23701  1.0000
  C   C853      1.0  0.8234  0.7726  0.28495  1.0000
  H   H548      1.0  0.83602  0.78339  0.22822  1.0000
  H   H549      1.0  0.85779  0.78269  0.31361  1.0000
  H   H550      1.0  0.8374200000000002  0.8029500000000003  0.53564  1.0000
  H   H551      1.0  0.89523  0.82664  0.62923  1.0000
  H   H552      1.0  0.82404  0.77029  0.63588  1.0000
  H   H553      1.0  0.8917900000000003  0.7652000000000001  0.6790700000000002  1.0000
  C   C854      1.0  0.92669  0.80828  0.9438800000000003  1.0000
  C   C855      1.0  0.95454  0.7993  0.9816800000000002  1.0000
  C   C856      1.0  0.9348300000000004  0.7668800000000002  0.9934800000000001  1.0000
  H   H554      1.0  0.9562  0.76099  0.02364  1.0000
  C   C857      1.0  0.87935  0.77889  0.9120600000000001  1.0000
  H   H555      1.0  0.8577400000000001  0.7831  0.8801700000000001  1.0000
  C   C858      1.0  0.9619900000000001  0.79489  0.18284000000000006  1.0000
  C   C859      1.0  0.92729  0.80354  0.16344000000000003  1.0000
  H   H556      1.0  0.93546  0.8376200000000001  0.17270000000000005  1.0000
  H   H557      1.0  0.9167000000000001  0.76318  0.2388  1.0000
  C   C860      1.0  0.93458  0.77631  0.35765  1.0000
  H   H558      1.0  0.9185199999999999  0.76006  0.37381  1.0000
  C   C861      1.0  0.01597000000000003  0.80353  0.9716600000000002  1.0000
  C   C862      1.0  0.91348  0.75653  0.30252000000000007  1.0000
  C   C863      1.0  0.9336699999999999  0.77795  0.28151  1.0000
  C   C864      1.0  0.97897  0.82015  0.85158  1.0000
  C   C865      1.0  0.9638599999999998  0.8001  0.7983100000000001  1.0000
  C   C866      1.0  0.9934  0.8158700000000001  0.7842600000000001  1.0000
  H   H559      1.0  0.98164  0.8003000000000001  0.74298  1.0000
  C   C867      1.0  0.89602  0.75799  0.51496  1.0000
  C   C868      1.0  0.92697  0.76938  0.5676200000000001  1.0000
  C   C869      1.0  0.92699  0.7945399999999999  0.60882  1.0000
  H   H560      1.0  0.95179  0.80441  0.64976  1.0000
  C   C870      1.0  0.0030900000000000025  0.81902  0.003820000000000001  1.0000
  H   H561      1.0  0.9905200000000001  0.77843  0.9299900000000002  1.0000
  H   H562      1.0  0.99691  0.82215  0.2064  1.0000
  C   C871      1.0  0.12699000000000008  0.017580000000000057  0.8700800000000002  1.0000
  C   C872      1.0  0.62699  0.017580000000000057  0.8700800000000002  1.0000
  C   C873      1.0  0.21337  0.84703  0.01705  1.0000
  C   C874      1.0  0.22686999999999996  0.8283399999999999  0.6087  1.0000
  C   C875      1.0  0.71337  0.84703  0.01705  1.0000
  C   C876      1.0  0.7268699999999999  0.8283399999999999  0.6087  1.0000
  H   H563      1.0  0.061579999999999996  0.86196  0.29923  1.0000
  C   C877      1.0  0.19158  0.87099  0.01046  1.0000
  H   H564      1.0  0.15965000000000001  0.8580700000000001  0.00593  1.0000
  C   C878      1.0  0.1499500000000001  0.84771  0.49217000000000005  1.0000
  H   H565      1.0  0.12225000000000004  0.83243  0.4953500000000001  1.0000
  C   C879      1.0  0.045439999999999994  0.87531  0.40773  1.0000
  C   C880      1.0  0.07918000000000015  0.8650800000000003  0.4243  1.0000
  H   H566      1.0  0.07029  0.8309000000000001  0.4036700000000001  1.0000
  C   C881      1.0  0.99762  0.83785  0.37117  1.0000
  C   C882      1.0  0.9763100000000001  0.8171300000000002  0.3919200000000001  1.0000
  H   H567      1.0  0.9928500000000001  0.8318599999999999  0.43467  1.0000
  C   C883      1.0  0.10166000000000001  0.9070100000000001  0.91931  1.0000
  C   C884      1.0  0.13374999999999998  0.89468  0.93524  1.0000
  H   H568      1.0  0.12353000000000006  0.8602  0.91328  1.0000
  C   C885      1.0  0.0536000000000001  0.8714700000000001  0.8771800000000001  1.0000
  C   C886      1.0  0.023760000000000035  0.8557500000000001  0.89101  1.0000
  H   H569      1.0  0.061139999999999986  0.86322  0.81258  1.0000
  H   H570      1.0  0.03549000000000018  0.8707900000000002  0.9323100000000002  1.0000
  C   C887      1.0  0.08208000000000007  0.86668  0.07994000000000002  1.0000
  C   C888      1.0  0.09477999999999996  0.8515  0.047630000000000006  1.0000
  H   H571      1.0  0.10766000000000002  0.89083  0.12188000000000002  1.0000
  H   H572      1.0  0.1301700000000001  0.8638800000000002  0.06461  1.0000
  C   C889      1.0  0.20781999999999998  0.90842  0.0031800000000000005  1.0000
  C   C890      1.0  0.15858  0.88573  0.4848  1.0000
  C   C891      1.0  0.038269999999999985  0.85142  0.8236  1.0000
  C   C892      1.0  0.036340000000000004  0.85042  0.05821  1.0000
  H   H573      1.0  0.2715399999999999  0.88921  0.77711  1.0000
  C   C893      1.0  0.27179  0.90178  0.01684  1.0000
  C   C894      1.0  0.25516  0.8643  0.023940000000000006  1.0000
  H   H574      1.0  0.27276  0.84652  0.03039  1.0000
  C   C895      1.0  0.22047000000000005  0.88637  0.48211000000000004  1.0000
  C   C896      1.0  0.20875  0.84581  0.4842  1.0000
  C   C897      1.0  0.2694400000000001  0.8590400000000001  0.6572000000000002  1.0000
  C   C898      1.0  0.30826000000000003  0.86288  0.6619400000000001  1.0000
  H   H575      1.0  0.19685000000000005  0.82517  0.60541  1.0000
  H   H576      1.0  0.27233000000000007  0.87969  0.6911900000000001  1.0000
  H   H577      1.0  0.34117  0.88643  0.69963  1.0000
  C   C899      1.0  0.23889  0.8926  0.4176800000000001  1.0000
  H   H578      1.0  0.20290999999999998  0.87091  0.38594  1.0000
  C   C900      1.0  0.23291000000000003  0.84973  0.31278  1.0000
  C   C901      1.0  0.21412000000000003  0.8363  0.25871  1.0000
  C   C902      1.0  0.21555000000000005  0.86776  0.24039000000000005  1.0000
  H   H579      1.0  0.35358  0.90872  0.57159  1.0000
  H   H580      1.0  0.23225000000000004  0.8252900000000001  0.32682000000000005  1.0000
  H   H581      1.0  0.20169  0.8574800000000001  0.19870000000000002  1.0000
  C   C903      1.0  0.3292900000000001  0.9038700000000001  0.94717  1.0000
  C   C904      1.0  0.29632000000000014  0.8972500000000002  0.9568100000000003  1.0000
  H   H582      1.0  0.26101000000000013  0.8794200000000002  0.9234500000000002  1.0000
  C   C905      1.0  0.31414  0.8811  0.89142  1.0000
  C   C906      1.0  0.31399000000000016  0.84164  0.8724400000000002  1.0000
  C   C907      1.0  0.2837599999999999  0.83693  0.78509  1.0000
  C   C908      1.0  0.28342  0.876  0.80373  1.0000
  C   C909      1.0  0.29834000000000016  0.8979700000000002  0.8567200000000003  1.0000
  H   H583      1.0  0.37874  0.89793  0.11513000000000001  1.0000
  C   C910      1.0  0.44594  0.85123  0.94303  1.0000
  O   O121      1.0  0.41839000000000015  0.86178  0.9135800000000002  1.0000
  C   C911      1.0  0.36465000000000003  0.8464700000000001  0.39888000000000007  1.0000
  O   O122      1.0  0.3446800000000001  0.8590700000000001  0.3646800000000001  1.0000
  H   H584      1.0  0.99211  0.83379  0.29925  1.0000
  H   H585      1.0  0.37245  0.8386400000000002  0.483  1.0000
  C   C912      1.0  0.53634  0.85042  0.05821  1.0000
  C   C913      1.0  0.58208  0.86668  0.07994000000000002  1.0000
  C   C914      1.0  0.59479  0.8515  0.047630000000000006  1.0000
  H   H586      1.0  0.60766  0.89083  0.12188000000000002  1.0000
  H   H587      1.0  0.63017  0.8638800000000002  0.06461  1.0000
  H   H588      1.0  0.5267  0.86203  0.08358  1.0000
  H   H589      1.0  0.56158  0.86196  0.29923  1.0000
  O   O123      1.0  0.49011  0.8787  0.97239  1.0000
  O   O124      1.0  0.40911  0.8686  0.43274  1.0000
  C   C915      1.0  0.54544  0.87531  0.40773  1.0000
  C   C916      1.0  0.5791800000000001  0.8650800000000003  0.4243  1.0000
  H   H590      1.0  0.5702900000000001  0.8309000000000001  0.4036700000000001  1.0000
  C   C917      1.0  0.49761  0.83785  0.37117  1.0000
  C   C918      1.0  0.4763100000000001  0.8171300000000002  0.3919200000000001  1.0000
  C   C919      1.0  0.47597000000000006  0.81818  0.31571000000000005  1.0000
  H   H591      1.0  0.49211  0.83379  0.29925  1.0000
  H   H592      1.0  0.49285  0.8318599999999999  0.43467  1.0000
  C   C920      1.0  0.6016600000000001  0.9070100000000001  0.91931  1.0000
  C   C921      1.0  0.63375  0.89468  0.93524  1.0000
  H   H593      1.0  0.62352  0.8602  0.91328  1.0000
  C   C922      1.0  0.5536000000000001  0.8714700000000001  0.8771800000000001  1.0000
  C   C923      1.0  0.5237600000000001  0.8557500000000001  0.89101  1.0000
  C   C924      1.0  0.53827  0.85142  0.8236  1.0000
  H   H594      1.0  0.56114  0.86322  0.81258  1.0000
  H   H595      1.0  0.5354900000000002  0.8707900000000002  0.9323100000000002  1.0000
  H   H596      1.0  0.026699999999999984  0.86203  0.08358  1.0000
  C   C925      1.0  0.77179  0.90178  0.01684  1.0000
  C   C926      1.0  0.70782  0.90842  0.0031800000000000005  1.0000
  C   C927      1.0  0.69158  0.87099  0.01046  1.0000
  C   C928      1.0  0.75516  0.8643  0.023940000000000006  1.0000
  H   H597      1.0  0.65965  0.8580700000000001  0.00593  1.0000
  H   H598      1.0  0.77276  0.84652  0.03039  1.0000
  C   C929      1.0  0.72047  0.88637  0.48211000000000004  1.0000
  C   C930      1.0  0.65858  0.88573  0.4848  1.0000
  C   C931      1.0  0.6499500000000001  0.84771  0.49217000000000005  1.0000
  C   C932      1.0  0.70876  0.84581  0.4842  1.0000
  H   H599      1.0  0.62225  0.83243  0.4953500000000001  1.0000
  C   C933      1.0  0.7694400000000001  0.8590400000000001  0.6572000000000002  1.0000
  H   H600      1.0  0.6968500000000001  0.82517  0.60541  1.0000
  C   C934      1.0  0.73889  0.8926  0.4176800000000001  1.0000
  H   H601      1.0  0.70291  0.87091  0.38594  1.0000
  C   C935      1.0  0.7329099999999998  0.84973  0.31278  1.0000
  C   C936      1.0  0.7141200000000001  0.8363  0.25871  1.0000
  C   C937      1.0  0.71555  0.86776  0.24039000000000005  1.0000
  H   H602      1.0  0.73225  0.8252900000000001  0.32682000000000005  1.0000
  H   H603      1.0  0.7016900000000001  0.8574800000000001  0.19870000000000002  1.0000
  C   C938      1.0  0.7963200000000002  0.8972500000000002  0.9568100000000003  1.0000
  H   H604      1.0  0.7610100000000001  0.8794200000000002  0.9234500000000002  1.0000
  C   C939      1.0  0.81399  0.84164  0.8724400000000002  1.0000
  C   C940      1.0  0.7837599999999999  0.83693  0.78509  1.0000
  C   C941      1.0  0.78342  0.876  0.80373  1.0000
  C   C942      1.0  0.7983400000000002  0.8979700000000002  0.8567200000000003  1.0000
  H   H605      1.0  0.7715400000000001  0.88921  0.77711  1.0000
  C   C943      1.0  0.9459400000000001  0.85123  0.94303  1.0000
  O   O125      1.0  0.91839  0.86178  0.9135800000000002  1.0000
  C   C944      1.0  0.8646500000000001  0.8464700000000001  0.39888000000000007  1.0000
  O   O126      1.0  0.8446800000000001  0.8590700000000001  0.3646800000000001  1.0000
  C   C945      1.0  0.80826  0.86288  0.6619400000000001  1.0000
  H   H606      1.0  0.7723300000000001  0.87969  0.6911900000000001  1.0000
  H   H607      1.0  0.84117  0.88643  0.69963  1.0000
  H   H608      1.0  0.85358  0.90872  0.57159  1.0000
  C   C946      1.0  0.82929  0.9038700000000001  0.94717  1.0000
  C   C947      1.0  0.81414  0.8811  0.89142  1.0000
  H   H609      1.0  0.87874  0.89793  0.11513000000000001  1.0000
  H   H610      1.0  0.87245  0.8386400000000002  0.483  1.0000
  C   C948      1.0  0.9759700000000001  0.81818  0.31571000000000005  1.0000
  O   O127      1.0  0.9901099999999999  0.8787  0.97239  1.0000
  O   O128      1.0  0.90911  0.8686  0.43274  1.0000
  H   H611      1.0  0.07761000000000014  0.01910000000000009  0.8047600000000003  1.0000
  H   H612      1.0  0.5776100000000001  0.01910000000000009  0.8047600000000003  1.0000
  H   H613      1.0  0.13969  0.89851  0.37907000000000013  1.0000
  H   H614      1.0  0.32542000000000004  0.006790000000000025  0.6746300000000001  1.0000
  H   H615      1.0  0.6396800000000001  0.89851  0.37907000000000013  1.0000
  H   H616      1.0  0.8254199999999998  0.006790000000000025  0.6746300000000001  1.0000
  C   C949      1.0  0.06632000000000007  0.92449  0.3059  1.0000
  C   C950      1.0  0.08266000000000007  0.89825  0.32221000000000005  1.0000
  C   C951      1.0  0.12655  0.91887  0.36772  1.0000
  H   H617      1.0  0.03255  0.90847  0.27016  1.0000
  O   O129      1.0  0.051129999999999995  0.9485400000000002  0.87768  1.0000
  C   C952      1.0  0.08233000000000003  0.96679  0.92893  1.0000
  O   O130      1.0  0.99394  0.91307  0.35694  1.0000
  Zn  Zn43      1.0  0.9745600000000001  0.94594  0.32406  1.0000
  C   C953      1.0  0.024430000000000104  0.9339600000000002  0.4087400000000001  1.0000
  C   C954      1.0  0.057350000000000026  0.92039  0.4317900000000001  1.0000
  C   C955      1.0  0.12384999999999992  0.89803  0.46854  1.0000
  C   C956      1.0  0.13496000000000002  0.94223  0.4960700000000001  1.0000
  C   C957      1.0  0.10192  0.95331  0.47676  1.0000
  C   C958      1.0  0.1148500000000001  0.9520700000000001  0.9472800000000002  1.0000
  C   C959      1.0  0.17793000000000012  0.9253600000000001  0.9816000000000003  1.0000
  C   C960      1.0  0.1914200000000001  0.9705300000000001  0.00938  1.0000
  O   O131      1.0  0.04106000000000002  0.94934  0.0781  1.0000
  H   H618      1.0  0.9816000000000005  0.94241  0.62298  1.0000
  H   H619      1.0  0.033149999999999985  0.9367  0.1495  1.0000
  O   O132      1.0  0.97077  0.9434200000000003  0.53927  1.0000
  C   C961      1.0  0.24812000000000006  0.92385  0.006680000000000002  1.0000
  H   H620      1.0  0.2595700000000001  0.95114  0.99826  1.0000
  C   C962      1.0  0.1953400000000001  0.9062200000000002  0.48244  1.0000
  H   H621      1.0  0.20272000000000004  0.936  0.47762000000000004  1.0000
  C   C963      1.0  0.2540200000000001  0.90411  0.4706600000000001  1.0000
  C   C964      1.0  0.30058999999999997  0.93365  0.5122  1.0000
  C   C965      1.0  0.33127000000000006  0.9514400000000001  0.50011  1.0000
  C   C966      1.0  0.31690000000000007  0.93707  0.4468400000000001  1.0000
  C   C967      1.0  0.26976  0.9083  0.4051500000000001  1.0000
  C   C968      1.0  0.252  0.89458  0.34852  1.0000
  C   C969      1.0  0.23467000000000002  0.9124500000000001  0.27584  1.0000
  C   C970      1.0  0.2519  0.9257  0.32959  1.0000
  C   C971      1.0  0.3182  0.94386  0.5681  1.0000
  C   C972      1.0  0.34714  0.93  0.59379  1.0000
  C   C973      1.0  0.36878000000000005  0.94463  0.6484900000000001  1.0000
  C   C974      1.0  0.36068  0.97202  0.67749  1.0000
  C   C975      1.0  0.31037  0.97161  0.59746  1.0000
  H   H622      1.0  0.39155  0.93441  0.66832  1.0000
  H   H623      1.0  0.23631  0.93681  0.26168  1.0000
  H   H624      1.0  0.17515999999999993  0.94117  0.59025  1.0000
  C   C976      1.0  0.30812  0.91195  0.00879  1.0000
  C   C977      1.0  0.35404  0.93554  0.05236000000000001  1.0000
  C   C978      1.0  0.38774  0.94479  0.04327000000000001  1.0000
  H   H625      1.0  0.42307999999999996  0.9641400000000001  0.077  1.0000
  C   C979      1.0  0.37594000000000016  0.9295400000000001  0.9908600000000002  1.0000
  C   C980      1.0  0.36703  0.95078  0.10748  1.0000
  C   C981      1.0  0.37766  0.92649  0.13394  1.0000
  C   C982      1.0  0.38572999999999996  0.93839  0.18416  1.0000
  H   H626      1.0  0.39352  0.9194  0.20435000000000006  1.0000
  H   H627      1.0  0.2979200000000001  0.92817  0.8708900000000003  1.0000
  Zn  Zn44      1.0  0.43565000000000015  0.9209100000000003  0.9116600000000001  1.0000
  C   C983      1.0  0.4123400000000001  0.9422200000000003  0.98217  1.0000
  O   O133      1.0  0.40204  0.93646  0.93492  1.0000
  O   O134      1.0  0.45339999999999997  0.9532400000000001  0.019360000000000002  1.0000
  Zn  Zn45      1.0  0.37342  0.91897  0.36706  1.0000
  C   C984      1.0  0.35198000000000007  0.9472400000000001  0.43613  1.0000
  O   O135      1.0  0.34133  0.94023  0.38848000000000005  1.0000
  O   O136      1.0  0.3909800000000001  0.95331  0.4708000000000001  1.0000
  C   C985      1.0  0.56632  0.92449  0.3059  1.0000
  C   C986      1.0  0.58266  0.89825  0.32221000000000005  1.0000
  C   C987      1.0  0.62655  0.91887  0.36772  1.0000
  H   H628      1.0  0.53255  0.90847  0.27016  1.0000
  O   O137      1.0  0.55113  0.9485400000000002  0.87768  1.0000
  Zn  Zn46      1.0  0.52079  0.94348  0.002630000000000001  1.0000
  O   O138      1.0  0.4927300000000001  0.94348  0.9310600000000001  1.0000
  O   O139      1.0  0.54106  0.94934  0.0781  1.0000
  C   C988      1.0  0.5823299999999999  0.96679  0.92893  1.0000
  O   O140      1.0  0.4939399999999999  0.91307  0.35694  1.0000
  Zn  Zn47      1.0  0.45037000000000005  0.93276  0.4630400000000001  1.0000
  O   O141      1.0  0.43073000000000006  0.9321200000000001  0.39165  1.0000
  O   O142      1.0  0.4707700000000001  0.9434200000000003  0.53927  1.0000
  Zn  Zn48      1.0  0.47456  0.94594  0.32406  1.0000
  C   C989      1.0  0.5244300000000001  0.9339600000000002  0.4087400000000001  1.0000
  H   H629      1.0  0.4816000000000001  0.94241  0.62298  1.0000
  H   H630      1.0  0.53315  0.9367  0.1495  1.0000
  C   C990      1.0  0.5573500000000002  0.92039  0.4317900000000001  1.0000
  C   C991      1.0  0.6148500000000001  0.9520700000000001  0.9472800000000002  1.0000
  C   C992      1.0  0.74812  0.92385  0.006680000000000002  1.0000
  H   H631      1.0  0.7595700000000002  0.95114  0.99826  1.0000
  C   C993      1.0  0.6953400000000001  0.9062200000000002  0.48244  1.0000
  H   H632      1.0  0.7027200000000001  0.936  0.47762000000000004  1.0000
  C   C994      1.0  0.75402  0.90411  0.4706600000000001  1.0000
  C   C995      1.0  0.752  0.89458  0.34852  1.0000
  C   C996      1.0  0.73467  0.9124500000000001  0.27584  1.0000
  C   C997      1.0  0.62384  0.89803  0.46854  1.0000
  C   C998      1.0  0.63496  0.94223  0.4960700000000001  1.0000
  C   C999      1.0  0.60192  0.95331  0.47676  1.0000
  H   H633      1.0  0.6751599999999999  0.94117  0.59025  1.0000
  C   C1000     1.0  0.8081200000000001  0.91195  0.00879  1.0000
  H   H634      1.0  0.79792  0.92817  0.8708900000000003  1.0000
  C   C1001     1.0  0.67793  0.9253600000000001  0.9816000000000003  1.0000
  C   C1002     1.0  0.69142  0.9705300000000001  0.00938  1.0000
  Zn  Zn49      1.0  0.9356400000000004  0.9209100000000003  0.9116600000000001  1.0000
  C   C1003     1.0  0.9123400000000003  0.9422200000000003  0.98217  1.0000
  O   O143      1.0  0.90204  0.93646  0.93492  1.0000
  O   O144      1.0  0.9534  0.9532400000000001  0.019360000000000002  1.0000
  Zn  Zn50      1.0  0.87342  0.91897  0.36706  1.0000
  C   C1004     1.0  0.8519900000000001  0.9472400000000001  0.43613  1.0000
  O   O145      1.0  0.8413300000000001  0.94023  0.38848000000000005  1.0000
  O   O146      1.0  0.8909800000000001  0.95331  0.4708000000000001  1.0000
  C   C1005     1.0  0.80059  0.93365  0.5122  1.0000
  C   C1006     1.0  0.83127  0.9514400000000001  0.50011  1.0000
  C   C1007     1.0  0.8169000000000001  0.93707  0.4468400000000001  1.0000
  C   C1008     1.0  0.76976  0.9083  0.4051500000000001  1.0000
  C   C1009     1.0  0.7519  0.9257  0.32959  1.0000
  C   C1010     1.0  0.8182  0.94386  0.5681  1.0000
  C   C1011     1.0  0.84714  0.93  0.59379  1.0000
  C   C1012     1.0  0.8687800000000001  0.94463  0.6484900000000001  1.0000
  C   C1013     1.0  0.8606800000000001  0.97202  0.67749  1.0000
  C   C1014     1.0  0.81037  0.97161  0.59746  1.0000
  H   H635      1.0  0.89155  0.93441  0.66832  1.0000
  H   H636      1.0  0.73631  0.93681  0.26168  1.0000
  C   C1015     1.0  0.85404  0.93554  0.05236000000000001  1.0000
  C   C1016     1.0  0.88774  0.94479  0.04327000000000001  1.0000
  H   H637      1.0  0.92308  0.9641400000000001  0.077  1.0000
  C   C1017     1.0  0.8759400000000002  0.9295400000000001  0.9908600000000002  1.0000
  C   C1018     1.0  0.8670300000000001  0.95078  0.10748  1.0000
  C   C1019     1.0  0.87766  0.92649  0.13394  1.0000
  C   C1020     1.0  0.88574  0.93839  0.18416  1.0000
  H   H638      1.0  0.8935199999999999  0.9194  0.20435000000000006  1.0000
  Zn  Zn51      1.0  0.020790000000000017  0.94348  0.002630000000000001  1.0000
  O   O147      1.0  0.9927300000000002  0.94348  0.9310600000000001  1.0000
  Zn  Zn52      1.0  0.95037  0.93276  0.4630400000000001  1.0000
  O   O148      1.0  0.93074  0.9321200000000001  0.39165  1.0000
  H   H639      1.0  0.38958  0.98376  0.24695  1.0000
  C   C1021     1.0  0.25494  0.007760000000000004  0.10568  1.0000
  C   C1022     1.0  0.75494  0.007760000000000004  0.10568  1.0000
  H   H640      1.0  0.8895800000000001  0.98376  0.24695  1.0000
  C   C1023     1.0  0.09388999999999997  0.97144  0.33531  1.0000
  C   C1024     1.0  0.59389  0.97144  0.33531  1.0000
  H   H641      1.0  0.11391000000000018  0.9823400000000002  0.8472500000000002  1.0000
  H   H642      1.0  0.36696000000000006  0.9746900000000001  0.53234  1.0000
  H   H643      1.0  0.6139100000000002  0.9823400000000002  0.8472500000000002  1.0000
  H   H644      1.0  0.86696  0.9746900000000001  0.53234  1.0000
  Zn  Zn53      1.0  0.97612  0.9930600000000002  0.42039000000000004  1.0000
  Zn  Zn54      1.0  0.47612  0.9930600000000002  0.42039000000000004  1.0000
  H   H645      1.0  0.11092000000000006  0.98754  0.49707  1.0000
  H   H646      1.0  0.61092  0.98754  0.49707  1.0000
  C   C1025     1.0  0.19614000000000006  0.9711699999999999  0.59144  1.0000
  C   C1026     1.0  0.69614  0.9711699999999999  0.59144  1.0000
  C   C1027     1.0  0.15363999999999997  0.96575  0.39816000000000007  1.0000
  H   H647      1.0  0.18796000000000002  0.98154  0.4327700000000001  1.0000
  O   O149      1.0  0.08695000000000001  0.0005300000000000307  0.96357  1.0000
  Zn  Zn55      1.0  0.015190000000000072  0.9729400000000001  0.8528300000000001  1.0000
  O   O150      1.0  0.99601  0.96716  0.28365  1.0000
  O   O151      1.0  0.03102999999999988  0.9716999999999999  0.43884  1.0000
  C   C1028     1.0  0.15968000000000016  0.9834100000000002  0.9923300000000003  1.0000
  C   C1029     1.0  0.046770000000000034  0.9799900000000001  0.11781000000000003  1.0000
  H   H648      1.0  0.9922800000000003  0.9678100000000001  0.70817  1.0000
  C   C1030     1.0  0.025460000000000045  0.9858500000000001  0.21992  1.0000
  C   C1031     1.0  0.04322000000000001  0.97045  0.15452  1.0000
  H   H649      1.0  0.018890000000000014  0.95433  0.22059  1.0000
  C   C1032     1.0  0.9816299999999999  0.97179  0.62027  1.0000
  O   O152      1.0  0.9974  0.98375  0.79176  1.0000
  C   C1033     1.0  0.9893900000000001  0.99588  0.70471  1.0000
  H   H650      1.0  0.19356  0.9726600000000001  0.84568  1.0000
  H   H651      1.0  0.16289999999999996  0.98212  0.1871  1.0000
  H   H652      1.0  0.17244999999999996  0.9808999999999999  0.26908  1.0000
  C   C1034     1.0  0.25809000000000004  0.9885500000000002  0.90921  1.0000
  C   C1035     1.0  0.22959000000000004  0.9896800000000001  0.8639800000000002  1.0000
  H   H653      1.0  0.24407000000000012  0.97052  0.9257200000000002  1.0000
  C   C1036     1.0  0.33131  0.9852799999999999  0.6519600000000001  1.0000
  H   H654      1.0  0.3772  0.983  0.7197700000000001  1.0000
  H   H655      1.0  0.28888  0.9832999999999998  0.57837  1.0000
  H   H656      1.0  0.26659999999999995  0.96034  0.35689000000000004  1.0000
  C   C1037     1.0  0.18057000000000004  0.9768000000000001  0.54583  1.0000
  C   C1038     1.0  0.3836300000000001  0.9747300000000001  0.20826000000000003  1.0000
  C   C1039     1.0  0.3656  0.98762  0.13215  1.0000
  C   C1040     1.0  0.2388  0.004929999999999998  0.05518  1.0000
  H   H657      1.0  0.23343  0.98339  0.11078000000000002  1.0000
  O   O153      1.0  0.49740000000000006  0.98375  0.79176  1.0000
  O   O154      1.0  0.50084  0.0054100000000000675  0.8896800000000002  1.0000
  O   O155      1.0  0.58696  0.0005300000000000307  0.96357  1.0000
  C   C1041     1.0  0.54677  0.9799900000000001  0.11781000000000003  1.0000
  Zn  Zn56      1.0  0.51519  0.9729400000000001  0.8528300000000001  1.0000
  H   H658      1.0  0.4681600000000002  0.99451  0.8692500000000002  1.0000
  O   O156      1.0  0.49601000000000006  0.96716  0.28365  1.0000
  O   O157      1.0  0.4639900000000001  0.9893000000000001  0.35346000000000005  1.0000
  O   O158      1.0  0.5310299999999999  0.9716999999999999  0.43884  1.0000
  C   C1042     1.0  0.47702  0.9760200000000001  0.57761  1.0000
  H   H659      1.0  0.43325  0.98285  0.32901  1.0000
  C   C1043     1.0  0.48939000000000005  0.99588  0.70471  1.0000
  C   C1044     1.0  0.48163  0.97179  0.62027  1.0000
  H   H660      1.0  0.4922800000000001  0.9678100000000001  0.70817  1.0000
  C   C1045     1.0  0.5254600000000001  0.9858500000000001  0.21992  1.0000
  C   C1046     1.0  0.54322  0.97045  0.15452  1.0000
  H   H661      1.0  0.51889  0.95433  0.22059  1.0000
  H   H662      1.0  0.6629  0.98212  0.1871  1.0000
  H   H663      1.0  0.67245  0.9808999999999999  0.26908  1.0000
  C   C1047     1.0  0.65364  0.96575  0.39816000000000007  1.0000
  H   H664      1.0  0.68796  0.98154  0.4327700000000001  1.0000
  C   C1048     1.0  0.7580900000000002  0.9885500000000002  0.90921  1.0000
  C   C1049     1.0  0.72959  0.9896800000000001  0.8639800000000002  1.0000
  H   H665      1.0  0.7440700000000001  0.97052  0.9257200000000002  1.0000
  H   H666      1.0  0.69356  0.9726600000000001  0.84568  1.0000
  H   H667      1.0  0.7888799999999999  0.9832999999999998  0.57837  1.0000
  C   C1050     1.0  0.6805700000000001  0.9768000000000001  0.54583  1.0000
  C   C1051     1.0  0.65968  0.9834100000000002  0.9923300000000003  1.0000
  C   C1052     1.0  0.73879  0.004929999999999998  0.05518  1.0000
  H   H668      1.0  0.73343  0.98339  0.11078000000000002  1.0000
  C   C1053     1.0  0.83131  0.9852799999999999  0.6519600000000001  1.0000
  H   H669      1.0  0.8772000000000001  0.983  0.7197700000000001  1.0000
  H   H670      1.0  0.7665999999999998  0.96034  0.35689000000000004  1.0000
  C   C1054     1.0  0.88363  0.9747300000000001  0.20826000000000003  1.0000
  C   C1055     1.0  0.8656  0.98762  0.13215  1.0000
  O   O159      1.0  0.0008400000000000965  0.0054100000000000675  0.8896800000000002  1.0000
  O   O160      1.0  0.9639899999999999  0.9893000000000001  0.35346000000000005  1.0000
  H   H671      1.0  0.9681600000000001  0.99451  0.8692500000000002  1.0000
  C   C1056     1.0  0.9770200000000004  0.9760200000000001  0.57761  1.0000
  H   H672      1.0  0.9332499999999998  0.98285  0.32901  1.0000
