data_image0
_chemical_formula_structural       NiONiO3NiO7NiH2COC5O2NiONiO3NiO7NiH2COC5O2C3HC3HC12H10C3HC3HC12H10C3HC3HC12H10C3HC3HC12H10C3HC3HC12H10C3HC3HC12H10NiONiO3NiO7NiH2COC5O2NiONiO3NiO7NiH2COC5O2C3HC3HC12H10C3HC3HC12H10C3HC3HC12H10C3HC3HC12H10C3HC3HC12H10C3HC3HC12H10NiONiO3NiO7NiH2COC5O2NiONiO3NiO7NiH2COC5O2C3HC3HC12H10C3HC3HC12H10C3HC3HC12H10C3HC3HC12H10C3HC3HC12H10C3HC3HC12H10NiONiO3NiO7NiH2COC5O2NiONiO3NiO7NiH2COC5O2C3HC3HC12H10C3HC3HC12H10C3HC3HC12H10C3HC3HC12H10C3HC3HC12H10C3HC3HC12H10
_chemical_formula_sum              "Ni32 O112 H304 C480"
_cell_length_a       29.65029
_cell_length_b       32.47885
_cell_length_c       15.76186
_cell_angle_alpha    98.67458
_cell_angle_beta     81.40732
_cell_angle_gamma    113.94386999999999

_space_group_name_H-M_alt    "P 1"
_space_group_IT_number       1

loop_
  _space_group_symop_operation_xyz
  'x, y, z'

loop_
  _atom_site_type_symbol
  _atom_site_label
  _atom_site_symmetry_multiplicity
  _atom_site_fract_x
  _atom_site_fract_y
  _atom_site_fract_z
  _atom_site_occupancy
  Ni  Ni1       1.0  0.18961  0.32347  0.82778  1.0000
  O   O1        1.0  0.20343999999999998  0.36681  0.73869  1.0000
  Ni  Ni2       1.0  0.17063999999999993  0.32359  0.64242  1.0000
  O   O2        1.0  0.2165  0.37808  0.91583  1.0000
  O   O3        1.0  0.28768999999999995  0.4124  0.82718  1.0000
  O   O4        1.0  0.11827  0.32003  0.85137  1.0000
  Ni  Ni3       1.0  0.27109000000000005  0.40482000000000007  0.69917  1.0000
  O   O5        1.0  0.16694  0.21467  0.82734  1.0000
  O   O6        1.0  0.29317  0.3510600000000001  0.6508  1.0000
  O   O7        1.0  0.17112  0.37095  0.57027  1.0000
  O   O8        1.0  0.17698  0.28085  0.7194199999999997  1.0000
  O   O9        1.0  0.17373  0.27942  0.91741  1.0000
  O   O10       1.0  0.12791  0.27  0.5655599999999997  1.0000
  O   O11       1.0  0.07288000000000003  0.23091000000000003  0.6729599999999998  1.0000
  Ni  Ni4       1.0  0.12374999999999996  0.22362999999999997  0.74488  1.0000
  H   H1        1.0  0.22739999999999994  0.3535  0.7405  1.0000
  H   H2        1.0  0.20702  0.27443  0.70331  1.0000
  C   C1        1.0  0.2681799999999999  0.32025  0.5908  1.0000
  O   O12       1.0  0.08857999999999999  0.24368  0.85268  1.0000
  C   C2        1.0  0.2549399999999999  0.41493  0.89355  1.0000
  C   C3        1.0  0.21220999999999998  0.40838  0.56478  1.0000
  C   C4        1.0  0.08068  0.28096  0.86214  1.0000
  C   C5        1.0  0.08256  0.24543  0.59492  1.0000
  C   C6        1.0  0.18283  0.24264  0.8982099999999997  1.0000
  O   O13       1.0  0.23101999999999995  0.32385  0.56282  1.0000
  O   O14       1.0  0.25502  0.40867  0.58019  1.0000
  Ni  Ni5       1.0  0.34119  0.15716  0.36861  1.0000
  O   O15       1.0  0.3622299999999999  0.19964  0.27922999999999987  1.0000
  Ni  Ni6       1.0  0.32765  0.16587  0.17762999999999995  1.0000
  O   O16       1.0  0.3798400000000002  0.20939  0.45456999999999986  1.0000
  O   O17       1.0  0.42156  0.27268  0.37804  1.0000
  O   O18       1.0  0.28409999999999996  0.17526  0.41499  1.0000
  Ni  Ni7       1.0  0.36832999999999994  0.26016  0.2909099999999999  1.0000
  O   O19       1.0  0.23661999999999994  0.08965999999999999  0.41269  1.0000
  O   O20       1.0  0.41818  0.26594  0.18111  1.0000
  O   O21       1.0  0.3324899999999999  0.21239  0.10182  1.0000
  O   O22       1.0  0.3158099999999998  0.11797000000000002  0.25961  1.0000
  O   O23       1.0  0.31391  0.10996  0.45437  1.0000
  O   O24       1.0  0.3039399999999999  0.11818  0.07682  1.0000
  O   O25       1.0  0.22955999999999993  0.0842  0.15342999999999996  1.0000
  Ni  Ni8       1.0  0.24238  0.09381  0.28325  1.0000
  H   H3        1.0  0.3968  0.20204  0.2735299999999999  1.0000
  H   H4        1.0  0.3299699999999999  0.09514  0.23771999999999993  1.0000
  C   C7        1.0  0.42940000000000006  0.23343  0.12982  1.0000
  O   O26       1.0  0.23832999999999993  0.15701  0.30252  1.0000
  C   C8        1.0  0.42134  0.24287  0.42892999999999987  1.0000
  C   C9        1.0  0.3127  0.24096  0.13342999999999994  1.0000
  C   C10       1.0  0.26009999999999994  0.18652  0.36642  1.0000
  C   C11       1.0  0.26343999999999995  0.08217  0.09025  1.0000
  C   C12       1.0  0.2680399999999999  0.08013  0.44881  1.0000
  O   O27       1.0  0.40127  0.18862  0.13156  1.0000
  O   O28       1.0  0.3130799999999999  0.25478  0.21708  1.0000
  C   C13       1.0  0.9674399999999999  0.2482  0.057899999999999986  1.0000
  C   C14       1.0  0.010299999999999972  0.28841999999999995  0.06857  1.0000
  C   C15       1.0  0.04174000000000002  0.30617  0.9958599999999997  1.0000
  H   H5        1.0  0.07515999999999998  0.33651  0.004259999999999998  1.0000
  C   C16       1.0  0.035780000000000006  0.28031  0.9156399999999999  1.0000
  C   C17       1.0  0.9907699999999998  0.24222  0.90407  1.0000
  C   C18       1.0  0.9566399999999998  0.22722  0.9751899999999998  1.0000
  H   H6        1.0  0.92216  0.19812  0.9663199999999997  1.0000
  C   C19       1.0  0.9822299999999998  0.21369  0.8207599999999998  1.0000
  C   C20       1.0  0.9631599999999998  0.22544  0.7562199999999998  1.0000
  C   C21       1.0  0.9442499999999998  0.19386  0.68626  1.0000
  C   C22       1.0  0.9460599999999998  0.15116000000000002  0.67874  1.0000
  C   C23       1.0  0.9667399999999998  0.13984999999999997  0.7411399999999998  1.0000
  C   C24       1.0  0.9844200000000001  0.1708  0.8124  1.0000
  C   C25       1.0  0.02530999999999996  0.30947  0.15563999999999995  1.0000
  C   C26       1.0  0.0344  0.35538  0.17956999999999995  1.0000
  C   C27       1.0  0.05409000000000004  0.37655000000000005  0.25751999999999997  1.0000
  C   C28       1.0  0.06468999999999997  0.35206  0.31188  1.0000
  C   C29       1.0  0.05454  0.3061  0.2894499999999999  1.0000
  C   C30       1.0  0.03461  0.28468  0.21184  1.0000
  H   H7        1.0  0.061749999999999965  0.41209  0.27524  1.0000
  H   H8        1.0  0.08103999999999997  0.36876  0.37117  1.0000
  H   H9        1.0  0.06307  0.28732  0.3313399999999999  1.0000
  H   H10       1.0  0.027820000000000004  0.24932  0.19413  1.0000
  H   H11       1.0  0.027139999999999994  0.3748  0.13705999999999993  1.0000
  H   H12       1.0  0.9614499999999998  0.25833  0.7617  1.0000
  H   H13       1.0  0.92817  0.20246  0.6378799999999998  1.0000
  H   H14       1.0  0.9985399999999998  0.16108999999999998  0.8623199999999998  1.0000
  H   H15       1.0  0.9682299999999998  0.10678000000000001  0.73515  1.0000
  H   H16       1.0  0.93142  0.12683999999999998  0.6245299999999998  1.0000
  C   C31       1.0  0.041590000000000016  0.24497  0.5513299999999998  1.0000
  C   C32       1.0  0.026690000000000012  0.21584  0.47566999999999987  1.0000
  C   C33       1.0  0.98942  0.21763  0.4326099999999999  1.0000
  H   H17       1.0  0.9768  0.19412  0.37615  1.0000
  C   C34       1.0  0.9676099999999997  0.24891  0.46296  1.0000
  C   C35       1.0  0.9845799999999998  0.27981  0.5357899999999998  1.0000
  C   C36       1.0  0.021940000000000005  0.27806  0.57875  1.0000
  H   H18       1.0  0.035130000000000015  0.30199  0.6344299999999998  1.0000
  C   C37       1.0  0.9622299999999998  0.31296000000000007  0.56939  1.0000
  C   C38       1.0  0.9250599999999998  0.30381  0.63877  1.0000
  C   C39       1.0  0.9034300000000001  0.3349300000000001  0.6696199999999998  1.0000
  C   C40       1.0  0.9190099999999998  0.37536  0.63181  1.0000
  C   C41       1.0  0.9562499999999998  0.38473  0.56305  1.0000
  C   C42       1.0  0.9779099999999996  0.35365  0.53187  1.0000
  C   C43       1.0  0.05136999999999998  0.18474  0.43917  1.0000
  C   C44       1.0  0.042680000000000023  0.14639000000000002  0.4802799999999999  1.0000
  C   C45       1.0  0.06909999999999997  0.11908  0.4496  1.0000
  C   C46       1.0  0.10408  0.1298  0.3777199999999999  1.0000
  C   C47       1.0  0.11240999999999997  0.16763  0.33597  1.0000
  C   C48       1.0  0.08585  0.1949  0.3661  1.0000
  H   H19       1.0  0.06278  0.08983000000000001  0.48198999999999986  1.0000
  H   H20       1.0  0.12498  0.10898000000000001  0.35476999999999986  1.0000
  H   H21       1.0  0.13999999999999999  0.17622999999999997  0.28111999999999987  1.0000
  H   H22       1.0  0.09294999999999999  0.22449  0.33408  1.0000
  H   H23       1.0  0.01621  0.13826  0.5367  1.0000
  H   H24       1.0  0.91231  0.27235  0.66762  1.0000
  H   H25       1.0  0.8744099999999998  0.32759  0.7225499999999998  1.0000
  H   H26       1.0  0.006750000000000021  0.36113  0.47873  1.0000
  H   H27       1.0  0.96833  0.41608  0.53394  1.0000
  H   H28       1.0  0.9022099999999997  0.39941  0.65574  1.0000
  C   C49       1.0  0.21388  0.4455800000000001  0.52082  1.0000
  C   C50       1.0  0.19379000000000005  0.4764  0.56479  1.0000
  C   C51       1.0  0.21273  0.5209  0.54209  1.0000
  H   H29       1.0  0.19719999999999993  0.54461  0.5756  1.0000
  C   C52       1.0  0.2523299999999999  0.53514  0.4775599999999999  1.0000
  C   C53       1.0  0.27071  0.50363  0.43115  1.0000
  C   C54       1.0  0.2498499999999999  0.45879999999999993  0.4506799999999999  1.0000
  H   H30       1.0  0.26663999999999993  0.43577  0.41921999999999987  1.0000
  C   C55       1.0  0.3130099999999999  0.51744  0.3637399999999999  1.0000
  C   C56       1.0  0.36108999999999997  0.54416  0.3868399999999999  1.0000
  C   C57       1.0  0.4012099999999999  0.556  0.3232599999999999  1.0000
  C   C58       1.0  0.3937699999999999  0.54006  0.23686999999999994  1.0000
  C   C59       1.0  0.34623  0.51215  0.21394  1.0000
  C   C60       1.0  0.3058999999999999  0.50066  0.2771899999999999  1.0000
  C   C61       1.0  0.15695999999999996  0.46374  0.64071  1.0000
  C   C62       1.0  0.17166000000000003  0.47997000000000006  0.72415  1.0000
  C   C63       1.0  0.13832999999999995  0.46415999999999996  0.7961099999999998  1.0000
  C   C64       1.0  0.09020000000000003  0.43235  0.78515  1.0000
  C   C65       1.0  0.07517  0.41657  0.70222  1.0000
  C   C66       1.0  0.10836999999999995  0.4323  0.6300199999999998  1.0000
  H   H31       1.0  0.14996  0.47621  0.86033  1.0000
  H   H32       1.0  0.06458  0.41986  0.84089  1.0000
  H   H33       1.0  0.037960000000000015  0.39184  0.6938899999999998  1.0000
  H   H34       1.0  0.09677000000000002  0.41931  0.56593  1.0000
  H   H35       1.0  0.20916999999999994  0.504  0.7330999999999998  1.0000
  H   H36       1.0  0.36728999999999995  0.5557900000000001  0.45387  1.0000
  H   H37       1.0  0.43808999999999987  0.57734  0.3409999999999999  1.0000
  H   H38       1.0  0.26932  0.47845  0.25924  1.0000
  H   H39       1.0  0.34061  0.49972  0.14711  1.0000
  H   H40       1.0  0.42486000000000007  0.5492600000000001  0.18773  1.0000
  C   C67       1.0  0.25766  0.53874  0.03863  1.0000
  C   C68       1.0  0.26952  0.53685  0.9482999999999999  1.0000
  C   C69       1.0  0.2722899999999999  0.49727  0.9021099999999997  1.0000
  H   H41       1.0  0.28049  0.49568  0.83257  1.0000
  C   C70       1.0  0.26157  0.45890999999999993  0.9448199999999998  1.0000
  C   C71       1.0  0.24858999999999995  0.46075  0.03527  1.0000
  C   C72       1.0  0.24617  0.50036  0.08099999999999997  1.0000
  H   H42       1.0  0.23613000000000003  0.50152  0.15006999999999995  1.0000
  C   C73       1.0  0.23466999999999993  0.42034  0.08124999999999998  1.0000
  C   C74       1.0  0.26954  0.4014  0.082  1.0000
  C   C75       1.0  0.25356  0.3560300000000001  0.09605999999999998  1.0000
  C   C76       1.0  0.20315  0.3301  0.11395999999999998  1.0000
  C   C77       1.0  0.16867999999999994  0.34981  0.12025  1.0000
  C   C78       1.0  0.18436  0.39509  0.10536  1.0000
  C   C79       1.0  0.27742  0.57585  0.9020199999999998  1.0000
  C   C80       1.0  0.32588  0.6048800000000002  0.87529  1.0000
  C   C81       1.0  0.3352099999999999  0.64834  0.8557799999999998  1.0000
  C   C82       1.0  0.29634  0.66276  0.86181  1.0000
  C   C83       1.0  0.24773999999999993  0.6331099999999998  0.8836199999999997  1.0000
  C   C84       1.0  0.23805999999999988  0.5894  0.90196  1.0000
  H   H43       1.0  0.37261  0.67117  0.8378799999999997  1.0000
  H   H44       1.0  0.3035699999999999  0.69619  0.8458599999999997  1.0000
  H   H45       1.0  0.2175800000000001  0.6438400000000002  0.8852899999999998  1.0000
  H   H46       1.0  0.20038999999999998  0.56703  0.9212299999999998  1.0000
  H   H47       1.0  0.35657  0.5948  0.8747999999999998  1.0000
  H   H48       1.0  0.30856  0.42079  0.06509  1.0000
  H   H49       1.0  0.2802599999999999  0.34127  0.0949  1.0000
  H   H50       1.0  0.15708999999999998  0.40944  0.10578  1.0000
  H   H51       1.0  0.12977999999999995  0.32969  0.13424999999999995  1.0000
  H   H52       1.0  0.19107  0.29528  0.12625  1.0000
  C   C85       1.0  0.21599999999999994  0.23587  0.95178  1.0000
  C   C86       1.0  0.19622999999999993  0.2147  0.028949999999999993  1.0000
  C   C87       1.0  0.2278199999999999  0.22051  0.09253  1.0000
  H   H53       1.0  0.21281999999999998  0.20288  0.15002999999999994  1.0000
  C   C88       1.0  0.2789199999999999  0.24717  0.08062999999999997  1.0000
  C   C89       1.0  0.29863  0.26872  0.0039  1.0000
  C   C90       1.0  0.26713  0.26251  0.94001  1.0000
  H   H54       1.0  0.282  0.28057  0.883  1.0000
  C   C91       1.0  0.3522699999999999  0.29901  0.9910299999999997  1.0000
  C   C92       1.0  0.3752799999999999  0.33171  0.057669999999999985  1.0000
  C   C93       1.0  0.42595999999999995  0.35862  0.04684  1.0000
  C   C94       1.0  0.45371  0.35439  0.9687399999999998  1.0000
  C   C95       1.0  0.4308799999999999  0.32326  0.9011899999999998  1.0000
  C   C96       1.0  0.38054  0.29508  0.9124299999999997  1.0000
  C   C97       1.0  0.14212  0.18772  0.04532  1.0000
  C   C98       1.0  0.11509  0.19851000000000005  0.12022  1.0000
  C   C99       1.0  0.06408  0.17345  0.13486  1.0000
  C   C100      1.0  0.03966000000000001  0.13795000000000002  0.07468999999999998  1.0000
  C   C101      1.0  0.06633  0.1268  0.0004799999999999999  1.0000
  C   C102      1.0  0.11748  0.15119000000000005  0.98615  1.0000
  H   H55       1.0  0.04355  0.1813  0.19324  1.0000
  H   H56       1.0  0.0001100000000000001  0.11885  0.08588  1.0000
  H   H57       1.0  0.04738000000000001  0.09914000000000002  0.9541299999999998  1.0000
  H   H58       1.0  0.13776999999999995  0.14201  0.9288199999999998  1.0000
  H   H59       1.0  0.13359999999999997  0.22581  0.1675  1.0000
  H   H60       1.0  0.35414999999999996  0.33577  0.11823999999999997  1.0000
  H   H61       1.0  0.44368  0.38295  0.09895999999999998  1.0000
  H   H62       1.0  0.36357  0.27062  0.85997  1.0000
  H   H63       1.0  0.45210999999999996  0.32131  0.8398199999999998  1.0000
  H   H64       1.0  0.49288  0.37548  0.9603599999999998  1.0000
  C   C103      1.0  0.28277999999999986  0.28358  0.54786  1.0000
  C   C104      1.0  0.24678999999999995  0.23917  0.55845  1.0000
  C   C105      1.0  0.21867999999999996  0.21550999999999998  0.4884599999999999  1.0000
  H   H65       1.0  0.18732999999999994  0.18379  0.4978299999999999  1.0000
  C   C106      1.0  0.24295  0.22249  0.40541  1.0000
  C   C107      1.0  0.27603  0.26772  0.39530999999999994  1.0000
  C   C108      1.0  0.30570999999999987  0.29061  0.4637  1.0000
  H   H66       1.0  0.33716  0.32216  0.45346  1.0000
  C   C109      1.0  0.26071  0.29578  0.34863  1.0000
  C   C110      1.0  0.21062  0.29036  0.35731  1.0000
  C   C111      1.0  0.19773  0.32375  0.33434999999999987  1.0000
  C   C112      1.0  0.23439  0.36273000000000005  0.3027399999999999  1.0000
  C   C113      1.0  0.2838999999999998  0.36767  0.2905999999999999  1.0000
  C   C114      1.0  0.2970699999999999  0.33419  0.31244  1.0000
  C   C115      1.0  0.25250999999999996  0.21212  0.6206199999999997  1.0000
  C   C116      1.0  0.20994000000000002  0.17861  0.65794  1.0000
  C   C117      1.0  0.21296999999999996  0.14069  0.6843399999999997  1.0000
  C   C118      1.0  0.25851  0.13649  0.6754899999999998  1.0000
  C   C119      1.0  0.3016999999999999  0.17194  0.6474299999999998  1.0000
  C   C120      1.0  0.29892  0.21010000000000006  0.6216099999999998  1.0000
  H   H67       1.0  0.17975  0.1139  0.70915  1.0000
  H   H68       1.0  0.2605  0.10619999999999999  0.6923199999999998  1.0000
  H   H69       1.0  0.33714999999999995  0.16925  0.64322  1.0000
  H   H70       1.0  0.3322099999999999  0.23600000000000004  0.59492  1.0000
  H   H71       1.0  0.17394999999999994  0.17999999999999997  0.65921  1.0000
  H   H72       1.0  0.18221  0.26197  0.3873799999999999  1.0000
  H   H73       1.0  0.15937000000000007  0.31990000000000013  0.34316999999999986  1.0000
  H   H74       1.0  0.33574999999999994  0.33899  0.30493  1.0000
  H   H75       1.0  0.31217  0.3977100000000001  0.26494  1.0000
  H   H76       1.0  0.22437999999999994  0.38896  0.2866199999999999  1.0000
  Ni  Ni9       1.0  0.18961000000000008  0.8234700000000003  0.82778  1.0000
  O   O29       1.0  0.20344000000000004  0.8668100000000001  0.73869  1.0000
  Ni  Ni10      1.0  0.17063999999999988  0.82359  0.64242  1.0000
  O   O30       1.0  0.21650000000000005  0.8780800000000001  0.91583  1.0000
  O   O31       1.0  0.2876899999999999  0.9124  0.82718  1.0000
  O   O32       1.0  0.11827  0.82003  0.85137  1.0000
  Ni  Ni11      1.0  0.27109000000000005  0.9048200000000001  0.69917  1.0000
  O   O33       1.0  0.16694  0.71467  0.82734  1.0000
  O   O34       1.0  0.29316999999999993  0.85106  0.6508  1.0000
  O   O35       1.0  0.17112  0.87096  0.57027  1.0000
  O   O36       1.0  0.17697999999999994  0.78085  0.7194199999999997  1.0000
  O   O37       1.0  0.17373  0.77942  0.91741  1.0000
  O   O38       1.0  0.12791000000000002  0.77  0.5655599999999997  1.0000
  O   O39       1.0  0.07288000000000001  0.73091  0.6729599999999998  1.0000
  Ni  Ni12      1.0  0.12374999999999993  0.72363  0.74488  1.0000
  H   H77       1.0  0.2273999999999999  0.8535  0.7405  1.0000
  H   H78       1.0  0.20702000000000012  0.7744300000000002  0.70331  1.0000
  C   C121      1.0  0.2681799999999999  0.82025  0.5908  1.0000
  O   O40       1.0  0.08858000000000012  0.74368  0.85268  1.0000
  C   C122      1.0  0.25494  0.91493  0.89355  1.0000
  C   C123      1.0  0.21220000000000003  0.9083800000000002  0.56478  1.0000
  C   C124      1.0  0.08068000000000002  0.7809600000000001  0.86214  1.0000
  C   C125      1.0  0.08256000000000005  0.74543  0.59492  1.0000
  C   C126      1.0  0.18282999999999994  0.7426399999999999  0.8982099999999997  1.0000
  O   O41       1.0  0.2310199999999999  0.82385  0.56282  1.0000
  O   O42       1.0  0.2550200000000001  0.9086700000000002  0.58019  1.0000
  Ni  Ni13      1.0  0.34119  0.65716  0.36861  1.0000
  O   O43       1.0  0.3622299999999999  0.69964  0.27922999999999987  1.0000
  Ni  Ni14      1.0  0.32766000000000006  0.6658700000000002  0.17762999999999995  1.0000
  O   O44       1.0  0.37984  0.70939  0.45456999999999986  1.0000
  O   O45       1.0  0.42156  0.77268  0.37804  1.0000
  O   O46       1.0  0.28409999999999996  0.67526  0.41499  1.0000
  Ni  Ni15      1.0  0.36833  0.7601600000000002  0.2909099999999999  1.0000
  O   O47       1.0  0.23661999999999994  0.58966  0.41269  1.0000
  O   O48       1.0  0.4181800000000001  0.7659400000000002  0.18111  1.0000
  O   O49       1.0  0.33248999999999995  0.7124000000000001  0.10182  1.0000
  O   O50       1.0  0.3158099999999999  0.61797  0.25961  1.0000
  O   O51       1.0  0.31391000000000013  0.6099600000000002  0.45437  1.0000
  O   O52       1.0  0.3039399999999999  0.61819  0.07682  1.0000
  O   O53       1.0  0.22955999999999993  0.5842  0.15342999999999996  1.0000
  Ni  Ni16      1.0  0.24238  0.59381  0.28325  1.0000
  H   H79       1.0  0.3968  0.70204  0.2735299999999999  1.0000
  H   H80       1.0  0.3299699999999999  0.59514  0.23771999999999993  1.0000
  C   C127      1.0  0.4294  0.73343  0.12982  1.0000
  O   O54       1.0  0.23832999999999988  0.65701  0.30252  1.0000
  C   C128      1.0  0.42134  0.7428700000000001  0.42892999999999987  1.0000
  C   C129      1.0  0.31270000000000003  0.7409600000000002  0.13342999999999994  1.0000
  C   C130      1.0  0.26009999999999994  0.68652  0.36642  1.0000
  C   C131      1.0  0.26343999999999995  0.58217  0.09025  1.0000
  C   C132      1.0  0.26803999999999994  0.58013  0.44881  1.0000
  O   O55       1.0  0.4012699999999999  0.68862  0.13156  1.0000
  O   O56       1.0  0.3130799999999999  0.75478  0.21708  1.0000
  C   C133      1.0  0.96744  0.7482  0.057899999999999986  1.0000
  C   C134      1.0  0.010299999999999972  0.78842  0.06857  1.0000
  C   C135      1.0  0.04173999999999999  0.80617  0.9958599999999997  1.0000
  H   H81       1.0  0.07515999999999994  0.83651  0.004259999999999998  1.0000
  C   C136      1.0  0.035780000000000006  0.7803  0.9156399999999999  1.0000
  C   C137      1.0  0.9907699999999996  0.74222  0.90407  1.0000
  C   C138      1.0  0.9566399999999996  0.7272199999999998  0.9751899999999998  1.0000
  H   H82       1.0  0.9221599999999996  0.6981199999999997  0.9663199999999997  1.0000
  C   C139      1.0  0.9822299999999997  0.7136899999999998  0.8207599999999998  1.0000
  C   C140      1.0  0.9631599999999998  0.72544  0.7562199999999998  1.0000
  C   C141      1.0  0.9442499999999996  0.69386  0.68626  1.0000
  C   C142      1.0  0.9460599999999998  0.65116  0.67874  1.0000
  C   C143      1.0  0.9667399999999998  0.6398500000000001  0.7411399999999998  1.0000
  C   C144      1.0  0.9844199999999999  0.6708  0.8124  1.0000
  C   C145      1.0  0.025310000000000082  0.8094700000000002  0.15563999999999995  1.0000
  C   C146      1.0  0.034400000000000076  0.85538  0.17956999999999995  1.0000
  C   C147      1.0  0.05408999999999995  0.87655  0.25751999999999997  1.0000
  C   C148      1.0  0.06468999999999996  0.85206  0.31188  1.0000
  C   C149      1.0  0.054539999999999964  0.8061  0.2894499999999999  1.0000
  C   C150      1.0  0.03461000000000008  0.7846800000000003  0.21184  1.0000
  H   H83       1.0  0.06174999999999986  0.9120899999999998  0.27524  1.0000
  H   H84       1.0  0.08104  0.86877  0.37117  1.0000
  H   H85       1.0  0.06307000000000007  0.7873200000000001  0.3313399999999999  1.0000
  H   H86       1.0  0.027820000000000004  0.74932  0.19413  1.0000
  H   H87       1.0  0.027139999999999963  0.8748  0.13705999999999993  1.0000
  H   H88       1.0  0.9614499999999998  0.75833  0.7617  1.0000
  H   H89       1.0  0.9281700000000002  0.7024600000000002  0.6378799999999998  1.0000
  H   H90       1.0  0.99854  0.66109  0.8623199999999998  1.0000
  H   H91       1.0  0.9682299999999998  0.60678  0.73515  1.0000
  H   H92       1.0  0.93142  0.6268400000000001  0.6245299999999998  1.0000
  C   C151      1.0  0.04159000000000001  0.74497  0.5513299999999998  1.0000
  C   C152      1.0  0.026690000000000012  0.71584  0.47566999999999987  1.0000
  C   C153      1.0  0.98942  0.71762  0.4326099999999999  1.0000
  H   H93       1.0  0.9768  0.69412  0.37615  1.0000
  C   C154      1.0  0.9676099999999997  0.74891  0.46296  1.0000
  C   C155      1.0  0.9845799999999998  0.77981  0.5357899999999998  1.0000
  C   C156      1.0  0.021940000000000005  0.77806  0.57875  1.0000
  H   H94       1.0  0.03512999999999991  0.8019899999999998  0.6344299999999998  1.0000
  C   C157      1.0  0.9622299999999998  0.81296  0.56939  1.0000
  C   C158      1.0  0.9250599999999998  0.8038100000000002  0.63877  1.0000
  C   C159      1.0  0.90343  0.83493  0.6696199999999998  1.0000
  C   C160      1.0  0.9190099999999998  0.87536  0.63181  1.0000
  C   C161      1.0  0.9562499999999998  0.8847300000000001  0.56305  1.0000
  C   C162      1.0  0.9779099999999997  0.85365  0.53187  1.0000
  C   C163      1.0  0.05137  0.68474  0.43917  1.0000
  C   C164      1.0  0.04267999999999995  0.64639  0.4802799999999999  1.0000
  C   C165      1.0  0.0691  0.61908  0.4496  1.0000
  C   C166      1.0  0.10407999999999996  0.6298  0.3777199999999999  1.0000
  C   C167      1.0  0.11240999999999995  0.66763  0.33597  1.0000
  C   C168      1.0  0.08584999999999994  0.6949  0.3661  1.0000
  H   H95       1.0  0.06278  0.58983  0.48198999999999986  1.0000
  H   H96       1.0  0.12498  0.60898  0.35476999999999986  1.0000
  H   H97       1.0  0.1399999999999999  0.67623  0.28111999999999987  1.0000
  H   H98       1.0  0.09295000000000005  0.7244900000000002  0.33408  1.0000
  H   H99       1.0  0.016210000000000016  0.63826  0.5367  1.0000
  H   H100      1.0  0.91231  0.7723500000000001  0.66762  1.0000
  H   H101      1.0  0.8744099999999998  0.82759  0.7225499999999998  1.0000
  H   H102      1.0  0.006750000000000021  0.86113  0.47873  1.0000
  H   H103      1.0  0.9683300000000001  0.91608  0.53394  1.0000
  H   H104      1.0  0.90221  0.89941  0.65574  1.0000
  C   C169      1.0  0.21387999999999993  0.94558  0.52082  1.0000
  C   C170      1.0  0.1937900000000001  0.9764  0.56479  1.0000
  C   C171      1.0  0.21271999999999988  0.0209  0.54209  1.0000
  H   H105      1.0  0.19719999999999993  0.04461  0.5756  1.0000
  C   C172      1.0  0.2523299999999999  0.03513999999999999  0.4775599999999999  1.0000
  C   C173      1.0  0.27071  0.003629999999999999  0.43115  1.0000
  C   C174      1.0  0.24985000000000007  0.9588000000000002  0.4506799999999999  1.0000
  H   H106      1.0  0.26663999999999993  0.93577  0.41921999999999987  1.0000
  C   C175      1.0  0.3130099999999999  0.017439999999999994  0.3637399999999999  1.0000
  C   C176      1.0  0.36108999999999997  0.04416  0.3868399999999999  1.0000
  C   C177      1.0  0.4012099999999999  0.056  0.3232599999999999  1.0000
  C   C178      1.0  0.3937699999999999  0.04006  0.23686999999999994  1.0000
  C   C179      1.0  0.34623  0.01215  0.21394  1.0000
  C   C180      1.0  0.3058999999999999  0.0006599999999999947  0.2771899999999999  1.0000
  C   C181      1.0  0.15695999999999996  0.96374  0.64071  1.0000
  C   C182      1.0  0.17166000000000006  0.97997  0.72415  1.0000
  C   C183      1.0  0.1383299999999999  0.96416  0.7961099999999998  1.0000
  C   C184      1.0  0.09019999999999999  0.93236  0.78515  1.0000
  C   C185      1.0  0.07516999999999999  0.91657  0.70222  1.0000
  C   C186      1.0  0.10837  0.9323  0.6300199999999998  1.0000
  H   H107      1.0  0.14996  0.97621  0.86033  1.0000
  H   H108      1.0  0.06458000000000003  0.91986  0.84089  1.0000
  H   H109      1.0  0.03796000000000007  0.8918400000000001  0.6938899999999998  1.0000
  H   H110      1.0  0.09677000000000008  0.9193100000000002  0.56593  1.0000
  H   H111      1.0  0.20916999999999997  0.003999999999999985  0.7330999999999998  1.0000
  H   H112      1.0  0.3672899999999999  0.05579  0.45387  1.0000
  H   H113      1.0  0.4380899999999998  0.07734  0.3409999999999999  1.0000
  H   H114      1.0  0.2693199999999999  0.97845  0.25924  1.0000
  H   H115      1.0  0.3406100000000001  0.9997200000000002  0.14711  1.0000
  H   H116      1.0  0.42486  0.04926  0.18773  1.0000
  C   C187      1.0  0.25766  0.03874  0.03863  1.0000
  C   C188      1.0  0.26952  0.03685  0.9482999999999999  1.0000
  C   C189      1.0  0.27229  0.99727  0.9021099999999997  1.0000
  H   H117      1.0  0.28049  0.9956800000000002  0.83257  1.0000
  C   C190      1.0  0.2615700000000001  0.95891  0.9448199999999998  1.0000
  C   C191      1.0  0.2485899999999999  0.96075  0.03527  1.0000
  C   C192      1.0  0.24617  0.0003599999999999982  0.08099999999999997  1.0000
  H   H118      1.0  0.23613  0.001519999999999997  0.15006999999999995  1.0000
  C   C193      1.0  0.23467  0.92034  0.08124999999999998  1.0000
  C   C194      1.0  0.2695399999999999  0.9014  0.082  1.0000
  C   C195      1.0  0.25356  0.85604  0.09605999999999998  1.0000
  C   C196      1.0  0.20315  0.8301000000000001  0.11395999999999998  1.0000
  C   C197      1.0  0.16867999999999994  0.8498100000000001  0.12025  1.0000
  C   C198      1.0  0.18436000000000002  0.89509  0.10536  1.0000
  C   C199      1.0  0.27742000000000006  0.07584  0.9020199999999998  1.0000
  C   C200      1.0  0.32587999999999995  0.10487  0.87529  1.0000
  C   C201      1.0  0.3352099999999999  0.14835  0.8557799999999998  1.0000
  C   C202      1.0  0.29634  0.16276  0.86181  1.0000
  C   C203      1.0  0.2477399999999999  0.13310999999999998  0.8836199999999997  1.0000
  C   C204      1.0  0.23806000000000002  0.0894  0.90196  1.0000
  H   H119      1.0  0.3726099999999999  0.17117  0.8378799999999997  1.0000
  H   H120      1.0  0.3035699999999999  0.19619  0.8458599999999997  1.0000
  H   H121      1.0  0.21758000000000002  0.14385000000000006  0.8852899999999998  1.0000
  H   H122      1.0  0.20039  0.06703  0.9212299999999998  1.0000
  H   H123      1.0  0.35657  0.09479999999999998  0.8747999999999998  1.0000
  H   H124      1.0  0.30856  0.92079  0.06509  1.0000
  H   H125      1.0  0.28026  0.8412700000000002  0.0949  1.0000
  H   H126      1.0  0.15708999999999998  0.90944  0.10578  1.0000
  H   H127      1.0  0.12977999999999995  0.82969  0.13424999999999995  1.0000
  H   H128      1.0  0.19106999999999993  0.79528  0.12625  1.0000
  C   C205      1.0  0.21600000000000005  0.7358800000000002  0.95178  1.0000
  C   C206      1.0  0.19622999999999993  0.7147  0.028949999999999993  1.0000
  C   C207      1.0  0.22781999999999994  0.72052  0.09253  1.0000
  H   H129      1.0  0.21280999999999997  0.70288  0.15002999999999994  1.0000
  C   C208      1.0  0.27891  0.74717  0.08062999999999997  1.0000
  C   C209      1.0  0.29863  0.76872  0.0039  1.0000
  C   C210      1.0  0.26713  0.76251  0.94001  1.0000
  H   H130      1.0  0.28200000000000014  0.7805700000000004  0.883  1.0000
  C   C211      1.0  0.3522699999999999  0.79901  0.9910299999999997  1.0000
  C   C212      1.0  0.3752799999999999  0.83171  0.057669999999999985  1.0000
  C   C213      1.0  0.4259599999999999  0.85862  0.04684  1.0000
  C   C214      1.0  0.45371  0.85439  0.9687399999999998  1.0000
  C   C215      1.0  0.43088  0.82326  0.9011899999999998  1.0000
  C   C216      1.0  0.38054000000000004  0.7950800000000002  0.9124299999999997  1.0000
  C   C217      1.0  0.14212  0.68772  0.04532  1.0000
  C   C218      1.0  0.11508999999999998  0.69851  0.12022  1.0000
  C   C219      1.0  0.06408  0.67345  0.13486  1.0000
  C   C220      1.0  0.039659999999999994  0.63795  0.07468999999999998  1.0000
  C   C221      1.0  0.06633000000000004  0.6268  0.0004799999999999999  1.0000
  C   C222      1.0  0.11748000000000006  0.6511900000000003  0.98615  1.0000
  H   H131      1.0  0.04355  0.6813000000000001  0.19324  1.0000
  H   H132      1.0  0.00010999999999999262  0.61885  0.08588  1.0000
  H   H133      1.0  0.04738000000000004  0.59914  0.9541299999999998  1.0000
  H   H134      1.0  0.1377699999999999  0.64201  0.9288199999999998  1.0000
  H   H135      1.0  0.1336000000000001  0.72581  0.1675  1.0000
  H   H136      1.0  0.3541499999999999  0.83577  0.11823999999999997  1.0000
  H   H137      1.0  0.4436799999999999  0.88295  0.09895999999999998  1.0000
  H   H138      1.0  0.3635599999999999  0.77062  0.85997  1.0000
  H   H139      1.0  0.45211  0.82131  0.8398199999999998  1.0000
  H   H140      1.0  0.49288  0.87548  0.9603599999999998  1.0000
  C   C223      1.0  0.28277999999999986  0.78358  0.54786  1.0000
  C   C224      1.0  0.24679000000000006  0.7391700000000002  0.55845  1.0000
  C   C225      1.0  0.21867999999999996  0.71551  0.4884599999999999  1.0000
  H   H141      1.0  0.1873300000000001  0.6837900000000002  0.4978299999999999  1.0000
  C   C226      1.0  0.2429499999999999  0.7224899999999999  0.40541  1.0000
  C   C227      1.0  0.27603000000000005  0.76772  0.39530999999999994  1.0000
  C   C228      1.0  0.30570999999999987  0.79061  0.4637  1.0000
  H   H142      1.0  0.33716  0.82216  0.45346  1.0000
  C   C229      1.0  0.2607100000000001  0.7957800000000003  0.34863  1.0000
  C   C230      1.0  0.2106199999999999  0.79036  0.35731  1.0000
  C   C231      1.0  0.19773  0.82375  0.33434999999999987  1.0000
  C   C232      1.0  0.23438999999999988  0.86273  0.3027399999999999  1.0000
  C   C233      1.0  0.2838999999999999  0.86767  0.2905999999999999  1.0000
  C   C234      1.0  0.2970699999999999  0.83418  0.31244  1.0000
  C   C235      1.0  0.25251  0.71212  0.6206199999999997  1.0000
  C   C236      1.0  0.20994  0.67861  0.65794  1.0000
  C   C237      1.0  0.21297  0.64069  0.6843399999999997  1.0000
  C   C238      1.0  0.2585100000000001  0.6364900000000001  0.6754899999999998  1.0000
  C   C239      1.0  0.30169999999999997  0.67195  0.6474299999999998  1.0000
  C   C240      1.0  0.2989199999999999  0.7101  0.6216099999999998  1.0000
  H   H143      1.0  0.17975000000000005  0.6139000000000002  0.70915  1.0000
  H   H144      1.0  0.2605  0.6062  0.6923199999999998  1.0000
  H   H145      1.0  0.33714999999999995  0.66925  0.64322  1.0000
  H   H146      1.0  0.3322099999999999  0.736  0.59492  1.0000
  H   H147      1.0  0.17394999999999994  0.68  0.65921  1.0000
  H   H148      1.0  0.18221000000000007  0.76197  0.3873799999999999  1.0000
  H   H149      1.0  0.15938000000000005  0.8199  0.34316999999999986  1.0000
  H   H150      1.0  0.33574999999999994  0.83899  0.30493  1.0000
  H   H151      1.0  0.31217  0.89771  0.26494  1.0000
  H   H152      1.0  0.22438000000000002  0.8889600000000002  0.2866199999999999  1.0000
  Ni  Ni17      1.0  0.6896099999999997  0.32347  0.82778  1.0000
  O   O57       1.0  0.7034400000000004  0.36681  0.73869  1.0000
  Ni  Ni18      1.0  0.67064  0.32359  0.64242  1.0000
  O   O58       1.0  0.7165  0.37808  0.91583  1.0000
  O   O59       1.0  0.7876899999999998  0.4124  0.82718  1.0000
  O   O60       1.0  0.6182699999999999  0.32003  0.85137  1.0000
  Ni  Ni19      1.0  0.7710900000000002  0.40482000000000007  0.69917  1.0000
  O   O61       1.0  0.66694  0.21467  0.82734  1.0000
  O   O62       1.0  0.7931699999999998  0.3510600000000001  0.6508  1.0000
  O   O63       1.0  0.67112  0.37095  0.57027  1.0000
  O   O64       1.0  0.67698  0.28085  0.7194199999999997  1.0000
  O   O65       1.0  0.67373  0.27942  0.91741  1.0000
  O   O66       1.0  0.6279100000000001  0.27  0.5655599999999997  1.0000
  O   O67       1.0  0.5728799999999998  0.23091000000000003  0.6729599999999998  1.0000
  Ni  Ni20      1.0  0.62375  0.22362999999999997  0.74488  1.0000
  H   H153      1.0  0.7274  0.3535  0.7405  1.0000
  H   H154      1.0  0.70702  0.27443  0.70331  1.0000
  C   C241      1.0  0.76818  0.32025  0.5908  1.0000
  O   O68       1.0  0.5885799999999998  0.24368  0.85268  1.0000
  C   C242      1.0  0.75494  0.41493  0.89355  1.0000
  C   C243      1.0  0.7122  0.40838  0.56478  1.0000
  C   C244      1.0  0.5806699999999998  0.28096  0.86214  1.0000
  C   C245      1.0  0.58256  0.24543  0.59492  1.0000
  C   C246      1.0  0.68283  0.24264  0.8982099999999997  1.0000
  O   O69       1.0  0.73102  0.32385  0.56282  1.0000
  O   O70       1.0  0.7550199999999999  0.40867  0.58019  1.0000
  Ni  Ni21      1.0  0.8411899999999999  0.15716  0.36861  1.0000
  O   O71       1.0  0.86223  0.19964  0.27922999999999987  1.0000
  Ni  Ni22      1.0  0.8276599999999997  0.16587  0.17762999999999995  1.0000
  O   O72       1.0  0.87984  0.20939  0.45456999999999986  1.0000
  O   O73       1.0  0.92156  0.27268  0.37804  1.0000
  O   O74       1.0  0.7840999999999998  0.17526  0.41499  1.0000
  Ni  Ni23      1.0  0.8683299999999998  0.26016  0.2909099999999999  1.0000
  O   O75       1.0  0.7366199999999999  0.08965999999999999  0.41269  1.0000
  O   O76       1.0  0.9181799999999999  0.26594  0.18111  1.0000
  O   O77       1.0  0.83249  0.21239  0.10182  1.0000
  O   O78       1.0  0.81581  0.11797000000000002  0.25961  1.0000
  O   O79       1.0  0.8139099999999999  0.10996  0.45437  1.0000
  O   O80       1.0  0.80394  0.11818  0.07682  1.0000
  O   O81       1.0  0.72956  0.0842  0.15342999999999996  1.0000
  Ni  Ni24      1.0  0.7423799999999998  0.09381  0.28325  1.0000
  H   H155      1.0  0.8967999999999998  0.20204  0.2735299999999999  1.0000
  H   H156      1.0  0.8299699999999998  0.09514  0.23771999999999993  1.0000
  C   C247      1.0  0.9294  0.23343  0.12982  1.0000
  O   O82       1.0  0.7383199999999995  0.15701  0.30252  1.0000
  C   C248      1.0  0.92134  0.24287  0.42892999999999987  1.0000
  C   C249      1.0  0.8127000000000002  0.24096  0.13342999999999994  1.0000
  C   C250      1.0  0.7600999999999998  0.18652  0.36642  1.0000
  C   C251      1.0  0.76344  0.08217  0.09025  1.0000
  C   C252      1.0  0.76804  0.08013  0.44881  1.0000
  O   O83       1.0  0.90127  0.18862  0.13156  1.0000
  O   O84       1.0  0.81308  0.25478  0.21708  1.0000
  C   C253      1.0  0.46743999999999997  0.2482  0.057899999999999986  1.0000
  C   C254      1.0  0.5103099999999999  0.28841999999999995  0.06857  1.0000
  C   C255      1.0  0.54174  0.30617  0.9958599999999997  1.0000
  H   H157      1.0  0.57516  0.33651  0.004259999999999998  1.0000
  C   C256      1.0  0.5357799999999998  0.28031  0.9156399999999999  1.0000
  C   C257      1.0  0.4907699999999997  0.24222  0.90407  1.0000
  C   C258      1.0  0.45664  0.22722  0.9751899999999998  1.0000
  H   H158      1.0  0.42216000000000004  0.19812  0.9663199999999997  1.0000
  C   C259      1.0  0.48223  0.21369  0.8207599999999998  1.0000
  C   C260      1.0  0.4631499999999999  0.22544  0.7562199999999998  1.0000
  C   C261      1.0  0.44425  0.19386  0.68626  1.0000
  C   C262      1.0  0.44606  0.15116000000000002  0.67874  1.0000
  C   C263      1.0  0.46673999999999993  0.13984999999999997  0.7411399999999998  1.0000
  C   C264      1.0  0.4844199999999999  0.1708  0.8124  1.0000
  C   C265      1.0  0.52531  0.30947  0.15563999999999995  1.0000
  C   C266      1.0  0.5343999999999999  0.35538  0.17956999999999995  1.0000
  C   C267      1.0  0.55409  0.37655000000000005  0.25751999999999997  1.0000
  C   C268      1.0  0.56469  0.35206  0.31188  1.0000
  C   C269      1.0  0.55454  0.3061  0.2894499999999999  1.0000
  C   C270      1.0  0.5346  0.28468  0.21184  1.0000
  H   H159      1.0  0.5617499999999997  0.41209  0.27524  1.0000
  H   H160      1.0  0.5810399999999999  0.36876  0.37117  1.0000
  H   H161      1.0  0.56307  0.28732  0.3313399999999999  1.0000
  H   H162      1.0  0.52782  0.24932  0.19413  1.0000
  H   H163      1.0  0.5271399999999999  0.3748  0.13705999999999993  1.0000
  H   H164      1.0  0.4614499999999999  0.25833  0.7617  1.0000
  H   H165      1.0  0.42816999999999994  0.20246  0.6378799999999998  1.0000
  H   H166      1.0  0.4985399999999999  0.16108999999999998  0.8623199999999998  1.0000
  H   H167      1.0  0.46823  0.10678000000000001  0.73515  1.0000
  H   H168      1.0  0.43141999999999997  0.12683999999999998  0.6245299999999998  1.0000
  C   C271      1.0  0.54159  0.24497  0.5513299999999998  1.0000
  C   C272      1.0  0.52669  0.21584  0.47566999999999987  1.0000
  C   C273      1.0  0.48941999999999997  0.21763  0.4326099999999999  1.0000
  H   H169      1.0  0.4767999999999998  0.19412  0.37615  1.0000
  C   C274      1.0  0.46759999999999996  0.24891  0.46296  1.0000
  C   C275      1.0  0.48457999999999996  0.27981  0.5357899999999998  1.0000
  C   C276      1.0  0.5219399999999997  0.27806  0.57875  1.0000
  H   H170      1.0  0.5351299999999998  0.30199  0.6344299999999998  1.0000
  C   C277      1.0  0.46222999999999986  0.31296000000000007  0.56939  1.0000
  C   C278      1.0  0.4250599999999999  0.30381  0.63877  1.0000
  C   C279      1.0  0.40342999999999996  0.3349300000000001  0.6696199999999998  1.0000
  C   C280      1.0  0.4190099999999998  0.37536  0.63181  1.0000
  C   C281      1.0  0.45625  0.38473  0.56305  1.0000
  C   C282      1.0  0.4779099999999999  0.35365  0.53187  1.0000
  C   C283      1.0  0.5513699999999999  0.18474  0.43917  1.0000
  C   C284      1.0  0.5426799999999998  0.14639000000000002  0.4802799999999999  1.0000
  C   C285      1.0  0.5690999999999998  0.11908  0.4496  1.0000
  C   C286      1.0  0.6040799999999997  0.1298  0.3777199999999999  1.0000
  C   C287      1.0  0.61241  0.16763  0.33597  1.0000
  C   C288      1.0  0.58585  0.1949  0.3661  1.0000
  H   H171      1.0  0.5627800000000002  0.08983000000000001  0.48198999999999986  1.0000
  H   H172      1.0  0.6249699999999998  0.10898000000000001  0.35476999999999986  1.0000
  H   H173      1.0  0.64  0.17622999999999997  0.28111999999999987  1.0000
  H   H174      1.0  0.5929499999999995  0.22449  0.33408  1.0000
  H   H175      1.0  0.5162099999999997  0.13826  0.5367  1.0000
  H   H176      1.0  0.4123099999999999  0.27235  0.66762  1.0000
  H   H177      1.0  0.37441  0.32759  0.7225499999999998  1.0000
  H   H178      1.0  0.50675  0.36113  0.47873  1.0000
  H   H179      1.0  0.4683299999999998  0.41608  0.53394  1.0000
  H   H180      1.0  0.40221  0.39941  0.65574  1.0000
  C   C289      1.0  0.71388  0.4455800000000001  0.52082  1.0000
  C   C290      1.0  0.6937899999999998  0.4764  0.56479  1.0000
  C   C291      1.0  0.71273  0.5209  0.54209  1.0000
  H   H181      1.0  0.6972  0.54461  0.5756  1.0000
  C   C292      1.0  0.75233  0.53514  0.4775599999999999  1.0000
  C   C293      1.0  0.77071  0.50363  0.43115  1.0000
  C   C294      1.0  0.7498499999999998  0.45879999999999993  0.4506799999999999  1.0000
  H   H182      1.0  0.7666399999999999  0.43577  0.41921999999999987  1.0000
  C   C295      1.0  0.8130100000000001  0.51744  0.3637399999999999  1.0000
  C   C296      1.0  0.8610899999999998  0.54416  0.3868399999999999  1.0000
  C   C297      1.0  0.90121  0.556  0.3232599999999999  1.0000
  C   C298      1.0  0.89377  0.54006  0.23686999999999994  1.0000
  C   C299      1.0  0.8462299999999998  0.51215  0.21394  1.0000
  C   C300      1.0  0.8058999999999997  0.50066  0.2771899999999999  1.0000
  C   C301      1.0  0.6569599999999998  0.46374  0.64071  1.0000
  C   C302      1.0  0.6716599999999998  0.47997000000000006  0.72415  1.0000
  C   C303      1.0  0.6383299999999997  0.46415999999999996  0.7961099999999998  1.0000
  C   C304      1.0  0.5902  0.43235  0.78515  1.0000
  C   C305      1.0  0.5751699999999998  0.41657  0.70222  1.0000
  C   C306      1.0  0.6083699999999997  0.4323  0.6300199999999998  1.0000
  H   H183      1.0  0.64996  0.47621  0.86033  1.0000
  H   H184      1.0  0.56458  0.41986  0.84089  1.0000
  H   H185      1.0  0.53796  0.39184  0.6938899999999998  1.0000
  H   H186      1.0  0.59677  0.41931  0.56593  1.0000
  H   H187      1.0  0.7091699999999997  0.504  0.7330999999999998  1.0000
  H   H188      1.0  0.8672899999999998  0.5557900000000001  0.45387  1.0000
  H   H189      1.0  0.9380899999999998  0.57734  0.3409999999999999  1.0000
  H   H190      1.0  0.7693199999999998  0.47845  0.25924  1.0000
  H   H191      1.0  0.8406099999999995  0.49972  0.14711  1.0000
  H   H192      1.0  0.9248599999999999  0.5492600000000001  0.18773  1.0000
  C   C307      1.0  0.75766  0.53874  0.03863  1.0000
  C   C308      1.0  0.76952  0.53685  0.9482999999999999  1.0000
  C   C309      1.0  0.77229  0.49727  0.9021099999999997  1.0000
  H   H193      1.0  0.7804899999999999  0.49568  0.83257  1.0000
  C   C310      1.0  0.7615699999999997  0.45890999999999993  0.9448199999999998  1.0000
  C   C311      1.0  0.7485900000000001  0.46075  0.03527  1.0000
  C   C312      1.0  0.74617  0.50036  0.08099999999999997  1.0000
  H   H194      1.0  0.73613  0.50152  0.15006999999999995  1.0000
  C   C313      1.0  0.73467  0.42034  0.08124999999999998  1.0000
  C   C314      1.0  0.7695399999999998  0.4014  0.082  1.0000
  C   C315      1.0  0.75356  0.3560300000000001  0.09605999999999998  1.0000
  C   C316      1.0  0.7031499999999998  0.3301  0.11395999999999998  1.0000
  C   C317      1.0  0.66868  0.34981  0.12025  1.0000
  C   C318      1.0  0.68436  0.39509  0.10536  1.0000
  C   C319      1.0  0.7774199999999998  0.57585  0.9020199999999998  1.0000
  C   C320      1.0  0.82588  0.6048800000000002  0.87529  1.0000
  C   C321      1.0  0.83521  0.64834  0.8557799999999998  1.0000
  C   C322      1.0  0.7963399999999996  0.66276  0.86181  1.0000
  C   C323      1.0  0.7477400000000001  0.6331099999999998  0.8836199999999997  1.0000
  C   C324      1.0  0.73806  0.5894  0.90196  1.0000
  H   H195      1.0  0.87262  0.67117  0.8378799999999997  1.0000
  H   H196      1.0  0.8035799999999997  0.69619  0.8458599999999997  1.0000
  H   H197      1.0  0.7175800000000001  0.6438400000000002  0.8852899999999998  1.0000
  H   H198      1.0  0.7003899999999998  0.56703  0.9212299999999998  1.0000
  H   H199      1.0  0.8565699999999998  0.5948  0.8747999999999998  1.0000
  H   H200      1.0  0.80856  0.42079  0.06509  1.0000
  H   H201      1.0  0.7802599999999997  0.34127  0.0949  1.0000
  H   H202      1.0  0.65709  0.40944  0.10578  1.0000
  H   H203      1.0  0.6297799999999998  0.32969  0.13424999999999995  1.0000
  H   H204      1.0  0.6910699999999997  0.29528  0.12625  1.0000
  C   C325      1.0  0.7159999999999997  0.23587  0.95178  1.0000
  C   C326      1.0  0.69623  0.2147  0.028949999999999993  1.0000
  C   C327      1.0  0.7278199999999998  0.22051  0.09253  1.0000
  H   H205      1.0  0.7128199999999998  0.20288  0.15002999999999994  1.0000
  C   C328      1.0  0.7789199999999997  0.24717  0.08062999999999997  1.0000
  C   C329      1.0  0.7986299999999997  0.26872  0.0039  1.0000
  C   C330      1.0  0.7671299999999998  0.26251  0.94001  1.0000
  H   H206      1.0  0.782  0.28057  0.883  1.0000
  C   C331      1.0  0.85227  0.29901  0.9910299999999997  1.0000
  C   C332      1.0  0.8752799999999997  0.33171  0.057669999999999985  1.0000
  C   C333      1.0  0.9259599999999998  0.35862  0.04684  1.0000
  C   C334      1.0  0.9537099999999997  0.35439  0.9687399999999998  1.0000
  C   C335      1.0  0.9308799999999996  0.32326  0.9011899999999998  1.0000
  C   C336      1.0  0.8805399999999998  0.29508  0.9124299999999997  1.0000
  C   C337      1.0  0.64212  0.18772  0.04532  1.0000
  C   C338      1.0  0.61509  0.19851000000000005  0.12022  1.0000
  C   C339      1.0  0.56408  0.17345  0.13486  1.0000
  C   C340      1.0  0.5396599999999998  0.13795000000000002  0.07468999999999998  1.0000
  C   C341      1.0  0.56633  0.1268  0.0004799999999999999  1.0000
  C   C342      1.0  0.61748  0.15119000000000005  0.98615  1.0000
  H   H207      1.0  0.54355  0.1813  0.19324  1.0000
  H   H208      1.0  0.50011  0.11885  0.08588  1.0000
  H   H209      1.0  0.54738  0.09914000000000002  0.9541299999999998  1.0000
  H   H210      1.0  0.6377699999999997  0.14201  0.9288199999999998  1.0000
  H   H211      1.0  0.6336  0.22581  0.1675  1.0000
  H   H212      1.0  0.8541499999999997  0.33577  0.11823999999999997  1.0000
  H   H213      1.0  0.9436799999999997  0.38295  0.09895999999999998  1.0000
  H   H214      1.0  0.8635599999999996  0.27062  0.85997  1.0000
  H   H215      1.0  0.9521099999999999  0.32131  0.8398199999999998  1.0000
  H   H216      1.0  0.99288  0.37548  0.9603599999999998  1.0000
  C   C343      1.0  0.78278  0.28358  0.54786  1.0000
  C   C344      1.0  0.7467899999999997  0.23917  0.55845  1.0000
  C   C345      1.0  0.7186799999999997  0.21550999999999998  0.4884599999999999  1.0000
  H   H217      1.0  0.6873299999999998  0.18379  0.4978299999999999  1.0000
  C   C346      1.0  0.74295  0.22249  0.40541  1.0000
  C   C347      1.0  0.77603  0.26772  0.39530999999999994  1.0000
  C   C348      1.0  0.8057099999999998  0.29061  0.4637  1.0000
  H   H218      1.0  0.8371599999999999  0.32216  0.45346  1.0000
  C   C349      1.0  0.7607099999999998  0.29578  0.34863  1.0000
  C   C350      1.0  0.7106199999999998  0.29036  0.35731  1.0000
  C   C351      1.0  0.69773  0.32375  0.33434999999999987  1.0000
  C   C352      1.0  0.73439  0.36273000000000005  0.3027399999999999  1.0000
  C   C353      1.0  0.7839  0.36767  0.2905999999999999  1.0000
  C   C354      1.0  0.7970700000000001  0.33419  0.31244  1.0000
  C   C355      1.0  0.75251  0.21212  0.6206199999999997  1.0000
  C   C356      1.0  0.7099399999999999  0.17861  0.65794  1.0000
  C   C357      1.0  0.7129699999999999  0.14069  0.6843399999999997  1.0000
  C   C358      1.0  0.75851  0.13649  0.6754899999999998  1.0000
  C   C359      1.0  0.8017  0.17194  0.6474299999999998  1.0000
  C   C360      1.0  0.79892  0.21010000000000006  0.6216099999999998  1.0000
  H   H219      1.0  0.6797499999999999  0.1139  0.70915  1.0000
  H   H220      1.0  0.7605  0.10619999999999999  0.6923199999999998  1.0000
  H   H221      1.0  0.83715  0.16925  0.64322  1.0000
  H   H222      1.0  0.8322099999999999  0.23600000000000004  0.59492  1.0000
  H   H223      1.0  0.67395  0.17999999999999997  0.65921  1.0000
  H   H224      1.0  0.68221  0.26197  0.3873799999999999  1.0000
  H   H225      1.0  0.6593799999999999  0.31990000000000013  0.34316999999999986  1.0000
  H   H226      1.0  0.8357499999999998  0.33899  0.30493  1.0000
  H   H227      1.0  0.8121699999999997  0.3977100000000001  0.26494  1.0000
  H   H228      1.0  0.7243799999999999  0.38896  0.2866199999999999  1.0000
  Ni  Ni25      1.0  0.68961  0.8234700000000003  0.82778  1.0000
  O   O85       1.0  0.70344  0.8668100000000001  0.73869  1.0000
  Ni  Ni26      1.0  0.67064  0.82359  0.64242  1.0000
  O   O86       1.0  0.7165  0.8780800000000001  0.91583  1.0000
  O   O87       1.0  0.7876899999999998  0.9124  0.82718  1.0000
  O   O88       1.0  0.61827  0.82003  0.85137  1.0000
  Ni  Ni27      1.0  0.7710900000000002  0.9048200000000001  0.69917  1.0000
  O   O89       1.0  0.66694  0.71467  0.82734  1.0000
  O   O90       1.0  0.7931699999999998  0.85106  0.6508  1.0000
  O   O91       1.0  0.67112  0.87096  0.57027  1.0000
  O   O92       1.0  0.67698  0.78085  0.7194199999999997  1.0000
  O   O93       1.0  0.67373  0.77942  0.91741  1.0000
  O   O94       1.0  0.62791  0.77  0.5655599999999997  1.0000
  O   O95       1.0  0.5728799999999997  0.73091  0.6729599999999998  1.0000
  Ni  Ni28      1.0  0.62375  0.72363  0.74488  1.0000
  H   H229      1.0  0.7274000000000002  0.8535  0.7405  1.0000
  H   H230      1.0  0.7070200000000001  0.7744300000000002  0.70331  1.0000
  C   C361      1.0  0.7681799999999999  0.82025  0.5908  1.0000
  O   O96       1.0  0.58858  0.74368  0.85268  1.0000
  C   C362      1.0  0.75494  0.91493  0.89355  1.0000
  C   C363      1.0  0.7122000000000002  0.9083800000000002  0.56478  1.0000
  C   C364      1.0  0.5806800000000001  0.7809600000000001  0.86214  1.0000
  C   C365      1.0  0.58256  0.74543  0.59492  1.0000
  C   C366      1.0  0.68283  0.7426399999999999  0.8982099999999997  1.0000
  O   O97       1.0  0.73102  0.82385  0.56282  1.0000
  O   O98       1.0  0.7550199999999999  0.9086700000000002  0.58019  1.0000
  Ni  Ni29      1.0  0.8411899999999999  0.65716  0.36861  1.0000
  O   O99       1.0  0.8622300000000002  0.69964  0.27922999999999987  1.0000
  Ni  Ni30      1.0  0.8276599999999997  0.6658700000000002  0.17762999999999995  1.0000
  O   O100      1.0  0.87984  0.70939  0.45456999999999986  1.0000
  O   O101      1.0  0.9215599999999996  0.77268  0.37804  1.0000
  O   O102      1.0  0.7840999999999998  0.67526  0.41499  1.0000
  Ni  Ni31      1.0  0.8683299999999999  0.7601600000000002  0.2909099999999999  1.0000
  O   O103      1.0  0.7366199999999999  0.58966  0.41269  1.0000
  O   O104      1.0  0.9181799999999999  0.7659400000000002  0.18111  1.0000
  O   O105      1.0  0.83249  0.7124000000000001  0.10182  1.0000
  O   O106      1.0  0.81581  0.61797  0.25961  1.0000
  O   O107      1.0  0.81391  0.6099600000000002  0.45437  1.0000
  O   O108      1.0  0.80394  0.61819  0.07682  1.0000
  O   O109      1.0  0.72956  0.5842  0.15342999999999996  1.0000
  Ni  Ni32      1.0  0.7423799999999998  0.59381  0.28325  1.0000
  H   H231      1.0  0.8967999999999998  0.70204  0.2735299999999999  1.0000
  H   H232      1.0  0.8299699999999999  0.59514  0.23771999999999993  1.0000
  C   C367      1.0  0.9294  0.73343  0.12982  1.0000
  O   O110      1.0  0.7383199999999998  0.65701  0.30252  1.0000
  C   C368      1.0  0.92134  0.7428700000000001  0.42892999999999987  1.0000
  C   C369      1.0  0.8127000000000001  0.7409600000000002  0.13342999999999994  1.0000
  C   C370      1.0  0.7600999999999998  0.68652  0.36642  1.0000
  C   C371      1.0  0.76344  0.58217  0.09025  1.0000
  C   C372      1.0  0.76804  0.58013  0.44881  1.0000
  O   O111      1.0  0.9012700000000001  0.68862  0.13156  1.0000
  O   O112      1.0  0.81308  0.75478  0.21708  1.0000
  C   C373      1.0  0.4674399999999999  0.7482  0.057899999999999986  1.0000
  C   C374      1.0  0.5103099999999999  0.78842  0.06857  1.0000
  C   C375      1.0  0.54174  0.80617  0.9958599999999997  1.0000
  H   H233      1.0  0.57516  0.83651  0.004259999999999998  1.0000
  C   C376      1.0  0.5357799999999999  0.7803  0.9156399999999999  1.0000
  C   C377      1.0  0.49077  0.74222  0.90407  1.0000
  C   C378      1.0  0.45663999999999993  0.7272199999999998  0.9751899999999998  1.0000
  H   H234      1.0  0.4221599999999999  0.6981199999999997  0.9663199999999997  1.0000
  C   C379      1.0  0.48222999999999977  0.7136899999999998  0.8207599999999998  1.0000
  C   C380      1.0  0.4631599999999999  0.72544  0.7562199999999998  1.0000
  C   C381      1.0  0.4442499999999999  0.69386  0.68626  1.0000
  C   C382      1.0  0.44606  0.65116  0.67874  1.0000
  C   C383      1.0  0.46674  0.6398500000000001  0.7411399999999998  1.0000
  C   C384      1.0  0.4844199999999999  0.6708  0.8124  1.0000
  C   C385      1.0  0.5253100000000002  0.8094700000000002  0.15563999999999995  1.0000
  C   C386      1.0  0.5343999999999999  0.85538  0.17956999999999995  1.0000
  C   C387      1.0  0.55409  0.87655  0.25751999999999997  1.0000
  C   C388      1.0  0.5646899999999999  0.85206  0.31188  1.0000
  C   C389      1.0  0.55454  0.8061  0.2894499999999999  1.0000
  C   C390      1.0  0.5346  0.7846800000000003  0.21184  1.0000
  H   H235      1.0  0.5617499999999997  0.9120899999999998  0.27524  1.0000
  H   H236      1.0  0.5810399999999999  0.86877  0.37117  1.0000
  H   H237      1.0  0.5630700000000001  0.7873200000000001  0.3313399999999999  1.0000
  H   H238      1.0  0.52782  0.74932  0.19413  1.0000
  H   H239      1.0  0.5271399999999999  0.8748  0.13705999999999993  1.0000
  H   H240      1.0  0.4614499999999999  0.75833  0.7617  1.0000
  H   H241      1.0  0.42817000000000005  0.7024600000000002  0.6378799999999998  1.0000
  H   H242      1.0  0.49853999999999987  0.66109  0.8623199999999998  1.0000
  H   H243      1.0  0.46823  0.60678  0.73515  1.0000
  H   H244      1.0  0.43141999999999997  0.6268400000000001  0.6245299999999998  1.0000
  C   C391      1.0  0.54159  0.74497  0.5513299999999998  1.0000
  C   C392      1.0  0.52669  0.71584  0.47566999999999987  1.0000
  C   C393      1.0  0.48941999999999986  0.71762  0.4326099999999999  1.0000
  H   H245      1.0  0.4767999999999998  0.69412  0.37615  1.0000
  C   C394      1.0  0.46759999999999996  0.74891  0.46296  1.0000
  C   C395      1.0  0.48457999999999984  0.77981  0.5357899999999998  1.0000
  C   C396      1.0  0.5219399999999997  0.77806  0.57875  1.0000
  H   H246      1.0  0.5351299999999998  0.8019899999999998  0.6344299999999998  1.0000
  C   C397      1.0  0.46222999999999986  0.81296  0.56939  1.0000
  C   C398      1.0  0.42505999999999994  0.8038100000000002  0.63877  1.0000
  C   C399      1.0  0.40342999999999996  0.83493  0.6696199999999998  1.0000
  C   C400      1.0  0.4190099999999999  0.87536  0.63181  1.0000
  C   C401      1.0  0.45625000000000004  0.8847300000000001  0.56305  1.0000
  C   C402      1.0  0.47791000000000006  0.85365  0.53187  1.0000
  C   C403      1.0  0.5513699999999999  0.68474  0.43917  1.0000
  C   C404      1.0  0.5426799999999997  0.64639  0.4802799999999999  1.0000
  C   C405      1.0  0.5690999999999998  0.61908  0.4496  1.0000
  C   C406      1.0  0.6040799999999997  0.6298  0.3777199999999999  1.0000
  C   C407      1.0  0.61241  0.66763  0.33597  1.0000
  C   C408      1.0  0.58585  0.6949  0.3661  1.0000
  H   H247      1.0  0.56278  0.58983  0.48198999999999986  1.0000
  H   H248      1.0  0.6249699999999998  0.60898  0.35476999999999986  1.0000
  H   H249      1.0  0.64  0.67623  0.28111999999999987  1.0000
  H   H250      1.0  0.5929499999999998  0.7244900000000002  0.33408  1.0000
  H   H251      1.0  0.5162099999999997  0.63826  0.5367  1.0000
  H   H252      1.0  0.41230999999999995  0.7723500000000001  0.66762  1.0000
  H   H253      1.0  0.37441  0.82759  0.7225499999999998  1.0000
  H   H254      1.0  0.50675  0.86113  0.47873  1.0000
  H   H255      1.0  0.4683299999999999  0.91608  0.53394  1.0000
  H   H256      1.0  0.40221  0.89941  0.65574  1.0000
  C   C409      1.0  0.71388  0.94558  0.52082  1.0000
  C   C410      1.0  0.69379  0.9764  0.56479  1.0000
  C   C411      1.0  0.71273  0.0209  0.54209  1.0000
  H   H257      1.0  0.6972  0.04461  0.5756  1.0000
  C   C412      1.0  0.75233  0.03513999999999999  0.4775599999999999  1.0000
  C   C413      1.0  0.7707099999999998  0.003629999999999999  0.43115  1.0000
  C   C414      1.0  0.7498500000000001  0.9588000000000002  0.4506799999999999  1.0000
  H   H258      1.0  0.7666399999999998  0.93577  0.41921999999999987  1.0000
  C   C415      1.0  0.8130100000000001  0.017439999999999994  0.3637399999999999  1.0000
  C   C416      1.0  0.8610899999999998  0.04416  0.3868399999999999  1.0000
  C   C417      1.0  0.9012099999999997  0.056  0.3232599999999999  1.0000
  C   C418      1.0  0.89377  0.04006  0.23686999999999994  1.0000
  C   C419      1.0  0.8462299999999998  0.01215  0.21394  1.0000
  C   C420      1.0  0.8058999999999997  0.0006599999999999947  0.2771899999999999  1.0000
  C   C421      1.0  0.6569599999999998  0.96374  0.64071  1.0000
  C   C422      1.0  0.6716599999999998  0.97997  0.72415  1.0000
  C   C423      1.0  0.6383299999999996  0.96416  0.7961099999999998  1.0000
  C   C424      1.0  0.5902  0.93236  0.78515  1.0000
  C   C425      1.0  0.57517  0.91657  0.70222  1.0000
  C   C426      1.0  0.6083699999999997  0.9323  0.6300199999999998  1.0000
  H   H259      1.0  0.64996  0.97621  0.86033  1.0000
  H   H260      1.0  0.56458  0.91986  0.84089  1.0000
  H   H261      1.0  0.53796  0.8918400000000001  0.6938899999999998  1.0000
  H   H262      1.0  0.59677  0.9193100000000002  0.56593  1.0000
  H   H263      1.0  0.7091699999999997  0.003999999999999985  0.7330999999999998  1.0000
  H   H264      1.0  0.8672899999999998  0.05579  0.45387  1.0000
  H   H265      1.0  0.9380899999999998  0.07734  0.3409999999999999  1.0000
  H   H266      1.0  0.76931  0.97845  0.25924  1.0000
  H   H267      1.0  0.8406099999999999  0.9997200000000002  0.14711  1.0000
  H   H268      1.0  0.9248599999999999  0.04926  0.18773  1.0000
  C   C427      1.0  0.75766  0.03874  0.03863  1.0000
  C   C428      1.0  0.76952  0.03685  0.9482999999999999  1.0000
  C   C429      1.0  0.77229  0.99727  0.9021099999999997  1.0000
  H   H269      1.0  0.7804899999999999  0.9956800000000002  0.83257  1.0000
  C   C430      1.0  0.7615700000000001  0.95891  0.9448199999999998  1.0000
  C   C431      1.0  0.74859  0.96075  0.03527  1.0000
  C   C432      1.0  0.74617  0.0003599999999999982  0.08099999999999997  1.0000
  H   H270      1.0  0.73613  0.001519999999999997  0.15006999999999995  1.0000
  C   C433      1.0  0.73467  0.92034  0.08124999999999998  1.0000
  C   C434      1.0  0.7695399999999998  0.9014  0.082  1.0000
  C   C435      1.0  0.75356  0.85604  0.09605999999999998  1.0000
  C   C436      1.0  0.7031499999999998  0.8301000000000001  0.11395999999999998  1.0000
  C   C437      1.0  0.6686800000000002  0.8498100000000001  0.12025  1.0000
  C   C438      1.0  0.68436  0.89509  0.10536  1.0000
  C   C439      1.0  0.7774199999999998  0.07584  0.9020199999999998  1.0000
  C   C440      1.0  0.82588  0.10487  0.87529  1.0000
  C   C441      1.0  0.83521  0.14835  0.8557799999999998  1.0000
  C   C442      1.0  0.7963399999999998  0.16276  0.86181  1.0000
  C   C443      1.0  0.74774  0.13310999999999998  0.8836199999999997  1.0000
  C   C444      1.0  0.73806  0.0894  0.90196  1.0000
  H   H271      1.0  0.8726199999999998  0.17117  0.8378799999999997  1.0000
  H   H272      1.0  0.8035799999999997  0.19619  0.8458599999999997  1.0000
  H   H273      1.0  0.71758  0.14385000000000006  0.8852899999999998  1.0000
  H   H274      1.0  0.7003899999999997  0.06703  0.9212299999999998  1.0000
  H   H275      1.0  0.8565699999999998  0.09479999999999998  0.8747999999999998  1.0000
  H   H276      1.0  0.80856  0.92079  0.06509  1.0000
  H   H277      1.0  0.7802599999999998  0.8412700000000002  0.0949  1.0000
  H   H278      1.0  0.65709  0.90944  0.10578  1.0000
  H   H279      1.0  0.6297799999999998  0.82969  0.13424999999999995  1.0000
  H   H280      1.0  0.6910699999999997  0.79528  0.12625  1.0000
  C   C445      1.0  0.7159999999999999  0.7358800000000002  0.95178  1.0000
  C   C446      1.0  0.69623  0.7147  0.028949999999999993  1.0000
  C   C447      1.0  0.7278199999999998  0.72052  0.09253  1.0000
  H   H281      1.0  0.71281  0.70288  0.15002999999999994  1.0000
  C   C448      1.0  0.7789199999999997  0.74717  0.08062999999999997  1.0000
  C   C449      1.0  0.7986299999999997  0.76872  0.0039  1.0000
  C   C450      1.0  0.7671299999999998  0.76251  0.94001  1.0000
  H   H282      1.0  0.7820000000000001  0.7805700000000004  0.883  1.0000
  C   C451      1.0  0.85227  0.79901  0.9910299999999997  1.0000
  C   C452      1.0  0.8752799999999997  0.83171  0.057669999999999985  1.0000
  C   C453      1.0  0.9259599999999998  0.85862  0.04684  1.0000
  C   C454      1.0  0.9537099999999998  0.85439  0.9687399999999998  1.0000
  C   C455      1.0  0.9308799999999998  0.82326  0.9011899999999998  1.0000
  C   C456      1.0  0.8805399999999997  0.7950800000000002  0.9124299999999997  1.0000
  C   C457      1.0  0.64212  0.68772  0.04532  1.0000
  C   C458      1.0  0.61509  0.69851  0.12022  1.0000
  C   C459      1.0  0.56409  0.67345  0.13486  1.0000
  C   C460      1.0  0.5396599999999998  0.63795  0.07468999999999998  1.0000
  C   C461      1.0  0.56633  0.6268  0.0004799999999999999  1.0000
  C   C462      1.0  0.61748  0.6511900000000003  0.98615  1.0000
  H   H283      1.0  0.54355  0.6813000000000001  0.19324  1.0000
  H   H284      1.0  0.50011  0.61885  0.08588  1.0000
  H   H285      1.0  0.5473799999999998  0.59914  0.9541299999999998  1.0000
  H   H286      1.0  0.6377699999999997  0.64201  0.9288199999999998  1.0000
  H   H287      1.0  0.6336  0.72581  0.1675  1.0000
  H   H288      1.0  0.8541499999999997  0.83577  0.11823999999999997  1.0000
  H   H289      1.0  0.9436799999999999  0.88295  0.09895999999999998  1.0000
  H   H290      1.0  0.8635599999999998  0.77062  0.85997  1.0000
  H   H291      1.0  0.9521099999999997  0.82131  0.8398199999999998  1.0000
  H   H292      1.0  0.9928799999999995  0.87548  0.9603599999999998  1.0000
  C   C463      1.0  0.7827800000000001  0.78358  0.54786  1.0000
  C   C464      1.0  0.7467900000000001  0.7391700000000002  0.55845  1.0000
  C   C465      1.0  0.7186799999999998  0.71551  0.4884599999999999  1.0000
  H   H293      1.0  0.68733  0.6837900000000002  0.4978299999999999  1.0000
  C   C466      1.0  0.7429499999999997  0.7224899999999999  0.40541  1.0000
  C   C467      1.0  0.77603  0.76772  0.39530999999999994  1.0000
  C   C468      1.0  0.8057099999999998  0.79061  0.4637  1.0000
  H   H294      1.0  0.8371599999999999  0.82216  0.45346  1.0000
  C   C469      1.0  0.7607100000000001  0.7957800000000003  0.34863  1.0000
  C   C470      1.0  0.7106199999999998  0.79036  0.35731  1.0000
  C   C471      1.0  0.69773  0.82375  0.33434999999999987  1.0000
  C   C472      1.0  0.7343899999999998  0.86273  0.3027399999999999  1.0000
  C   C473      1.0  0.7839  0.86767  0.2905999999999999  1.0000
  C   C474      1.0  0.79707  0.83418  0.31244  1.0000
  C   C475      1.0  0.75251  0.71212  0.6206199999999997  1.0000
  C   C476      1.0  0.7099399999999999  0.67861  0.65794  1.0000
  C   C477      1.0  0.7129699999999998  0.64069  0.6843399999999997  1.0000
  C   C478      1.0  0.75851  0.6364900000000001  0.6754899999999998  1.0000
  C   C479      1.0  0.8017  0.67195  0.6474299999999998  1.0000
  C   C480      1.0  0.7989199999999997  0.7101  0.6216099999999998  1.0000
  H   H295      1.0  0.67975  0.6139000000000002  0.70915  1.0000
  H   H296      1.0  0.7605  0.6062  0.6923199999999998  1.0000
  H   H297      1.0  0.83715  0.66925  0.64322  1.0000
  H   H298      1.0  0.8322099999999997  0.736  0.59492  1.0000
  H   H299      1.0  0.67395  0.68  0.65921  1.0000
  H   H300      1.0  0.68221  0.76197  0.3873799999999999  1.0000
  H   H301      1.0  0.6593799999999997  0.8199  0.34316999999999986  1.0000
  H   H302      1.0  0.8357499999999998  0.83899  0.30493  1.0000
  H   H303      1.0  0.8121699999999997  0.89771  0.26494  1.0000
  H   H304      1.0  0.7243799999999999  0.8889600000000002  0.2866199999999999  1.0000
