data_image0
_chemical_formula_structural       C6H2C4H2F4C4F2C2O3CFOCFH2C2O4H2F4C2O2H2Ni2F2Ni2F2NiO2C2HNiO2C2HC2O2CHO2CHC7HCHF2H2C2O4CHCHC2F2C2ONiOHC2O2NiONiO3NiO6NiH2COC5O2C3H2C2HC3HCF3C6H2CF2C6H3CF3ONiOHC2O2NiONiO3NiO6NiH2COC5O2C3H2C2HC3HCF3C6H2CF2C6H3CF3NiONiO3NiO7NiH2COC5O2NiONiO3NiO7NiH2COC5O2C6H3CF3C6H3CF3C6H3CF3C6H3CF3C6H3CF3C6H3CF3NiONiO3NiO7NiH2COC5O2NiONiO3NiO7NiH2COC5O2C6H3CF3C6H3CF3C6H3CF3C6H3CF3C6H3CF3C6H3CF3
_chemical_formula_sum              "C216 H88 F72 O112 Ni32"
_cell_length_a       27.98912
_cell_length_b       29.40584
_cell_length_c       15.339950000000002
_cell_angle_alpha    98.66551999999999
_cell_angle_beta     81.4079
_cell_angle_gamma    113.94007

_space_group_name_H-M_alt    "P 1"
_space_group_IT_number       1

loop_
  _space_group_symop_operation_xyz
  'x, y, z'

loop_
  _atom_site_type_symbol
  _atom_site_label
  _atom_site_symmetry_multiplicity
  _atom_site_fract_x
  _atom_site_fract_y
  _atom_site_fract_z
  _atom_site_occupancy
  C   C1        1.0  0.025780000000000008  0.19584  0.8757700000000003  1.0000
  C   C2        1.0  0.026469999999999973  0.18867  0.39151000000000014  1.0000
  C   C3        1.0  0.025779999999999966  0.6958399999999999  0.8757700000000003  1.0000
  C   C4        1.0  0.026470000000000066  0.68867  0.39151000000000014  1.0000
  C   C5        1.0  0.01029999999999999  0.19499  0.5768700000000001  1.0000
  C   C6        1.0  0.01029999999999999  0.69499  0.5768700000000001  1.0000
  H   H1        1.0  0.004400000000000003  0.19931  0.64862  1.0000
  H   H2        1.0  0.004399999999999972  0.69931  0.64862  1.0000
  C   C7        1.0  0.009710000000000002  0.14652  0.90062  1.0000
  C   C8        1.0  0.009709999999999995  0.64652  0.90062  1.0000
  C   C9        1.0  0.03807000000000002  0.6129  0.86081  1.0000
  C   C10       1.0  0.038070000000000014  0.11290000000000001  0.86081  1.0000
  H   H3        1.0  0.03275000000000001  0.18626999999999996  0.31982  1.0000
  H   H4        1.0  0.03274999999999994  0.68627  0.31982  1.0000
  F   F1        1.0  0.004779999999999986  0.06302000000000002  0.8632600000000002  1.0000
  F   F2        1.0  0.004780000000000013  0.56302  0.8632600000000002  1.0000
  F   F3        1.0  0.05617000000000001  0.1207  0.77311  1.0000
  F   F4        1.0  0.05617000000000002  0.6207  0.77311  1.0000
  C   C11       1.0  0.05869000000000001  0.19616  0.5342800000000002  1.0000
  C   C12       1.0  0.05868999999999999  0.69616  0.5342800000000002  1.0000
  C   C13       1.0  0.06498  0.18831  0.4405900000000001  1.0000
  C   C14       1.0  0.06498000000000005  0.6883100000000001  0.4405900000000001  1.0000
  F   F5        1.0  0.07967000000000002  0.12235000000000001  0.9085600000000003  1.0000
  F   F6        1.0  0.07967000000000002  0.6223500000000001  0.9085600000000003  1.0000
  C   C15       1.0  0.08250000000000002  0.2294  0.86025  1.0000
  C   C16       1.0  0.08250000000000002  0.7294  0.86025  1.0000
  O   O1        1.0  0.09785999999999999  0.27864  0.87353  1.0000
  O   O2        1.0  0.09786000000000006  0.77864  0.87353  1.0000
  O   O3        1.0  0.10481000000000001  0.20068000000000003  0.6587400000000001  1.0000
  C   C17       1.0  0.10508000000000002  0.21913  0.58451  1.0000
  F   F7        1.0  0.10446  0.15636  0.3105  1.0000
  O   O4        1.0  0.10481  0.70068  0.6587400000000001  1.0000
  C   C18       1.0  0.10508  0.71913  0.58451  1.0000
  F   F8        1.0  0.10445999999999998  0.65636  0.3105  1.0000
  H   H5        1.0  0.10679  0.48117000000000004  0.6365500000000002  1.0000
  H   H6        1.0  0.10679000000000007  0.9811700000000001  0.6365500000000002  1.0000
  C   C19       1.0  0.11429000000000003  0.18336  0.3925900000000001  1.0000
  C   C20       1.0  0.11429000000000004  0.68336  0.3925900000000001  1.0000
  O   O5        1.0  0.11788000000000003  0.21007  0.8449  1.0000
  O   O6        1.0  0.11788000000000007  0.71007  0.8449  1.0000
  O   O7        1.0  0.12370999999999997  0.3606  0.5996100000000002  1.0000
  O   O8        1.0  0.12370999999999997  0.8606  0.5996100000000002  1.0000
  H   H7        1.0  0.12529  0.36999  0.7982200000000003  1.0000
  H   H8        1.0  0.12529000000000007  0.86999  0.7982200000000003  1.0000
  F   F9        1.0  0.12871  0.54531  0.8755300000000003  1.0000
  F   F10       1.0  0.12870999999999996  0.04531000000000001  0.8755300000000003  1.0000
  F   F11       1.0  0.13266  0.15864  0.44072  1.0000
  F   F12       1.0  0.13266  0.65864  0.44072  1.0000
  C   C21       1.0  0.13397999999999996  0.48191  0.57799  1.0000
  C   C22       1.0  0.13397  0.98191  0.57799  1.0000
  O   O9        1.0  0.13901  0.26394  0.56707  1.0000
  O   O10       1.0  0.13901  0.76394  0.56707  1.0000
  H   H9        1.0  0.9957199999999999  0.24929  0.8504500000000003  1.0000
  H   H10       1.0  0.9957299999999998  0.74929  0.8504500000000003  1.0000
  Ni  Ni1       1.0  0.15274  0.32279  0.6627100000000002  1.0000
  Ni  Ni2       1.0  0.16919000000000003  0.22196  0.73391  1.0000
  F   F13       1.0  0.15256000000000003  0.23042  0.38062  1.0000
  F   F14       1.0  0.14718000000000014  0.6060800000000001  0.98784  1.0000
  Ni  Ni3       1.0  0.15274000000000004  0.82279  0.6627100000000002  1.0000
  Ni  Ni4       1.0  0.16919  0.72196  0.73391  1.0000
  F   F15       1.0  0.15256000000000008  0.73042  0.38062  1.0000
  F   F16       1.0  0.14718  0.10608  0.98784  1.0000
  Ni  Ni5       1.0  0.17654  0.32502  0.85312  1.0000
  O   O11       1.0  0.15839000000000006  0.36552  0.7763900000000001  1.0000
  O   O12       1.0  0.17513  0.37562000000000006  0.9604300000000002  1.0000
  C   C23       1.0  0.14949  0.41025  0.60294  1.0000
  C   C24       1.0  0.13936  0.43759  0.5414100000000002  1.0000
  H   H11       1.0  0.16429000000000005  0.40201  0.4205200000000001  1.0000
  Ni  Ni6       1.0  0.17654000000000003  0.8250200000000001  0.85312  1.0000
  O   O13       1.0  0.15839000000000006  0.8655199999999998  0.7763900000000001  1.0000
  O   O14       1.0  0.17511999999999994  0.87562  0.9604300000000002  1.0000
  C   C25       1.0  0.14948999999999998  0.91025  0.60294  1.0000
  C   C26       1.0  0.13935999999999998  0.93759  0.5414100000000002  1.0000
  H   H12       1.0  0.16428999999999996  0.9019999999999999  0.4205200000000001  1.0000
  C   C27       1.0  0.16558000000000003  0.57323  0.9341600000000002  1.0000
  C   C28       1.0  0.16558  0.07323000000000003  0.9341600000000002  1.0000
  O   O15       1.0  0.18821000000000002  0.29313000000000006  0.7316500000000002  1.0000
  O   O16       1.0  0.19664  0.28325  0.9236100000000003  1.0000
  C   C29       1.0  0.18614  0.51886  0.12949  1.0000
  H   H13       1.0  0.19040000000000007  0.52844  0.19968  1.0000
  O   O17       1.0  0.18821000000000002  0.79314  0.7316500000000002  1.0000
  O   O18       1.0  0.19663999999999998  0.78325  0.9236100000000003  1.0000
  C   C30       1.0  0.18614000000000003  0.01886  0.12949  1.0000
  H   H14       1.0  0.19040000000000007  0.028440000000000003  0.19968  1.0000
  C   C31       1.0  0.17449999999999996  0.53915  0.9886600000000002  1.0000
  C   C32       1.0  0.1745  0.03915000000000002  0.9886600000000002  1.0000
  C   C33       1.0  0.16518  0.43709  0.4559100000000001  1.0000
  C   C34       1.0  0.16517999999999988  0.93709  0.4559100000000001  1.0000
  C   C35       1.0  0.18586000000000003  0.55436  0.07773  1.0000
  C   C36       1.0  0.18586  0.05436  0.07773  1.0000
  C   C37       1.0  0.18755  0.47331  0.08884  1.0000
  H   H15       1.0  0.19305  0.44834  0.12793  1.0000
  C   C38       1.0  0.18755000000000005  0.9733100000000001  0.08884  1.0000
  H   H16       1.0  0.19304999999999994  0.94834  0.12793  1.0000
  F   F17       1.0  0.14856  0.59774  0.57584  1.0000
  F   F18       1.0  0.14856  0.09774  0.57584  1.0000
  H   H17       1.0  0.23939  0.29852  0.06439000000000003  1.0000
  H   H18       1.0  0.23939  0.79852  0.06439000000000003  1.0000
  C   C39       1.0  0.1765  0.49366  0.9479800000000003  1.0000
  C   C40       1.0  0.17649999999999996  0.99366  0.9479800000000003  1.0000
  O   O19       1.0  0.19653000000000007  0.12956  0.17759000000000005  1.0000
  O   O20       1.0  0.19652999999999993  0.6295599999999999  0.17759000000000005  1.0000
  O   O21       1.0  0.22921000000000008  0.23812000000000008  0.8128000000000002  1.0000
  O   O22       1.0  0.22921000000000008  0.73812  0.8128000000000002  1.0000
  C   C41       1.0  0.18639  0.46224000000000004  0.9968700000000003  1.0000
  H   H19       1.0  0.17305999999999994  0.484  0.8774600000000002  1.0000
  C   C42       1.0  0.18639000000000006  0.96224  0.9968700000000003  1.0000
  H   H20       1.0  0.17305999999999985  0.9839999999999999  0.8774600000000002  1.0000
  C   C43       1.0  0.23365999999999998  0.26697  0.8900200000000003  1.0000
  C   C44       1.0  0.23366  0.76697  0.8900200000000003  1.0000
  F   F19       1.0  0.27492999999999995  0.34065  0.20684  1.0000
  F   F20       1.0  0.2749300000000001  0.84065  0.20684  1.0000
  C   C45       1.0  0.9870600000000003  0.21499000000000004  0.8791500000000002  1.0000
  C   C46       1.0  0.9870600000000003  0.71499  0.8791500000000002  1.0000
  O   O23       1.0  0.23949  0.43444  0.8807900000000002  1.0000
  Ni  Ni7       1.0  0.21715000000000004  0.42824  0.7542700000000001  1.0000
  O   O24       1.0  0.27252  0.40003  0.6938200000000002  1.0000
  H   H21       1.0  0.22636  0.30682  0.71591  1.0000
  C   C47       1.0  0.26559  0.37547  0.6142800000000003  1.0000
  C   C48       1.0  0.20371999999999998  0.42313  0.9496500000000002  1.0000
  O   O25       1.0  0.21964000000000006  0.35839  0.5859600000000003  1.0000
  O   O26       1.0  0.19657000000000002  0.43281  0.6341  1.0000
  Ni  Ni8       1.0  0.328  0.14961000000000002  0.34635  1.0000
  O   O27       1.0  0.35556000000000004  0.20683000000000004  0.2662500000000001  1.0000
  Ni  Ni9       1.0  0.31736  0.17143  0.16013000000000005  1.0000
  O   O28       1.0  0.3912100000000002  0.18074000000000004  0.41989  1.0000
  O   O29       1.0  0.4514900000000001  0.19915  0.2974900000000001  1.0000
  O   O30       1.0  0.29240999999999995  0.18712000000000006  0.4374000000000001  1.0000
  Ni  Ni10      1.0  0.42919000000000007  0.24316000000000002  0.22965000000000005  1.0000
  O   O31       1.0  0.21462000000000006  0.10326  0.4230500000000001  1.0000
  O   O32       1.0  0.4472700000000001  0.20372000000000004  0.11702  1.0000
  O   O33       1.0  0.35723  0.21923  0.06835  1.0000
  O   O34       1.0  0.28014  0.12101000000000003  0.2513500000000001  1.0000
  O   O35       1.0  0.29098  0.09112  0.4221300000000001  1.0000
  O   O36       1.0  0.26355  0.12961  0.07344000000000003  1.0000
  Ni  Ni11      1.0  0.21260999999999997  0.12327000000000002  0.30264000000000013  1.0000
  H   H22       1.0  0.34253  0.23318  0.2900300000000001  1.0000
  H   H23       1.0  0.27755  0.08681  0.22886  1.0000
  C   C49       1.0  0.41513  0.16346  0.0736  1.0000
  O   O37       1.0  0.24163000000000004  0.19887  0.34771  1.0000
  C   C50       1.0  0.44012999999999997  0.19415999999999997  0.3834600000000001  1.0000
  C   C51       1.0  0.37899  0.26719  0.08928000000000003  1.0000
  C   C52       1.0  0.2711  0.21515  0.41512  1.0000
  C   C53       1.0  0.21439000000000008  0.10796000000000001  0.10556000000000003  1.0000
  C   C54       1.0  0.23872  0.07449  0.4347200000000001  1.0000
  O   O38       1.0  0.36754  0.13703  0.10938000000000003  1.0000
  O   O39       1.0  0.41144000000000003  0.28625  0.15349000000000002  1.0000
  C   C55       1.0  0.93089  0.15404  0.97939  1.0000
  C   C56       1.0  0.93776  0.19097  0.9246100000000002  1.0000
  C   C57       1.0  0.96321  0.12729  0.9575400000000002  1.0000
  H   H24       1.0  0.9552000000000002  0.09472000000000001  0.9912400000000002  1.0000
  H   H25       1.0  0.9081499999999999  0.20605  0.92785  1.0000
  C   C58       1.0  0.9801700000000001  0.19257  0.43497000000000013  1.0000
  C   C59       1.0  0.97152  0.19374  0.52774  1.0000
  H   H26       1.0  0.9355200000000002  0.19556  0.56217  1.0000
  C   C60       1.0  0.20138000000000003  0.48211  0.4249900000000001  1.0000
  C   C61       1.0  0.20741  0.52783  0.47545  1.0000
  C   C62       1.0  0.17258000000000004  0.52784  0.5533600000000002  1.0000
  H   H27       1.0  0.22446  0.4815  0.3617800000000001  1.0000
  C   C63       1.0  0.17631  0.57603  0.6100800000000001  1.0000
  F   F21       1.0  0.15537999999999996  0.56681  0.6963100000000002  1.0000
  F   F22       1.0  0.22809000000000004  0.6093600000000001  0.61294  1.0000
  F   F23       1.0  0.21227000000000001  0.60021  0.8869000000000002  1.0000
  C   C64       1.0  0.2796  0.2802  0.9415600000000002  1.0000
  C   C65       1.0  0.3281799999999999  0.28117  0.9000100000000001  1.0000
  C   C66       1.0  0.3706700000000001  0.29414  0.9506500000000002  1.0000
  C   C67       1.0  0.36254000000000014  0.29862000000000005  0.04397000000000001  1.0000
  C   C68       1.0  0.31802  0.30809  0.0833  1.0000
  C   C69       1.0  0.27593  0.29682  0.03229  1.0000
  H   H28       1.0  0.40699000000000013  0.29206000000000004  0.9183300000000002  1.0000
  H   H29       1.0  0.33286  0.27082000000000006  0.8294900000000002  1.0000
  C   C70       1.0  0.30887  0.31635  0.18252000000000004  1.0000
  F   F24       1.0  0.28694  0.27013  0.21499  1.0000
  F   F25       1.0  0.35556000000000004  0.34511  0.21898000000000006  1.0000
  C   C71       1.0  0.28283000000000014  0.26557  0.4648000000000001  1.0000
  C   C72       1.0  0.28419  0.30573  0.4239100000000001  1.0000
  C   C73       1.0  0.3023  0.35412  0.4683700000000001  1.0000
  C   C74       1.0  0.30534  0.35973  0.5603400000000002  1.0000
  C   C75       1.0  0.3183700000000001  0.32461000000000007  0.59284  1.0000
  C   C76       1.0  0.30239  0.27575  0.5488500000000001  1.0000
  H   H30       1.0  0.30108999999999997  0.38436  0.4374000000000001  1.0000
  H   H31       1.0  0.30608  0.24634  0.57871  1.0000
  H   H32       1.0  0.26812  0.29929  0.36164  1.0000
  C   C77       1.0  0.35048  0.33949  0.6709600000000002  1.0000
  F   F26       1.0  0.37659  0.30829  0.67044  1.0000
  F   F27       1.0  0.38752999999999993  0.38793999999999995  0.6674300000000001  1.0000
  F   F28       1.0  0.31828  0.33714  0.74905  1.0000
  O   O40       1.0  0.2394900000000001  0.9344400000000002  0.8807900000000002  1.0000
  Ni  Ni12      1.0  0.2171500000000001  0.92824  0.7542700000000001  1.0000
  O   O41       1.0  0.27252  0.9000299999999999  0.6938200000000002  1.0000
  H   H33       1.0  0.22635000000000005  0.80682  0.71591  1.0000
  C   C78       1.0  0.26559000000000005  0.8754700000000001  0.6142800000000003  1.0000
  C   C79       1.0  0.20372000000000004  0.9231300000000001  0.9496500000000002  1.0000
  O   O42       1.0  0.21963999999999995  0.85839  0.5859600000000003  1.0000
  O   O43       1.0  0.19657000000000002  0.93281  0.6341  1.0000
  Ni  Ni13      1.0  0.328  0.64961  0.34635  1.0000
  O   O44       1.0  0.35556000000000004  0.70683  0.2662500000000001  1.0000
  Ni  Ni14      1.0  0.31736  0.67143  0.16013000000000005  1.0000
  O   O45       1.0  0.39121  0.68074  0.41989  1.0000
  O   O46       1.0  0.4514900000000001  0.6991500000000003  0.2974900000000001  1.0000
  O   O47       1.0  0.29241  0.68712  0.4374000000000001  1.0000
  Ni  Ni15      1.0  0.42919000000000007  0.74316  0.22965000000000005  1.0000
  O   O48       1.0  0.21462  0.60326  0.4230500000000001  1.0000
  O   O49       1.0  0.4472700000000001  0.70372  0.11702  1.0000
  O   O50       1.0  0.35723  0.71923  0.06835  1.0000
  O   O51       1.0  0.28014  0.62101  0.2513500000000001  1.0000
  O   O52       1.0  0.29098  0.59112  0.4221300000000001  1.0000
  O   O53       1.0  0.26355  0.62961  0.07344000000000003  1.0000
  Ni  Ni16      1.0  0.21261  0.62327  0.30264000000000013  1.0000
  H   H34       1.0  0.34253  0.73318  0.2900300000000001  1.0000
  H   H35       1.0  0.27755  0.58681  0.22886  1.0000
  C   C80       1.0  0.41513  0.66346  0.0736  1.0000
  O   O54       1.0  0.24163000000000004  0.69887  0.34771  1.0000
  C   C81       1.0  0.44013  0.69416  0.3834600000000001  1.0000
  C   C82       1.0  0.37899  0.76719  0.08928000000000003  1.0000
  C   C83       1.0  0.2711  0.71515  0.41512  1.0000
  C   C84       1.0  0.21439000000000008  0.60796  0.10556000000000003  1.0000
  C   C85       1.0  0.23872  0.57449  0.4347200000000001  1.0000
  O   O55       1.0  0.36754  0.63702  0.10938000000000003  1.0000
  O   O56       1.0  0.4114400000000001  0.7862499999999999  0.15349000000000002  1.0000
  C   C86       1.0  0.93089  0.65404  0.97939  1.0000
  C   C87       1.0  0.9377600000000005  0.69097  0.9246100000000002  1.0000
  C   C88       1.0  0.96321  0.62729  0.9575400000000002  1.0000
  H   H36       1.0  0.9552000000000004  0.59472  0.9912400000000002  1.0000
  H   H37       1.0  0.90815  0.70605  0.92785  1.0000
  C   C89       1.0  0.9801700000000001  0.6925700000000001  0.43497000000000013  1.0000
  C   C90       1.0  0.97152  0.69374  0.52774  1.0000
  H   H38       1.0  0.9355199999999999  0.69556  0.56217  1.0000
  C   C91       1.0  0.20138999999999996  0.98211  0.4249900000000001  1.0000
  C   C92       1.0  0.20741  0.02783  0.47545  1.0000
  C   C93       1.0  0.17258  0.027840000000000014  0.5533600000000002  1.0000
  H   H39       1.0  0.22446000000000005  0.9815000000000002  0.3617800000000001  1.0000
  C   C94       1.0  0.17630999999999997  0.07603  0.6100800000000001  1.0000
  F   F29       1.0  0.15538  0.06681000000000001  0.6963100000000002  1.0000
  F   F30       1.0  0.22809000000000004  0.10936  0.61294  1.0000
  F   F31       1.0  0.21227000000000001  0.10021  0.8869000000000002  1.0000
  C   C95       1.0  0.27959999999999996  0.7802  0.9415600000000002  1.0000
  C   C96       1.0  0.32818  0.78117  0.9000100000000001  1.0000
  C   C97       1.0  0.3706700000000001  0.79414  0.9506500000000002  1.0000
  C   C98       1.0  0.3625400000000001  0.79862  0.04397000000000001  1.0000
  C   C99       1.0  0.3180200000000001  0.8080900000000001  0.0833  1.0000
  C   C100      1.0  0.27593  0.79682  0.03229  1.0000
  H   H40       1.0  0.40699000000000013  0.79206  0.9183300000000002  1.0000
  H   H41       1.0  0.33286  0.77082  0.8294900000000002  1.0000
  C   C101      1.0  0.30887  0.81635  0.18252000000000004  1.0000
  F   F32       1.0  0.28694  0.77013  0.21499  1.0000
  F   F33       1.0  0.35556000000000004  0.8451099999999999  0.21898000000000006  1.0000
  C   C102      1.0  0.2828300000000001  0.76557  0.4648000000000001  1.0000
  C   C103      1.0  0.28419  0.80573  0.4239100000000001  1.0000
  C   C104      1.0  0.3023  0.85412  0.4683700000000001  1.0000
  C   C105      1.0  0.30534  0.85973  0.5603400000000002  1.0000
  C   C106      1.0  0.31837  0.82461  0.59284  1.0000
  C   C107      1.0  0.3023900000000001  0.77575  0.5488500000000001  1.0000
  H   H42       1.0  0.30109  0.88436  0.4374000000000001  1.0000
  H   H43       1.0  0.30608  0.7463399999999999  0.57871  1.0000
  H   H44       1.0  0.26812  0.79929  0.36164  1.0000
  C   C108      1.0  0.35048  0.83949  0.6709600000000002  1.0000
  F   F34       1.0  0.3765899999999999  0.80829  0.67044  1.0000
  F   F35       1.0  0.3875300000000001  0.88794  0.6674300000000001  1.0000
  F   F36       1.0  0.31828  0.8371400000000001  0.74905  1.0000
  Ni  Ni17      1.0  0.67654  0.32502  0.85312  1.0000
  O   O57       1.0  0.65839  0.36552  0.7763900000000001  1.0000
  Ni  Ni18      1.0  0.6527399999999999  0.32279  0.6627100000000002  1.0000
  O   O58       1.0  0.6751299999999999  0.37562000000000006  0.9604300000000002  1.0000
  O   O59       1.0  0.7394899999999998  0.43444  0.8807900000000002  1.0000
  O   O60       1.0  0.59786  0.27864  0.87353  1.0000
  Ni  Ni19      1.0  0.71715  0.42824  0.7542700000000001  1.0000
  O   O61       1.0  0.7292100000000001  0.23812000000000008  0.8128000000000002  1.0000
  O   O62       1.0  0.77252  0.40003  0.6938200000000002  1.0000
  O   O63       1.0  0.6237100000000002  0.3606  0.5996100000000002  1.0000
  O   O64       1.0  0.6882000000000003  0.29313000000000006  0.7316500000000002  1.0000
  O   O65       1.0  0.6966400000000001  0.28325  0.9236100000000003  1.0000
  O   O66       1.0  0.63901  0.26394  0.56707  1.0000
  O   O67       1.0  0.6048100000000002  0.20068000000000003  0.6587400000000001  1.0000
  Ni  Ni20      1.0  0.6691900000000001  0.22196  0.73391  1.0000
  H   H45       1.0  0.6252900000000001  0.36999  0.7982200000000003  1.0000
  H   H46       1.0  0.7263600000000001  0.30682  0.71591  1.0000
  C   C109      1.0  0.7655900000000002  0.37547  0.6142800000000003  1.0000
  O   O68       1.0  0.61788  0.21007  0.8449  1.0000
  C   C110      1.0  0.7037200000000002  0.42313  0.9496500000000002  1.0000
  C   C111      1.0  0.64949  0.41025  0.60294  1.0000
  C   C112      1.0  0.5825  0.2294  0.86025  1.0000
  C   C113      1.0  0.60508  0.21913  0.58451  1.0000
  C   C114      1.0  0.73366  0.26697  0.8900200000000003  1.0000
  O   O69       1.0  0.71964  0.35839  0.5859600000000003  1.0000
  O   O70       1.0  0.69657  0.43281  0.6341  1.0000
  Ni  Ni21      1.0  0.8280000000000003  0.14961000000000002  0.34635  1.0000
  O   O71       1.0  0.85556  0.20683000000000004  0.2662500000000001  1.0000
  Ni  Ni22      1.0  0.81736  0.17143  0.16013000000000005  1.0000
  O   O72       1.0  0.89121  0.18074000000000004  0.41989  1.0000
  O   O73       1.0  0.9514900000000002  0.19915  0.2974900000000001  1.0000
  O   O74       1.0  0.7924100000000001  0.18712000000000006  0.4374000000000001  1.0000
  Ni  Ni23      1.0  0.9291900000000002  0.24316000000000002  0.22965000000000005  1.0000
  O   O75       1.0  0.7146199999999999  0.10326  0.4230500000000001  1.0000
  O   O76       1.0  0.9472700000000001  0.20372000000000004  0.11702  1.0000
  O   O77       1.0  0.85723  0.21923  0.06835  1.0000
  O   O78       1.0  0.78014  0.12101000000000003  0.2513500000000001  1.0000
  O   O79       1.0  0.79098  0.09112  0.4221300000000001  1.0000
  O   O80       1.0  0.76355  0.12961  0.07344000000000003  1.0000
  O   O81       1.0  0.69653  0.12956  0.17759000000000005  1.0000
  Ni  Ni24      1.0  0.7126100000000002  0.12327000000000002  0.30264000000000013  1.0000
  H   H47       1.0  0.8425299999999999  0.23318  0.2900300000000001  1.0000
  H   H48       1.0  0.7775500000000001  0.08681  0.22886  1.0000
  C   C115      1.0  0.91513  0.16346  0.0736  1.0000
  O   O82       1.0  0.74163  0.19887  0.34771  1.0000
  C   C116      1.0  0.9401300000000001  0.19415999999999997  0.3834600000000001  1.0000
  C   C117      1.0  0.87899  0.26719  0.08928000000000003  1.0000
  C   C118      1.0  0.7711  0.21515  0.41512  1.0000
  C   C119      1.0  0.7143900000000002  0.10796000000000001  0.10556000000000003  1.0000
  C   C120      1.0  0.7387200000000002  0.07449  0.4347200000000001  1.0000
  O   O83       1.0  0.86754  0.13703  0.10938000000000003  1.0000
  O   O84       1.0  0.9114400000000002  0.28625  0.15349000000000002  1.0000
  C   C121      1.0  0.43088999999999994  0.15404  0.97939  1.0000
  C   C122      1.0  0.43776  0.19097  0.9246100000000002  1.0000
  C   C123      1.0  0.48705999999999994  0.21499000000000004  0.8791500000000002  1.0000
  C   C124      1.0  0.5257800000000002  0.19584  0.8757700000000003  1.0000
  C   C125      1.0  0.50971  0.14652  0.90062  1.0000
  C   C126      1.0  0.46321  0.12729  0.9575400000000002  1.0000
  H   H49       1.0  0.49573  0.24929  0.8504500000000003  1.0000
  H   H50       1.0  0.45520000000000005  0.09472000000000001  0.9912400000000002  1.0000
  H   H51       1.0  0.40815000000000007  0.20605  0.92785  1.0000
  C   C127      1.0  0.5380700000000002  0.11290000000000001  0.86081  1.0000
  F   F37       1.0  0.5796700000000001  0.12235000000000001  0.9085600000000003  1.0000
  F   F38       1.0  0.50478  0.06302000000000002  0.8632600000000002  1.0000
  F   F39       1.0  0.55617  0.1207  0.77311  1.0000
  C   C128      1.0  0.48017  0.19257  0.43497000000000013  1.0000
  C   C129      1.0  0.4715200000000001  0.19374  0.52774  1.0000
  C   C130      1.0  0.5103  0.19499  0.5768700000000001  1.0000
  C   C131      1.0  0.55869  0.19616  0.5342800000000002  1.0000
  C   C132      1.0  0.56498  0.18831  0.4405900000000001  1.0000
  C   C133      1.0  0.52647  0.18867  0.39151000000000014  1.0000
  H   H52       1.0  0.5044000000000002  0.19931  0.64862  1.0000
  H   H53       1.0  0.53275  0.18626999999999996  0.31982  1.0000
  H   H54       1.0  0.4355200000000001  0.19556  0.56217  1.0000
  C   C134      1.0  0.61429  0.18336  0.3925900000000001  1.0000
  F   F40       1.0  0.60446  0.15636  0.3105  1.0000
  F   F41       1.0  0.65256  0.23042  0.38062  1.0000
  F   F42       1.0  0.6326600000000003  0.15864  0.44072  1.0000
  C   C135      1.0  0.6393599999999999  0.43759  0.5414100000000002  1.0000
  C   C136      1.0  0.66518  0.43709  0.4559100000000001  1.0000
  C   C137      1.0  0.7013900000000002  0.48211  0.4249900000000001  1.0000
  C   C138      1.0  0.7074100000000001  0.52783  0.47545  1.0000
  C   C139      1.0  0.6725800000000002  0.52784  0.5533600000000002  1.0000
  C   C140      1.0  0.63397  0.48191  0.57799  1.0000
  H   H55       1.0  0.72446  0.4815  0.3617800000000001  1.0000
  H   H56       1.0  0.60679  0.48117000000000004  0.6365500000000002  1.0000
  H   H57       1.0  0.6642899999999999  0.40201  0.4205200000000001  1.0000
  C   C141      1.0  0.67631  0.57603  0.6100800000000001  1.0000
  F   F43       1.0  0.64856  0.59774  0.57584  1.0000
  F   F44       1.0  0.6553800000000001  0.56681  0.6963100000000002  1.0000
  F   F45       1.0  0.72809  0.6093600000000001  0.61294  1.0000
  C   C142      1.0  0.6863899999999998  0.46224000000000004  0.9968700000000003  1.0000
  C   C143      1.0  0.68756  0.47331  0.08884  1.0000
  C   C144      1.0  0.6861400000000002  0.51886  0.12949  1.0000
  C   C145      1.0  0.6858600000000001  0.55436  0.07773  1.0000
  C   C146      1.0  0.6744999999999999  0.53915  0.9886600000000002  1.0000
  C   C147      1.0  0.6765  0.49366  0.9479800000000003  1.0000
  H   H58       1.0  0.6904  0.52844  0.19968  1.0000
  H   H59       1.0  0.67306  0.484  0.8774600000000002  1.0000
  H   H60       1.0  0.69305  0.44834  0.12793  1.0000
  C   C148      1.0  0.6655799999999998  0.57323  0.9341600000000002  1.0000
  F   F46       1.0  0.71227  0.60021  0.8869000000000002  1.0000
  F   F47       1.0  0.62871  0.54531  0.8755300000000003  1.0000
  F   F48       1.0  0.6471800000000001  0.6060800000000001  0.98784  1.0000
  C   C149      1.0  0.7796000000000002  0.2802  0.9415600000000002  1.0000
  C   C150      1.0  0.82818  0.28117  0.9000100000000001  1.0000
  C   C151      1.0  0.8706700000000002  0.29414  0.9506500000000002  1.0000
  C   C152      1.0  0.86254  0.29862000000000005  0.04397000000000001  1.0000
  C   C153      1.0  0.8180199999999999  0.30809  0.0833  1.0000
  C   C154      1.0  0.77593  0.29682  0.03229  1.0000
  H   H61       1.0  0.9069900000000002  0.29206000000000004  0.9183300000000002  1.0000
  H   H62       1.0  0.7393900000000002  0.29852  0.06439000000000003  1.0000
  H   H63       1.0  0.8328600000000003  0.27082000000000006  0.8294900000000002  1.0000
  C   C155      1.0  0.8088700000000002  0.31635  0.18252000000000004  1.0000
  F   F49       1.0  0.77493  0.34065  0.20684  1.0000
  F   F50       1.0  0.7869400000000002  0.27013  0.21499  1.0000
  F   F51       1.0  0.85556  0.34511  0.21898000000000006  1.0000
  C   C156      1.0  0.78282  0.26557  0.4648000000000001  1.0000
  C   C157      1.0  0.78419  0.30573  0.4239100000000001  1.0000
  C   C158      1.0  0.8023  0.35412  0.4683700000000001  1.0000
  C   C159      1.0  0.8053400000000002  0.35973  0.5603400000000002  1.0000
  C   C160      1.0  0.81837  0.32461000000000007  0.59284  1.0000
  C   C161      1.0  0.80239  0.27575  0.5488500000000001  1.0000
  H   H64       1.0  0.80109  0.38436  0.4374000000000001  1.0000
  H   H65       1.0  0.80608  0.24634  0.57871  1.0000
  H   H66       1.0  0.76812  0.29929  0.36164  1.0000
  C   C162      1.0  0.8504799999999999  0.33949  0.6709600000000002  1.0000
  F   F52       1.0  0.8765900000000002  0.30829  0.67044  1.0000
  F   F53       1.0  0.88753  0.38793999999999995  0.6674300000000001  1.0000
  F   F54       1.0  0.8182800000000005  0.33714  0.74905  1.0000
  Ni  Ni25      1.0  0.6765400000000001  0.8250200000000001  0.85312  1.0000
  O   O85       1.0  0.65839  0.8655199999999998  0.7763900000000001  1.0000
  Ni  Ni26      1.0  0.65274  0.82279  0.6627100000000002  1.0000
  O   O86       1.0  0.67512  0.87562  0.9604300000000002  1.0000
  O   O87       1.0  0.73949  0.9344400000000002  0.8807900000000002  1.0000
  O   O88       1.0  0.59786  0.77864  0.87353  1.0000
  Ni  Ni27      1.0  0.71715  0.92824  0.7542700000000001  1.0000
  O   O89       1.0  0.72921  0.73812  0.8128000000000002  1.0000
  O   O90       1.0  0.77252  0.9000299999999999  0.6938200000000002  1.0000
  O   O91       1.0  0.6237100000000002  0.8606  0.5996100000000002  1.0000
  O   O92       1.0  0.68821  0.79314  0.7316500000000002  1.0000
  O   O93       1.0  0.6966400000000001  0.78325  0.9236100000000003  1.0000
  O   O94       1.0  0.63901  0.76394  0.56707  1.0000
  O   O95       1.0  0.60481  0.70068  0.6587400000000001  1.0000
  Ni  Ni28      1.0  0.66919  0.72196  0.73391  1.0000
  H   H67       1.0  0.6252900000000001  0.86999  0.7982200000000003  1.0000
  H   H68       1.0  0.72635  0.80682  0.71591  1.0000
  C   C163      1.0  0.7655900000000003  0.8754700000000001  0.6142800000000003  1.0000
  O   O96       1.0  0.61788  0.71007  0.8449  1.0000
  C   C164      1.0  0.7037200000000003  0.9231300000000001  0.9496500000000002  1.0000
  C   C165      1.0  0.64949  0.91025  0.60294  1.0000
  C   C166      1.0  0.5825  0.7294  0.86025  1.0000
  C   C167      1.0  0.60508  0.71913  0.58451  1.0000
  C   C168      1.0  0.73366  0.76697  0.8900200000000003  1.0000
  O   O97       1.0  0.71964  0.85839  0.5859600000000003  1.0000
  O   O98       1.0  0.69657  0.93281  0.6341  1.0000
  Ni  Ni29      1.0  0.8280000000000002  0.64961  0.34635  1.0000
  O   O99       1.0  0.85556  0.70683  0.2662500000000001  1.0000
  Ni  Ni30      1.0  0.81736  0.67143  0.16013000000000005  1.0000
  O   O100      1.0  0.89121  0.68074  0.41989  1.0000
  O   O101      1.0  0.9514900000000003  0.6991500000000003  0.2974900000000001  1.0000
  O   O102      1.0  0.7924100000000001  0.68712  0.4374000000000001  1.0000
  Ni  Ni31      1.0  0.9291900000000003  0.74316  0.22965000000000005  1.0000
  O   O103      1.0  0.71462  0.60326  0.4230500000000001  1.0000
  O   O104      1.0  0.94727  0.70372  0.11702  1.0000
  O   O105      1.0  0.85723  0.71923  0.06835  1.0000
  O   O106      1.0  0.78014  0.62101  0.2513500000000001  1.0000
  O   O107      1.0  0.79098  0.59112  0.4221300000000001  1.0000
  O   O108      1.0  0.76355  0.62961  0.07344000000000003  1.0000
  O   O109      1.0  0.69653  0.6295599999999999  0.17759000000000005  1.0000
  Ni  Ni32      1.0  0.7126100000000001  0.62327  0.30264000000000013  1.0000
  H   H69       1.0  0.84253  0.73318  0.2900300000000001  1.0000
  H   H70       1.0  0.7775500000000001  0.58681  0.22886  1.0000
  C   C169      1.0  0.91513  0.66346  0.0736  1.0000
  O   O110      1.0  0.74163  0.69887  0.34771  1.0000
  C   C170      1.0  0.9401300000000001  0.69416  0.3834600000000001  1.0000
  C   C171      1.0  0.87899  0.76719  0.08928000000000003  1.0000
  C   C172      1.0  0.7711  0.71515  0.41512  1.0000
  C   C173      1.0  0.7143900000000002  0.60796  0.10556000000000003  1.0000
  C   C174      1.0  0.7387200000000002  0.57449  0.4347200000000001  1.0000
  O   O111      1.0  0.86754  0.63702  0.10938000000000003  1.0000
  O   O112      1.0  0.9114400000000002  0.7862499999999999  0.15349000000000002  1.0000
  C   C175      1.0  0.43089  0.65404  0.97939  1.0000
  C   C176      1.0  0.43776  0.69097  0.9246100000000002  1.0000
  C   C177      1.0  0.48706  0.71499  0.8791500000000002  1.0000
  C   C178      1.0  0.52578  0.6958399999999999  0.8757700000000003  1.0000
  C   C179      1.0  0.50971  0.64652  0.90062  1.0000
  C   C180      1.0  0.46320000000000006  0.62729  0.9575400000000002  1.0000
  H   H71       1.0  0.49572999999999995  0.74929  0.8504500000000003  1.0000
  H   H72       1.0  0.45520000000000005  0.59472  0.9912400000000002  1.0000
  H   H73       1.0  0.40815000000000007  0.70605  0.92785  1.0000
  C   C181      1.0  0.53807  0.6129  0.86081  1.0000
  F   F55       1.0  0.5796700000000002  0.6223500000000001  0.9085600000000003  1.0000
  F   F56       1.0  0.50478  0.56302  0.8632600000000002  1.0000
  F   F57       1.0  0.5561700000000003  0.6207  0.77311  1.0000
  C   C182      1.0  0.48017000000000004  0.6925700000000001  0.43497000000000013  1.0000
  C   C183      1.0  0.4715200000000001  0.69374  0.52774  1.0000
  C   C184      1.0  0.5103  0.69499  0.5768700000000001  1.0000
  C   C185      1.0  0.55869  0.69616  0.5342800000000002  1.0000
  C   C186      1.0  0.5649800000000003  0.6883100000000001  0.4405900000000001  1.0000
  C   C187      1.0  0.52647  0.68867  0.39151000000000014  1.0000
  H   H74       1.0  0.5043899999999999  0.69931  0.64862  1.0000
  H   H75       1.0  0.53275  0.68627  0.31982  1.0000
  H   H76       1.0  0.4355100000000001  0.69556  0.56217  1.0000
  C   C188      1.0  0.61429  0.68336  0.3925900000000001  1.0000
  F   F58       1.0  0.60446  0.65636  0.3105  1.0000
  F   F59       1.0  0.65256  0.73042  0.38062  1.0000
  F   F60       1.0  0.63266  0.65864  0.44072  1.0000
  C   C189      1.0  0.63936  0.93759  0.5414100000000002  1.0000
  C   C190      1.0  0.66518  0.93709  0.4559100000000001  1.0000
  C   C191      1.0  0.7013900000000002  0.98211  0.4249900000000001  1.0000
  C   C192      1.0  0.7074100000000001  0.02783  0.47545  1.0000
  C   C193      1.0  0.6725800000000002  0.027840000000000014  0.5533600000000002  1.0000
  C   C194      1.0  0.63397  0.98191  0.57799  1.0000
  H   H77       1.0  0.7244600000000001  0.9815000000000002  0.3617800000000001  1.0000
  H   H78       1.0  0.60679  0.9811700000000001  0.6365500000000002  1.0000
  H   H79       1.0  0.66429  0.9019999999999999  0.4205200000000001  1.0000
  C   C195      1.0  0.67631  0.07603  0.6100800000000001  1.0000
  F   F61       1.0  0.64856  0.09774  0.57584  1.0000
  F   F62       1.0  0.6553800000000001  0.06681000000000001  0.6963100000000002  1.0000
  F   F63       1.0  0.72809  0.10936  0.61294  1.0000
  C   C196      1.0  0.68639  0.96224  0.9968700000000003  1.0000
  C   C197      1.0  0.6875600000000001  0.9733100000000001  0.08884  1.0000
  C   C198      1.0  0.6861400000000002  0.01886  0.12949  1.0000
  C   C199      1.0  0.6858600000000001  0.05436  0.07773  1.0000
  C   C200      1.0  0.6745  0.03915000000000002  0.9886600000000002  1.0000
  C   C201      1.0  0.6764999999999999  0.99366  0.9479800000000003  1.0000
  H   H80       1.0  0.6904  0.028440000000000003  0.19968  1.0000
  H   H81       1.0  0.6730599999999999  0.9839999999999999  0.8774600000000002  1.0000
  H   H82       1.0  0.69305  0.94834  0.12793  1.0000
  C   C202      1.0  0.66558  0.07323000000000003  0.9341600000000002  1.0000
  F   F64       1.0  0.71227  0.10021  0.8869000000000002  1.0000
  F   F65       1.0  0.62871  0.04531000000000001  0.8755300000000003  1.0000
  F   F66       1.0  0.64718  0.10608  0.98784  1.0000
  C   C203      1.0  0.7796  0.7802  0.9415600000000002  1.0000
  C   C204      1.0  0.82818  0.78117  0.9000100000000001  1.0000
  C   C205      1.0  0.8706700000000003  0.79414  0.9506500000000002  1.0000
  C   C206      1.0  0.86254  0.79862  0.04397000000000001  1.0000
  C   C207      1.0  0.8180200000000001  0.8080900000000001  0.0833  1.0000
  C   C208      1.0  0.77593  0.79682  0.03229  1.0000
  H   H83       1.0  0.9069899999999999  0.79206  0.9183300000000002  1.0000
  H   H84       1.0  0.7393900000000002  0.79852  0.06439000000000003  1.0000
  H   H85       1.0  0.8328600000000004  0.77082  0.8294900000000002  1.0000
  C   C209      1.0  0.8088700000000002  0.81635  0.18252000000000004  1.0000
  F   F67       1.0  0.77493  0.84065  0.20684  1.0000
  F   F68       1.0  0.7869400000000002  0.77013  0.21499  1.0000
  F   F69       1.0  0.85556  0.8451099999999999  0.21898000000000006  1.0000
  C   C210      1.0  0.78283  0.76557  0.4648000000000001  1.0000
  C   C211      1.0  0.78419  0.80573  0.4239100000000001  1.0000
  C   C212      1.0  0.8023  0.85412  0.4683700000000001  1.0000
  C   C213      1.0  0.8053400000000002  0.85973  0.5603400000000002  1.0000
  C   C214      1.0  0.81837  0.82461  0.59284  1.0000
  C   C215      1.0  0.80239  0.77575  0.5488500000000001  1.0000
  H   H86       1.0  0.80109  0.88436  0.4374000000000001  1.0000
  H   H87       1.0  0.8060800000000001  0.7463399999999999  0.57871  1.0000
  H   H88       1.0  0.76812  0.79929  0.36164  1.0000
  C   C216      1.0  0.8504800000000001  0.83949  0.6709600000000002  1.0000
  F   F70       1.0  0.8765900000000002  0.80829  0.67044  1.0000
  F   F71       1.0  0.88753  0.88794  0.6674300000000001  1.0000
  F   F72       1.0  0.81828  0.8371400000000001  0.74905  1.0000
