data_image0
_chemical_formula_structural       NiONiO3NiO7NiH2COC5O2NiONiO3NiO7NiH2COC5O2NiONiO3NiO7NiH2COC5O2NiONiO3NiO7NiH2COC5O2NiONiO3NiO7NiH2COC5O2NiONiO3NiO7NiH2COC5O2NiONiO3NiO7NiH2COC5O2NiONiO3NiO7NiH2COC5O2NiONiO3NiO7NiH2COC5O2NiONiO3NiO7NiH2COC5O2NiONiO3NiO7NiH2COC5O2NiONiO3NiO7NiH2COC5O2NiONiO3NiO7NiH2COC5O2NiONiO3NiO7NiH2COC5O2NiONiO3NiO7NiH2COC5O2NiONiO3NiO7NiH2COC5O2C5H6CH2CH2CH2C5H6CH2CH2CH2C5H6CH2CH2CH2C5H6CH2CH2CH2C5H6CH2CH2CH2C5H6CH2CH2CH2C5H6CH2CH2CH2C5H6CH2CH2CH2C5H6CH2CH2CH2C5H6CH2CH2CH2C5H6CH2CH2CH2C5H6CH2CH2CH2C5H6CH2CH2CH2C5H6CH2CH2CH2C5H6CH2CH2CH2C5H6CH2CH2CH2C5H6CH2CH2CH2C5H6CH2CH2CH2C5H6CH2CH2CH2C5H6CH2CH2CH2C5H6CH2CH2CH2C5H6CH2CH2CH2C5H6CH2CH2CH2C5H6CH2CH2CH2C5H6CH2CH2CH2C5H6CH2CH2CH2C5H6CH2CH2CH2C5H6CH2CH2CH2C5H6CH2CH2CH2C5H6CH2CH2CH2C5H6CH2CH2CH2C5H6CH2CH2CH2C5H6CH2CH2CH2C5H6CH2CH2CH2C5H6CH2CH2CH2C5H6CH2CH2CH2C5H6CH2CH2CH2C5H6CH2CH2CH2C5H6CH2CH2CH2C5H6CH2CH2CH2C5H6CH2CH2CH2C5H6CH2CH2CH2C5H6CH2CH2CH2C5H6CH2CH2CH2C5H6CH2CH2CH2C5H6CH2CH2CH2C5H6CH2CH2CH2C5H6CH2CH2CH2
_chemical_formula_sum              "Ni64 O224 H608 C480"
_cell_length_a       28.35816
_cell_length_b       29.32466
_cell_length_c       29.367580000000004
_cell_angle_alpha    90.80582
_cell_angle_beta     89.83818
_cell_angle_gamma    89.21626

_space_group_name_H-M_alt    "P 1"
_space_group_IT_number       1

loop_
  _space_group_symop_operation_xyz
  'x, y, z'

loop_
  _atom_site_type_symbol
  _atom_site_label
  _atom_site_symmetry_multiplicity
  _atom_site_fract_x
  _atom_site_fract_y
  _atom_site_fract_z
  _atom_site_occupancy
  Ni  Ni1       1.0  0.4897399999999999  0.49209000000000014  0.53915  1.0000
  O   O1        1.0  0.53041  0.5284300000000002  0.49527  1.0000
  Ni  Ni2       1.0  0.4915  0.5213  0.43778  1.0000
  O   O2        1.0  0.53922  0.49251  0.58974  1.0000
  O   O3        1.0  0.60959  0.48497  0.55198  1.0000
  O   O4        1.0  0.46054  0.55398  0.55955  1.0000
  Ni  Ni3       1.0  0.59347  0.5028700000000002  0.4848  1.0000
  O   O5        1.0  0.39334  0.43802  0.52512  1.0000
  O   O6        1.0  0.5626700000000001  0.44205  0.4707  1.0000
  O   O7        1.0  0.53079  0.5589700000000001  0.39722  1.0000
  O   O8        1.0  0.45607  0.48161  0.48055  1.0000
  O   O9        1.0  0.44503  0.45915  0.58176  1.0000
  O   O10       1.0  0.43760999999999994  0.52777  0.39141  1.0000
  O   O11       1.0  0.3893999999999999  0.55241  0.44877  1.0000
  Ni  Ni4       1.0  0.3892  0.4940200000000001  0.48737  1.0000
  H   H1        1.0  0.53211  0.5610100000000001  0.50431  1.0000
  H   H2        1.0  0.46063  0.4493000000000001  0.47119  1.0000
  C   C1        1.0  0.54764  0.43253  0.42943  1.0000
  O   O12       1.0  0.38483  0.53142  0.54656  1.0000
  C   C2        1.0  0.57972  0.4707400000000001  0.58321  1.0000
  C   C3        1.0  0.57627  0.55808  0.40305  1.0000
  C   C4        1.0  0.41472  0.56281  0.55977  1.0000
  C   C5        1.0  0.3996999999999999  0.5507700000000002  0.40506  1.0000
  C   C6        1.0  0.40525  0.44012  0.56837  1.0000
  O   O13       1.0  0.52115  0.46266  0.40715999999999997  1.0000
  O   O14       1.0  0.5971599999999998  0.5208  0.41814  1.0000
  Ni  Ni5       1.0  0.05368  0.50741  0.49468999999999996  1.0000
  O   O15       1.0  0.032639999999999995  0.44755  0.52481  1.0000
  Ni  Ni6       1.0  0.9685299999999999  0.44141  0.496  1.0000
  O   O16       1.0  0.10579  0.52525  0.54006  1.0000
  O   O17       1.0  0.09024  0.47735  0.598  1.0000
  O   O18       1.0  0.10372  0.47121  0.45789  1.0000
  Ni  Ni7       1.0  0.02245  0.4542800000000001  0.59022  1.0000
  O   O19       1.0  0.06461  0.52312  0.39203  1.0000
  O   O20       1.0  0.99275  0.51662  0.57786  1.0000
  O   O21       1.0  0.94389  0.3881  0.53324  1.0000
  O   O22       1.0  0.99301  0.49617  0.46204  1.0000
  O   O23       1.0  0.07069  0.56389  0.45884  1.0000
  O   O24       1.0  0.91129  0.43796000000000007  0.45356  1.0000
  O   O25       1.0  0.95823  0.42936  0.39043999999999995  1.0000
  Ni  Ni8       1.0  0.009119999999999998  0.47954000000000013  0.39949  1.0000
  H   H3        1.0  0.053059999999999996  0.4207300000000001  0.51779  1.0000
  H   H4        1.0  0.97153  0.52306  0.46362999999999993  1.0000
  C   C7        1.0  0.94919  0.51979  0.56223  1.0000
  O   O26       1.0  0.05088  0.4272  0.42066  1.0000
  C   C8        1.0  0.10234  0.5176300000000001  0.58394  1.0000
  C   C9        1.0  0.9425699999999998  0.39116  0.57801  1.0000
  C   C10       1.0  0.09377  0.43351  0.4357  1.0000
  C   C11       1.0  0.91622  0.42757  0.40998  1.0000
  C   C12       1.0  0.06879999999999999  0.5628200000000002  0.4138  1.0000
  O   O27       1.0  0.93107  0.48623  0.53743  1.0000
  O   O28       1.0  0.95728  0.4284000000000001  0.59847  1.0000
  Ni  Ni9       1.0  0.50443  0.53514  0.9474  1.0000
  O   O29       1.0  0.5389699999999998  0.49120000000000014  0.98846  1.0000
  Ni  Ni10      1.0  0.51072  0.50713  0.0484  1.0000
  O   O30       1.0  0.5560899999999998  0.53391  0.89874  1.0000
  O   O31       1.0  0.61006  0.55313  0.95271  1.0000
  O   O32       1.0  0.46835  0.48084  0.9170199999999997  1.0000
  Ni  Ni11      1.0  0.60701  0.4962  0.99364  1.0000
  O   O33       1.0  0.39763  0.5478800000000001  0.93276  1.0000
  O   O34       1.0  0.6179499999999998  0.53458  0.05191  1.0000
  O   O35       1.0  0.55613  0.4694  0.08789  1.0000
  O   O36       1.0  0.46984  0.5461800000000001  0.00641  1.0000
  O   O37       1.0  0.46648  0.57923  0.90983  1.0000
  O   O38       1.0  0.46424  0.51582  0.10065  1.0000
  O   O39       1.0  0.39135999999999993  0.51174  0.0669  1.0000
  Ni  Ni12      1.0  0.40438  0.52782  0.99872  1.0000
  H   H5        1.0  0.53089  0.45935  0.98049  1.0000
  H   H6        1.0  0.47118  0.57894  0.01487  1.0000
  C   C13       1.0  0.59192  0.5700500000000002  0.06431  1.0000
  O   O40       1.0  0.42428  0.46309  0.98016  1.0000
  C   C14       1.0  0.59671  0.55224  0.90965  1.0000
  C   C15       1.0  0.5834599999999998  0.4358300000000001  0.07123  1.0000
  C   C16       1.0  0.43864  0.45339  0.93827  1.0000
  C   C17       1.0  0.42246  0.49712  0.0971  1.0000
  C   C18       1.0  0.42073  0.5827000000000002  0.9160399999999999  1.0000
  O   O41       1.0  0.54557  0.5667  0.06517  1.0000
  O   O42       1.0  0.6067  0.43974  0.03213  1.0000
  Ni  Ni13      1.0  0.51952  0.04056  0.54456  1.0000
  O   O43       1.0  0.56111  0.01851  0.49238  1.0000
  Ni  Ni14      1.0  0.52678  0.9628300000000002  0.47272  1.0000
  O   O44       1.0  0.56453  0.0926  0.55617  1.0000
  O   O45       1.0  0.62871  0.04605  0.56887  1.0000
  O   O46       1.0  0.48511  0.08343  0.49995  1.0000
  Ni  Ni15      1.0  0.62314  0.9992100000000003  0.51379  1.0000
  O   O47       1.0  0.41228  0.05829  0.54952  1.0000
  O   O48       1.0  0.59513  0.95593  0.56023  1.0000
  O   O49       1.0  0.57062  0.9476100000000001  0.41944  1.0000
  O   O50       1.0  0.4878399999999999  0.9813500000000002  0.52967  1.0000
  O   O51       1.0  0.4764  0.0633  0.59607  1.0000
  O   O52       1.0  0.4805899999999999  0.9165300000000001  0.44509  1.0000
  O   O53       1.0  0.41283  0.9346100000000003  0.48339999999999994  1.0000
  Ni  Ni16      1.0  0.42226  0.9970800000000002  0.51597  1.0000
  H   H7        1.0  0.56341  0.04077000000000001  0.46746  1.0000
  H   H8        1.0  0.49041  0.95964  0.55508  1.0000
  C   C19       1.0  0.57943  0.9158100000000002  0.54795  1.0000
  O   O54       1.0  0.44432  0.02959  0.45937  1.0000
  C   C20       1.0  0.60606  0.0857  0.5744499999999999  1.0000
  C   C21       1.0  0.61633  0.9408800000000003  0.42588  1.0000
  C   C22       1.0  0.4617599999999999  0.07094  0.46291  1.0000
  C   C23       1.0  0.4343  0.9215100000000003  0.44549  1.0000
  C   C24       1.0  0.43107  0.07005  0.58908  1.0000
  O   O55       1.0  0.5584499999999999  0.9104800000000002  0.5083  1.0000
  O   O56       1.0  0.6349499999999999  0.94645  0.46733  1.0000
  Ni  Ni17      1.0  0.0532  0.45311  0.98909  1.0000
  O   O57       1.0  0.01492  0.4996500000000001  0.9527799999999998  1.0000
  Ni  Ni18      1.0  0.9561  0.50393  0.99165  1.0000
  O   O58       1.0  0.10289999999999999  0.4488600000000001  0.93943  1.0000
  O   O59       1.0  0.06104  0.44504  0.8731399999999999  1.0000
  O   O60       1.0  0.08426999999999998  0.50895  0.019529999999999995  1.0000
  Ni  Ni19      1.0  0.9979699999999998  0.4791900000000001  0.89145  1.0000
  O   O61       1.0  0.03259  0.3932100000000001  0.07811  1.0000
  O   O62       1.0  0.97142  0.4218500000000001  0.91931  1.0000
  O   O63       1.0  0.92331  0.55356  0.9558299999999998  1.0000
  O   O64       1.0  0.99178  0.45271  0.02244  1.0000
  O   O65       1.0  0.09311000000000003  0.40985  0.02855  1.0000
  O   O66       1.0  0.9106999999999998  0.51538  0.045829999999999996  1.0000
  O   O67       1.0  0.97298  0.52068  0.0945  1.0000
  Ni  Ni20      1.0  0.003389999999999999  0.4560800000000001  0.08745  1.0000
  H   H9        1.0  0.03043  0.52967  0.95177  1.0000
  H   H10       1.0  0.9763099999999999  0.42335  0.01571  1.0000
  C   C25       1.0  0.92783  0.42163  0.93437  1.0000
  O   O68       1.0  0.06908  0.4837400000000001  0.09087999999999999  1.0000
  C   C26       1.0  0.09208  0.42717000000000005  0.90155  1.0000
  C   C27       1.0  0.92531  0.55099  0.91109  1.0000
  C   C28       1.0  0.08307  0.51622  0.06389  1.0000
  C   C29       1.0  0.92811  0.52864  0.08559  1.0000
  C   C30       1.0  0.07633  0.38657  0.06329  1.0000
  O   O69       1.0  0.91211  0.4556100000000001  0.96107  1.0000
  O   O70       1.0  0.93353  0.51109  0.89093  1.0000
  Ni  Ni21      1.0  0.015960000000000002  0.028340000000000008  0.4967  1.0000
  O   O71       1.0  0.9759999999999999  0.9863600000000002  0.53612  1.0000
  Ni  Ni22      1.0  0.016879999999999996  0.9297700000000002  0.53444  1.0000
  O   O72       1.0  0.96321  0.07524  0.48601  1.0000
  O   O73       1.0  0.89605  0.0346  0.49095  1.0000
  O   O74       1.0  0.03911999999999999  0.06636  0.55342  1.0000
  Ni  Ni23      1.0  0.91511  0.9692400000000002  0.50937  1.0000
  O   O75       1.0  0.12153999999999997  0.05386000000000001  0.50019  1.0000
  O   O76       1.0  0.94473  0.94878  0.44873  1.0000
  O   O77       1.0  0.97502  0.88999  0.5741699999999998  1.0000
  O   O78       1.0  0.05739  0.97212  0.49643  1.0000
  O   O79       1.0  0.05727  0.06571  0.45534  1.0000
  O   O80       1.0  0.07051999999999999  0.8843100000000003  0.54129  1.0000
  O   O81       1.0  0.1362  0.92624  0.55323  1.0000
  Ni  Ni24      1.0  0.11830999999999994  0.98873  0.52387  1.0000
  H   H11       1.0  0.97225  0.99804  0.56773  1.0000
  H   H12       1.0  0.06181  0.9604200000000003  0.46489  1.0000
  C   C31       1.0  0.96344  0.90729  0.44575  1.0000
  O   O82       1.0  0.08667  0.01044  0.58253  1.0000
  C   C32       1.0  0.92263  0.06291  0.46855  1.0000
  C   C33       1.0  0.9295599999999998  0.88877  0.56594  1.0000
  C   C34       1.0  0.06869  0.05185  0.58547  1.0000
  C   C35       1.0  0.1062  0.89533  0.56706  1.0000
  C   C36       1.0  0.10304  0.06795  0.46158  1.0000
  O   O83       1.0  0.9965  0.8946300000000003  0.4753  1.0000
  O   O84       1.0  0.9139899999999997  0.90324  0.52696  1.0000
  Ni  Ni25      1.0  0.4999799999999999  0.9845000000000002  0.96821  1.0000
  O   O85       1.0  0.47058  0.027220000000000008  0.01641  1.0000
  Ni  Ni26      1.0  0.50887  0.0079  0.07091  1.0000
  O   O86       1.0  0.44831  0.99693  0.92192  1.0000
  O   O87       1.0  0.38014  0.0036700000000000014  0.96262  1.0000
  O   O88       1.0  0.5374  0.0381  0.94153  1.0000
  Ni  Ni27      1.0  0.40364  0.01532  0.02946  1.0000
  O   O89       1.0  0.6029499999999999  0.9728700000000002  0.9402699999999999  1.0000
  O   O90       1.0  0.41994  0.94788  0.03577  1.0000
  O   O91       1.0  0.47927  0.05132  0.11662  1.0000
  O   O92       1.0  0.53944  0.96681  0.02238  1.0000
  O   O93       1.0  0.53228  0.9416500000000002  0.92271  1.0000
  O   O94       1.0  0.5608700000000002  0.9970600000000002  0.11730999999999998  1.0000
  O   O95       1.0  0.62873  0.99511  0.07578  1.0000
  Ni  Ni28      1.0  0.60514  0.98406  0.00894  1.0000
  H   H13       1.0  0.47551  0.05982  0.00984  1.0000
  H   H14       1.0  0.53669  0.9339400000000001  0.02903  1.0000
  C   C37       1.0  0.43698  0.9316  0.07384  1.0000
  O   O96       1.0  0.58632  0.05085  0.00209  1.0000
  C   C38       1.0  0.40529  0.9835600000000002  0.93006  1.0000
  C   C39       1.0  0.43368  0.05782000000000001  0.11733  1.0000
  C   C40       1.0  0.5658699999999999  0.06525  0.96466  1.0000
  C   C41       1.0  0.60293  0.01298  0.10911  1.0000
  C   C42       1.0  0.57851  0.9397200000000002  0.92148  1.0000
  O   O97       1.0  0.47006  0.95399  0.09658  1.0000
  O   O98       1.0  0.40563  0.027560000000000008  0.0982  1.0000
  Ni  Ni29      1.0  0.016139999999999998  0.9929400000000003  0.08068  1.0000
  O   O99       1.0  0.048499999999999995  0.02241  0.02663  1.0000
  Ni  Ni30      1.0  0.00222  0.007630000000000001  0.97658  1.0000
  O   O100      1.0  0.07338999999999998  0.9934900000000001  0.12351  1.0000
  O   O101      1.0  0.13628  0.99145  0.07563999999999999  1.0000
  O   O102      1.0  0.9892  0.05647  0.10186  1.0000
  Ni  Ni31      1.0  0.10918  0.99379  0.01002  1.0000
  O   O103      1.0  0.90943  0.98921  0.11258  1.0000
  O   O104      1.0  0.0784  0.9314400000000003  0.00948  1.0000
  O   O105      1.0  0.0379  0.04083000000000001  0.92699  1.0000
  O   O106      1.0  0.9705199999999998  0.9750000000000002  0.02988  1.0000
  O   O107      1.0  0.98251  0.9679400000000001  0.13448  1.0000
  O   O108      1.0  0.94588  0.006400000000000004  0.93307  1.0000
  O   O109      1.0  0.88118  0.0035199999999999993  0.97804  1.0000
  Ni  Ni32      1.0  0.9058  0.99656  0.04416  1.0000
  H   H15       1.0  0.05145  0.05582  0.030689999999999995  1.0000
  H   H16       1.0  0.97122  0.9415100000000002  0.02525  1.0000
  C   C43       1.0  0.05820999999999998  0.91733  0.97155  1.0000
  O   O110      1.0  0.93369  0.05964000000000001  0.04576  1.0000
  C   C44       1.0  0.11318  0.97399  0.10979  1.0000
  C   C45       1.0  0.08257  0.03028  0.92226  1.0000
  C   C46       1.0  0.95061  0.07543  0.08419  1.0000
  C   C47       1.0  0.9051599999999999  0.023850000000000003  0.94622  1.0000
  C   C48       1.0  0.938  0.95919  0.13087  1.0000
  O   O111      1.0  0.025920000000000002  0.94393  0.9517999999999999  1.0000
  O   O112      1.0  0.09927  0.9945600000000002  0.94242  1.0000
  Ni  Ni33      1.0  0.83092  0.7492200000000001  0.25524  1.0000
  O   O113      1.0  0.77629  0.71667  0.28547  1.0000
  Ni  Ni34      1.0  0.7231  0.73463  0.24266  1.0000
  O   O114      1.0  0.87681  0.74718  0.30947  1.0000
  O   O115      1.0  0.82994  0.74614  0.37194  1.0000
  O   O116      1.0  0.85346  0.68736  0.22591  1.0000
  Ni  Ni35      1.0  0.7616  0.73848  0.34763999999999995  1.0000
  O   O117      1.0  0.86213  0.75495  0.15276  1.0000
  O   O118      1.0  0.75808  0.80263  0.32244  1.0000
  O   O119      1.0  0.6725999999999998  0.6995600000000002  0.27395  1.0000
  O   O120      1.0  0.77751  0.76857  0.21282  1.0000
  O   O121      1.0  0.8851199999999999  0.7772300000000002  0.22311  1.0000
  O   O122      1.0  0.67656  0.7371300000000002  0.1891  1.0000
  O   O123      1.0  0.72241  0.74072  0.12609  1.0000
  Ni  Ni36      1.0  0.79126  0.74767  0.14977  1.0000
  H   H17       1.0  0.7810399999999998  0.68315  0.28484  1.0000
  H   H18       1.0  0.7725  0.8020200000000002  0.21438  1.0000
  C   C49       1.0  0.7178599999999998  0.81797  0.30644  1.0000
  O   O124      1.0  0.79316  0.68338  0.17412  1.0000
  C   C50       1.0  0.86349  0.7656100000000001  0.34871  1.0000
  C   C51       1.0  0.67395  0.69671  0.31808  1.0000
  C   C52       1.0  0.83219  0.6663500000000002  0.19121  1.0000
  C   C53       1.0  0.6893  0.7202600000000002  0.14914  1.0000
  C   C54       1.0  0.88133  0.78521  0.17998  1.0000
  O   O125      1.0  0.69662  0.79508  0.27292  1.0000
  O   O126      1.0  0.6913399999999998  0.7302100000000002  0.34236  1.0000
  Ni  Ni37      1.0  0.73349  0.28373  0.73715  1.0000
  O   O127      1.0  0.76178  0.22397000000000006  0.76222  1.0000
  Ni  Ni38      1.0  0.73329  0.22637  0.82495  1.0000
  O   O128      1.0  0.77742  0.28738000000000014  0.68188  1.0000
  O   O129      1.0  0.84107  0.24496000000000007  0.70289  1.0000
  O   O130      1.0  0.68827  0.24669000000000005  0.69725  1.0000
  Ni  Ni39      1.0  0.83025  0.22597000000000003  0.76988  1.0000
  O   O131      1.0  0.62833  0.30949  0.72482  1.0000
  O   O132      1.0  0.82109  0.2908100000000001  0.79461  1.0000
  O   O133      1.0  0.76675  0.16999  0.8506  1.0000
  O   O134      1.0  0.70119  0.28241  0.79762  1.0000
  O   O135      1.0  0.7007  0.34199  0.71588  1.0000
  O   O136      1.0  0.6877899999999998  0.22678  0.87861  1.0000
  O   O137      1.0  0.61594  0.24371  0.84721  1.0000
  Ni  Ni40      1.0  0.63331  0.2752000000000001  0.7854699999999999  1.0000
  H   H19       1.0  0.75229  0.19620000000000007  0.74525  1.0000
  H   H20       1.0  0.70717  0.3107300000000001  0.8152999999999999  1.0000
  C   C55       1.0  0.80872  0.29838  0.83744  1.0000
  O   O138      1.0  0.6429799999999999  0.21410000000000007  0.7520299999999999  1.0000
  C   C56       1.0  0.82334  0.28238  0.68534  1.0000
  C   C57       1.0  0.81292  0.16601  0.84825  1.0000
  C   C58       1.0  0.6634499999999998  0.21208000000000005  0.71159  1.0000
  C   C59       1.0  0.6435  0.21636  0.87132  1.0000
  C   C60       1.0  0.65432  0.34453  0.7124  1.0000
  O   O139      1.0  0.78007  0.26973  0.8584  1.0000
  O   O140      1.0  0.83758  0.20059000000000005  0.83368  1.0000
  Ni  Ni41      1.0  0.24572  0.7835600000000001  0.80249  1.0000
  O   O141      1.0  0.22127  0.71987  0.78802  1.0000
  Ni  Ni42      1.0  0.24710999999999994  0.7117600000000001  0.72521  1.0000
  O   O142      1.0  0.20692999999999995  0.7886300000000003  0.86139  1.0000
  O   O143      1.0  0.13882999999999998  0.75084  0.84539  1.0000
  O   O144      1.0  0.30125  0.7513400000000002  0.83489  1.0000
  Ni  Ni43      1.0  0.15230999999999997  0.71637  0.78377  1.0000
  O   O145      1.0  0.34765  0.81729  0.79807  1.0000
  O   O146      1.0  0.14826  0.7739100000000002  0.74475  1.0000
  O   O147      1.0  0.2211  0.64837  0.71537  1.0000
  O   O148      1.0  0.2691  0.77693  0.73799  1.0000
  O   O149      1.0  0.2744199999999999  0.8456300000000002  0.81577  1.0000
  O   O150      1.0  0.28314  0.7064500000000002  0.66533  1.0000
  O   O151      1.0  0.35116  0.7453000000000002  0.67686  1.0000
  Ni  Ni44      1.0  0.33836  0.7808900000000002  0.73859  1.0000
  H   H21       1.0  0.23364999999999994  0.69606  0.80851  1.0000
  H   H22       1.0  0.25506  0.80024  0.71792  1.0000
  C   C61       1.0  0.16645  0.7731200000000003  0.7033  1.0000
  O   O152      1.0  0.34022  0.7214800000000002  0.77236  1.0000
  C   C62       1.0  0.16039999999999993  0.78765  0.8605  1.0000
  C   C63       1.0  0.17525  0.64243  0.71335  1.0000
  C   C64       1.0  0.32674  0.71834  0.8151  1.0000
  C   C65       1.0  0.32928  0.70766  0.66409  1.0000
  C   C66       1.0  0.32032  0.85117  0.81333  1.0000
  O   O153      1.0  0.19152  0.73761  0.68937  1.0000
  O   O154      1.0  0.14584  0.67539  0.72712  1.0000
  Ni  Ni45      1.0  0.30573999999999996  0.27294  0.76622  1.0000
  O   O155      1.0  0.29442  0.21408999999999997  0.7997699999999999  1.0000
  Ni  Ni46      1.0  0.22922999999999993  0.20201  0.77747  1.0000
  O   O156      1.0  0.36539  0.2898  0.80222  1.0000
  O   O157      1.0  0.35377  0.25876  0.87211  1.0000
  O   O158      1.0  0.34165  0.23192  0.7184  1.0000
  Ni  Ni47      1.0  0.2921  0.2202900000000001  0.86625  1.0000
  O   O159      1.0  0.29815  0.28717000000000004  0.6658699999999999  1.0000
  O   O160      1.0  0.25164  0.27752  0.86017  1.0000
  O   O161      1.0  0.22557  0.14409  0.81181  1.0000
  O   O162      1.0  0.23864  0.2625  0.74603  1.0000
  O   O163      1.0  0.31505  0.32909  0.72891  1.0000
  O   O164      1.0  0.16927  0.18053  0.74263  1.0000
  O   O165      1.0  0.17320999999999998  0.22312000000000004  0.67863  1.0000
  Ni  Ni48      1.0  0.23859999999999998  0.25386  0.68029  1.0000
  H   H23       1.0  0.3163199999999999  0.18901  0.79064  1.0000
  H   H24       1.0  0.21685999999999997  0.28742  0.75581  1.0000
  C   C67       1.0  0.20737  0.27593  0.84693  1.0000
  O   O166      1.0  0.27611  0.19548  0.69023  1.0000
  C   C68       1.0  0.3635  0.29455  0.847  1.0000
  C   C69       1.0  0.22014  0.14583  0.85583  1.0000
  C   C70       1.0  0.32215  0.19640000000000005  0.6969299999999999  1.0000
  C   C71       1.0  0.16476  0.18397  0.69793  1.0000
  C   C72       1.0  0.30959  0.32624  0.68483  1.0000
  O   O167      1.0  0.19071  0.23886  0.8262  1.0000
  O   O168      1.0  0.23377  0.18207  0.87956  1.0000
  Ni  Ni49      1.0  0.19697  0.72248  0.23228  1.0000
  O   O169      1.0  0.23163  0.77259  0.26825  1.0000
  Ni  Ni50      1.0  0.29594  0.76689  0.23948  1.0000
  O   O170      1.0  0.13979999999999995  0.7195000000000001  0.27517  1.0000
  O   O171      1.0  0.16878  0.7436000000000003  0.34324  1.0000
  O   O172      1.0  0.16572  0.77253  0.19226  1.0000
  Ni  Ni51      1.0  0.23945  0.7583200000000002  0.3329  1.0000
  O   O173      1.0  0.18644  0.7047800000000002  0.12858  1.0000
  O   O174      1.0  0.25848  0.6937500000000002  0.31289  1.0000
  O   O175      1.0  0.32858  0.8146400000000001  0.27971  1.0000
  O   O176      1.0  0.26108  0.71739  0.20301  1.0000
  O   O177      1.0  0.16653  0.67147  0.19542  1.0000
  O   O178      1.0  0.35228  0.7692300000000002  0.19599  1.0000
  O   O179      1.0  0.32285  0.74962  0.12656  1.0000
  Ni  Ni52      1.0  0.25339  0.72901  0.13758  1.0000
  H   H25       1.0  0.21789  0.80347  0.26418  1.0000
  H   H26       1.0  0.27466  0.6865200000000001  0.20755  1.0000
  C   C73       1.0  0.30243  0.68443  0.30066  1.0000
  O   O180      1.0  0.23167  0.79387  0.1525  1.0000
  C   C74       1.0  0.1462  0.71307  0.31896  1.0000
  C   C75       1.0  0.3282  0.80997  0.32421  1.0000
  C   C76       1.0  0.19010999999999997  0.80402  0.17055  1.0000
  C   C77       1.0  0.34507  0.7789900000000002  0.15302  1.0000
  C   C78       1.0  0.17006999999999997  0.6694400000000003  0.15085  1.0000
  O   O181      1.0  0.32654  0.71437  0.2766  1.0000
  O   O182      1.0  0.30828  0.7741700000000002  0.34202999999999995  1.0000
  Ni  Ni53      1.0  0.78236  0.21595  0.26813  1.0000
  O   O183      1.0  0.7407699999999999  0.26013  0.23175  1.0000
  Ni  Ni54      1.0  0.6789  0.25184  0.26457  1.0000
  O   O184      1.0  0.8376899999999999  0.21345000000000006  0.22299999999999998  1.0000
  O   O185      1.0  0.80358  0.22868  0.15489  1.0000
  O   O186      1.0  0.8124699999999998  0.27174  0.2997  1.0000
  Ni  Ni55      1.0  0.7321699999999998  0.24060000000000006  0.16826  1.0000
  O   O187      1.0  0.80122  0.21723  0.36994  1.0000
  O   O188      1.0  0.7214699999999998  0.17699  0.19259  1.0000
  O   O189      1.0  0.63964  0.2939  0.22535  1.0000
  O   O190      1.0  0.72118  0.21002  0.30234999999999995  1.0000
  O   O191      1.0  0.82081  0.17339  0.30825  1.0000
  O   O192      1.0  0.62471  0.25542000000000004  0.31075  1.0000
  O   O193      1.0  0.66112  0.24925000000000005  0.37935  1.0000
  Ni  Ni56      1.0  0.73148  0.23281000000000004  0.36487  1.0000
  H   H27       1.0  0.7511599999999998  0.29218  0.23389  1.0000
  H   H28       1.0  0.71055  0.178  0.30213  1.0000
  C   C79       1.0  0.67923  0.16509  0.20619  1.0000
  O   O194      1.0  0.74796  0.29555  0.3416  1.0000
  C   C80       1.0  0.83124  0.20283000000000004  0.17994  1.0000
  C   C81       1.0  0.64069  0.28889  0.1811  1.0000
  C   C82       1.0  0.7907499999999998  0.30286  0.3257999999999999  1.0000
  C   C83       1.0  0.6330799999999999  0.27184  0.35178  1.0000
  C   C84       1.0  0.82006  0.17971000000000006  0.35259  1.0000
  O   O195      1.0  0.6526899999999999  0.19419  0.23084  1.0000
  O   O196      1.0  0.66157  0.25281  0.16256  1.0000
  Ni  Ni57      1.0  0.29096  0.23996  0.32691  1.0000
  O   O197      1.0  0.32347999999999993  0.28879  0.29075000000000006  1.0000
  Ni  Ni58      1.0  0.29008  0.28459  0.23099  1.0000
  O   O198      1.0  0.34524  0.23441  0.37181  1.0000
  O   O199      1.0  0.39907  0.22037  0.31531999999999993  1.0000
  O   O200      1.0  0.25848  0.2895200000000001  0.36876  1.0000
  Ni  Ni59      1.0  0.39102  0.28183  0.28054999999999997  1.0000
  O   O201      1.0  0.18559  0.23244000000000006  0.34657  1.0000
  O   O202      1.0  0.39414  0.24820000000000006  0.21899  1.0000
  O   O203      1.0  0.3332  0.32513  0.19299  1.0000
  O   O204      1.0  0.25231  0.23994  0.26916  1.0000
  O   O205      1.0  0.25363  0.19211000000000006  0.35957  1.0000
  O   O206      1.0  0.24099999999999996  0.2849700000000001  0.17921  1.0000
  O   O207      1.0  0.18234  0.30514  0.22912  1.0000
  Ni  Ni60      1.0  0.1903  0.26317  0.28434  1.0000
  H   H29       1.0  0.31758  0.31936  0.30441999999999997  1.0000
  H   H30       1.0  0.2508  0.20892000000000005  0.25552  1.0000
  C   C85       1.0  0.36412  0.21655  0.20734  1.0000
  O   O208      1.0  0.22449  0.31848  0.30725  1.0000
  C   C86       1.0  0.38488  0.21503000000000005  0.35786  1.0000
  C   C87       1.0  0.36793  0.35096000000000005  0.20893  1.0000
  C   C88       1.0  0.23325999999999994  0.32218  0.35015  1.0000
  C   C89       1.0  0.19665  0.29684  0.18724  1.0000
  C   C90       1.0  0.20722  0.19385  0.35790999999999995  1.0000
  O   O209      1.0  0.31951  0.22713000000000005  0.20317  1.0000
  O   O210      1.0  0.38983  0.34253  0.24807  1.0000
  Ni  Ni61      1.0  0.6975599999999997  0.75382  0.7295599999999999  1.0000
  O   O211      1.0  0.72684  0.69753  0.69773  1.0000
  Ni  Ni62      1.0  0.7909399999999999  0.6979400000000002  0.72597  1.0000
  O   O212      1.0  0.64031  0.7561000000000002  0.68762  1.0000
  O   O213      1.0  0.66756  0.7279200000000002  0.61975  1.0000
  O   O214      1.0  0.66625  0.7085  0.77367  1.0000
  Ni  Ni63      1.0  0.73577  0.7034500000000001  0.63181  1.0000
  O   O215      1.0  0.69006  0.7727800000000002  0.83067  1.0000
  O   O216      1.0  0.76378  0.7666000000000002  0.6421399999999999  1.0000
  O   O217      1.0  0.81573  0.64133  0.69257  1.0000
  O   O218      1.0  0.76304  0.75617  0.75572  1.0000
  O   O219      1.0  0.66951  0.8079700000000002  0.76537  1.0000
  O   O220      1.0  0.8501  0.69629  0.76534  1.0000
  O   O221      1.0  0.8269799999999998  0.7303000000000002  0.83178  1.0000
  Ni  Ni64      1.0  0.75727  0.7501200000000002  0.82187  1.0000
  H   H31       1.0  0.71035  0.6689  0.70464  1.0000
  H   H32       1.0  0.77943  0.78448  0.74746  1.0000
  C   C91       1.0  0.80727  0.77073  0.65746  1.0000
  O   O222      1.0  0.73493  0.68607  0.80853  1.0000
  C   C92       1.0  0.64722  0.7609800000000002  0.6437  1.0000
  C   C93       1.0  0.8179499999999998  0.6404300000000003  0.64783  1.0000
  C   C94       1.0  0.69048  0.6785600000000002  0.79825  1.0000
  C   C95       1.0  0.84674  0.69577  0.80978  1.0000
  C   C96       1.0  0.67334  0.8088200000000002  0.80992  1.0000
  O   O223      1.0  0.82671  0.73785  0.68136  1.0000
  O   O224      1.0  0.8016999999999997  0.67544  0.62457  1.0000
  C   C97       1.0  0.9306799999999998  0.15915  0.09667  1.0000
  C   C98       1.0  0.92067  0.10967000000000003  0.11162  1.0000
  C   C99       1.0  0.89634  0.14188  0.18991  1.0000
  C   C100      1.0  0.86478  0.16925  0.15619  1.0000
  C   C101      1.0  0.89795  0.1939  0.12244  1.0000
  H   H33       1.0  0.9682  0.16748  0.10348999999999998  1.0000
  H   H34       1.0  0.92506  0.16230000000000006  0.05933  1.0000
  H   H35       1.0  0.87383  0.12342000000000003  0.21449  1.0000
  H   H36       1.0  0.91857  0.16571000000000005  0.21008  1.0000
  H   H37       1.0  0.91983  0.21902000000000005  0.14134  1.0000
  H   H38       1.0  0.87676  0.21330000000000005  0.09721  1.0000
  C   C102      1.0  0.83517  0.13444  0.12885  1.0000
  H   H39       1.0  0.81188  0.15236000000000005  0.10419999999999999  1.0000
  H   H40       1.0  0.81181  0.11555000000000003  0.15234  1.0000
  C   C103      1.0  0.8673699999999998  0.10026  0.10270999999999998  1.0000
  H   H41       1.0  0.8585999999999998  0.06504  0.11307  1.0000
  H   H42       1.0  0.85935  0.10281  0.06573  1.0000
  C   C104      1.0  0.92884  0.10698000000000003  0.16386  1.0000
  H   H43       1.0  0.92154  0.07191  0.17578  1.0000
  H   H44       1.0  0.9663499999999998  0.11421000000000003  0.1719  1.0000
  C   C105      1.0  0.12474  0.86506  0.18843  1.0000
  C   C106      1.0  0.16698  0.8493  0.15763  1.0000
  C   C107      1.0  0.12778  0.89125  0.09214999999999998  1.0000
  C   C108      1.0  0.13102  0.92898  0.12963  1.0000
  C   C109      1.0  0.10395  0.9119900000000002  0.17225  1.0000
  H   H45       1.0  0.09656  0.83903  0.18741999999999998  1.0000
  H   H46       1.0  0.13656  0.8682900000000002  0.22441  1.0000
  H   H47       1.0  0.14732999999999993  0.9019200000000003  0.06127  1.0000
  H   H48       1.0  0.09025  0.8862600000000003  0.08258  1.0000
  H   H49       1.0  0.06600999999999999  0.9081900000000002  0.16408  1.0000
  H   H50       1.0  0.10632  0.9376500000000002  0.20038  1.0000
  C   C110      1.0  0.18363  0.9337  0.14326  1.0000
  H   H51       1.0  0.18703  0.95986  0.17085  1.0000
  H   H52       1.0  0.20481  0.9455600000000002  0.11383  1.0000
  C   C111      1.0  0.20443  0.8876800000000002  0.15952  1.0000
  H   H53       1.0  0.23529999999999995  0.8784900000000002  0.13758  1.0000
  H   H54       1.0  0.21783999999999995  0.8917100000000002  0.19492  1.0000
  C   C112      1.0  0.14876  0.84531  0.10813  1.0000
  H   H55       1.0  0.17799999999999994  0.8346300000000002  0.08475  1.0000
  H   H56       1.0  0.12138  0.81853  0.10575999999999999  1.0000
  C   C113      1.0  0.184  0.11541  0.92758  1.0000
  C   C114      1.0  0.18315  0.1164  0.87487  1.0000
  C   C115      1.0  0.15193  0.03601  0.87299  1.0000
  C   C116      1.0  0.11685  0.06306  0.90433  1.0000
  C   C117      1.0  0.14481  0.08405  0.94495  1.0000
  H   H57       1.0  0.21897  0.10286  0.93963  1.0000
  H   H58       1.0  0.17831  0.15034000000000006  0.94206  1.0000
  H   H59       1.0  0.13284  0.02105  0.84335  1.0000
  H   H60       1.0  0.16874  0.007140000000000002  0.89145  1.0000
  H   H61       1.0  0.16120999999999996  0.056680000000000015  0.9658  1.0000
  H   H62       1.0  0.12043  0.10389  0.96774  1.0000
  C   C118      1.0  0.09432999999999997  0.10226  0.87677  1.0000
  H   H63       1.0  0.06914  0.12234  0.89848  1.0000
  H   H64       1.0  0.07420999999999998  0.08817  0.8474  1.0000
  C   C119      1.0  0.13356  0.13387  0.85938  1.0000
  H   H65       1.0  0.13182  0.13516  0.82155  1.0000
  H   H66       1.0  0.12707  0.1692  0.87255  1.0000
  C   C120      1.0  0.19096  0.06714  0.8560699999999999  1.0000
  H   H67       1.0  0.19073  0.06642  0.81814  1.0000
  H   H68       1.0  0.22597  0.05363  0.86706  1.0000
  C   C121      1.0  0.15481  0.86906  0.88784  1.0000
  C   C122      1.0  0.13265  0.8212200000000001  0.89041  1.0000
  C   C123      1.0  0.10565  0.8423100000000002  0.97134  1.0000
  C   C124      1.0  0.08439999999999999  0.8814700000000002  0.94214  1.0000
  C   C125      1.0  0.12573  0.90415  0.91618  1.0000
  H   H69       1.0  0.1916499999999999  0.8680600000000003  0.90088  1.0000
  H   H70       1.0  0.15657  0.88015  0.85176  1.0000
  H   H71       1.0  0.07714  0.82525  0.99054  1.0000
  H   H72       1.0  0.13059  0.8564900000000002  0.99674  1.0000
  H   H73       1.0  0.14959  0.92164  0.94065  1.0000
  H   H74       1.0  0.11140999999999998  0.9298500000000002  0.89221  1.0000
  C   C126      1.0  0.05182  0.85937  0.90581  1.0000
  H   H75       1.0  0.03545  0.88608  0.88418  1.0000
  H   H76       1.0  0.022599999999999985  0.8412300000000003  0.9229  1.0000
  C   C127      1.0  0.08021  0.8253600000000001  0.87482  1.0000
  H   H77       1.0  0.06307  0.7914700000000002  0.87587  1.0000
  H   H78       1.0  0.07872  0.8369500000000002  0.83891  1.0000
  C   C128      1.0  0.13264  0.80657  0.94102  1.0000
  H   H79       1.0  0.11575999999999999  0.7727200000000002  0.94422  1.0000
  H   H80       1.0  0.16951  0.8027800000000003  0.9534499999999999  1.0000
  C   C129      1.0  0.88974  0.12126  0.85714  1.0000
  C   C130      1.0  0.8378  0.12788000000000002  0.87372  1.0000
  C   C131      1.0  0.83774  0.04289  0.89299  1.0000
  C   C132      1.0  0.8813199999999999  0.061350000000000016  0.91898  1.0000
  C   C133      1.0  0.91508  0.08254  0.8835  1.0000
  H   H81       1.0  0.89037  0.11303000000000003  0.82002  1.0000
  H   H82       1.0  0.90962  0.15341000000000005  0.86214  1.0000
  H   H83       1.0  0.8125  0.02758  0.91732  1.0000
  H   H84       1.0  0.8489599999999999  0.01539  0.86863  1.0000
  H   H85       1.0  0.9276899999999998  0.05585  0.85886  1.0000
  H   H86       1.0  0.94672  0.09641000000000002  0.90095  1.0000
  C   C134      1.0  0.8641299999999997  0.10032  0.95184  1.0000
  H   H87       1.0  0.89465  0.11464000000000005  0.97074  1.0000
  H   H88       1.0  0.83944  0.08666  0.97768  1.0000
  C   C135      1.0  0.83879  0.139  0.92549  1.0000
  H   H89       1.0  0.80217  0.1435  0.93872  1.0000
  H   H90       1.0  0.8572899999999998  0.17174  0.93173  1.0000
  C   C136      1.0  0.81228  0.08167  0.86671  1.0000
  H   H91       1.0  0.77511  0.08464  0.8788  1.0000
  H   H92       1.0  0.81118  0.07264  0.8298  1.0000
  C   C137      1.0  0.86592  0.8677  0.19086  1.0000
  C   C138      1.0  0.89491  0.8307  0.16377  1.0000
  C   C139      1.0  0.90232  0.8871800000000001  0.09944  1.0000
  C   C140      1.0  0.92142  0.91282  0.14219  1.0000
  C   C141      1.0  0.88195  0.9159600000000002  0.17849  1.0000
  H   H93       1.0  0.82768  0.86428  0.18323  1.0000
  H   H94       1.0  0.87017  0.8633200000000002  0.22823999999999997  1.0000
  H   H95       1.0  0.9300599999999999  0.8849300000000003  0.07261  1.0000
  H   H96       1.0  0.87176  0.90618  0.08492999999999999  1.0000
  H   H97       1.0  0.8513199999999999  0.93596  0.16544  1.0000
  H   H98       1.0  0.89491  0.9339300000000003  0.20959  1.0000
  C   C142      1.0  0.96346  0.8842800000000002  0.1615  1.0000
  H   H99       1.0  0.97845  0.9015800000000003  0.19212  1.0000
  H   H100      1.0  0.9920599999999999  0.8809600000000002  0.13553  1.0000
  C   C143      1.0  0.9478599999999998  0.8365200000000003  0.17439  1.0000
  H   H101      1.0  0.96929  0.8105200000000002  0.15521  1.0000
  H   H102      1.0  0.9549599999999999  0.83149  0.2113  1.0000
  C   C144      1.0  0.88695  0.8383200000000001  0.11212  1.0000
  H   H103      1.0  0.9076499999999998  0.8127400000000001  0.09172999999999999  1.0000
  H   H104      1.0  0.84908  0.83385  0.10355  1.0000
  C   C145      1.0  0.6732299999999999  0.04283  0.15243  1.0000
  C   C146      1.0  0.62186  0.05289  0.13702  1.0000
  C   C147      1.0  0.61263  0.10589  0.20725  1.0000
  C   C148      1.0  0.6569799999999998  0.12414000000000003  0.18259  1.0000
  C   C149      1.0  0.69361  0.08414  0.17887  1.0000
  H   H105      1.0  0.67415  0.01223  0.17443  1.0000
  H   H106      1.0  0.69609  0.03504000000000001  0.12235  1.0000
  H   H107      1.0  0.58513  0.13324  0.21006  1.0000
  H   H108      1.0  0.6219399999999999  0.09567  0.24248999999999998  1.0000
  H   H109      1.0  0.7044799999999999  0.07335  0.21353  1.0000
  H   H110      1.0  0.72599  0.09539  0.16098999999999997  1.0000
  C   C150      1.0  0.64224  0.13751  0.13358  1.0000
  H   H111      1.0  0.67314  0.15072  0.11464  1.0000
  H   H112      1.0  0.61529  0.16547  0.13505  1.0000
  C   C151      1.0  0.62201  0.09614000000000003  0.10712  1.0000
  H   H113      1.0  0.58548  0.10441000000000003  0.09577  1.0000
  H   H114      1.0  0.64357  0.08972  0.07588  1.0000
  C   C152      1.0  0.59216  0.06418  0.18067  1.0000
  H   H115      1.0  0.55503  0.07189  0.1712  1.0000
  H   H116      1.0  0.59167  0.03404  0.20327  1.0000
  C   C153      1.0  0.34454  0.13538  0.18501  1.0000
  C   C154      1.0  0.38214  0.17372000000000007  0.1842  1.0000
  C   C155      1.0  0.44582  0.11197000000000003  0.18337  1.0000
  C   C156      1.0  0.41384  0.09906  0.14212  1.0000
  C   C157      1.0  0.36323  0.09156000000000003  0.16049  1.0000
  H   H117      1.0  0.33511  0.12741  0.22084  1.0000
  H   H118      1.0  0.3116199999999999  0.14697  0.16788  1.0000
  H   H119      1.0  0.48244  0.11845000000000003  0.17163  1.0000
  H   H120      1.0  0.44764  0.08325  0.20772  1.0000
  H   H121      1.0  0.36324  0.06261  0.1846  1.0000
  H   H122      1.0  0.3391  0.08262  0.13201  1.0000
  C   C158      1.0  0.41255  0.13992  0.10912  1.0000
  H   H123      1.0  0.38928  0.13209  0.07963  1.0000
  H   H124      1.0  0.44848  0.14599  0.09523  1.0000
  C   C159      1.0  0.39437  0.18368000000000007  0.13381  1.0000
  H   H125      1.0  0.42178  0.21043000000000003  0.13208  1.0000
  H   H126      1.0  0.36262  0.19702  0.11589  1.0000
  C   C160      1.0  0.42702999999999997  0.15535  0.20816  1.0000
  H   H127      1.0  0.45503999999999994  0.18159000000000006  0.20843  1.0000
  H   H128      1.0  0.41896  0.14739000000000005  0.24428  1.0000
  C   C161      1.0  0.4495399999999999  0.8522600000000002  0.10701  1.0000
  C   C162      1.0  0.4132999999999999  0.8905200000000002  0.09514  1.0000
  C   C163      1.0  0.35153  0.8284200000000002  0.08316  1.0000
  C   C164      1.0  0.3703199999999999  0.8192000000000003  0.13191  1.0000
  C   C165      1.0  0.42445  0.81062  0.12838  1.0000
  H   H129      1.0  0.4689  0.8409800000000002  0.07573  1.0000
  H   H130      1.0  0.47615  0.86564  0.13137  1.0000
  H   H131      1.0  0.31279  0.83513  0.08435999999999999  1.0000
  H   H132      1.0  0.3575  0.79786  0.06086  1.0000
  H   H133      1.0  0.43181  0.77954  0.10722  1.0000
  H   H134      1.0  0.43927  0.8042600000000002  0.1628  1.0000
  C   C166      1.0  0.3619  0.8633500000000002  0.16102  1.0000
  H   H135      1.0  0.37545  0.85844  0.19618  1.0000
  H   H136      1.0  0.3234  0.8707600000000001  0.16402  1.0000
  C   C167      1.0  0.38681  0.90483  0.13957  1.0000
  H   H137      1.0  0.36013  0.93191  0.13215  1.0000
  H   H138      1.0  0.412  0.91952  0.16459999999999997  1.0000
  C   C168      1.0  0.3764199999999999  0.86961  0.06185  1.0000
  H   H139      1.0  0.34926  0.8957400000000002  0.0529  1.0000
  H   H140      1.0  0.39406  0.85852  0.02955  1.0000
  C   C169      1.0  0.6523  0.893  0.91057  1.0000
  C   C170      1.0  0.60312  0.90533  0.89075  1.0000
  C   C171      1.0  0.6364  0.88886  0.8111299999999999  1.0000
  C   C172      1.0  0.64744  0.8445800000000002  0.8379099999999998  1.0000
  C   C173      1.0  0.67813  0.8576300000000001  0.87979  1.0000
  H   H141      1.0  0.67438  0.924  0.91359  1.0000
  H   H142      1.0  0.64832  0.8790600000000002  0.94543  1.0000
  H   H143      1.0  0.61398  0.8809100000000002  0.78107  1.0000
  H   H144      1.0  0.6697  0.90363  0.79814  1.0000
  H   H145      1.0  0.71229  0.8718000000000002  0.8682  1.0000
  H   H146      1.0  0.68654  0.82695  0.9003  1.0000
  C   C174      1.0  0.6002  0.8252400000000002  0.8555399999999999  1.0000
  H   H147      1.0  0.60678  0.79355  0.87512  1.0000
  H   H148      1.0  0.57726  0.8159100000000002  0.82624  1.0000
  C   C175      1.0  0.57427  0.8607100000000002  0.8864599999999999  1.0000
  H   H149      1.0  0.53886  0.86813  0.87181  1.0000
  H   H150      1.0  0.56857  0.84601  0.92075  1.0000
  C   C176      1.0  0.61037  0.9245  0.84221  1.0000
  H   H151      1.0  0.57563  0.9334800000000002  0.82696  1.0000
  H   H152      1.0  0.63123  0.9563600000000002  0.84405  1.0000
  C   C177      1.0  0.54875  0.12818  0.90846  1.0000
  C   C178      1.0  0.58586  0.1064  0.94077  1.0000
  C   C179      1.0  0.65037  0.13230000000000003  0.88629  1.0000
  C   C180      1.0  0.62199  0.17694000000000004  0.89695  1.0000
  C   C181      1.0  0.56982  0.16906  0.88283  1.0000
  H   H153      1.0  0.53646  0.10254  0.8829899999999999  1.0000
  H   H154      1.0  0.5173  0.13985  0.92841  1.0000
  H   H155      1.0  0.68781  0.13623  0.89675  1.0000
  H   H156      1.0  0.65036  0.12515  0.84895  1.0000
  H   H157      1.0  0.56773  0.16249000000000005  0.84546  1.0000
  H   H158      1.0  0.54814  0.20019  0.8904599999999999  1.0000
  C   C182      1.0  0.62288  0.18538  0.94932  1.0000
  H   H159      1.0  0.60224  0.21684  0.95817  1.0000
  H   H160      1.0  0.6597199999999999  0.19095  0.96091  1.0000
  C   C183      1.0  0.6020199999999999  0.14411  0.97495  1.0000
  H   H161      1.0  0.62924  0.13012000000000004  0.99835  1.0000
  H   H162      1.0  0.57165  0.15585  0.99637  1.0000
  C   C184      1.0  0.6292  0.09126  0.91158  1.0000
  H   H163      1.0  0.65669  0.07565  0.93369  1.0000
  H   H164      1.0  0.6187699999999999  0.06467  0.88625  1.0000
  C   C185      1.0  0.31167  0.9317800000000003  0.84679  1.0000
  C   C186      1.0  0.34244  0.88744  0.8436  1.0000
  C   C187      1.0  0.41507  0.93644  0.8570499999999999  1.0000
  C   C188      1.0  0.38229  0.9492500000000003  0.89808  1.0000
  C   C189      1.0  0.33501  0.96789  0.87851  1.0000
  H   H165      1.0  0.30675  0.9462200000000001  0.81225  1.0000
  H   H166      1.0  0.27599  0.9239800000000002  0.86028  1.0000
  H   H167      1.0  0.4492499999999999  0.9223700000000001  0.86957  1.0000
  H   H168      1.0  0.42311  0.9674600000000001  0.83719  1.0000
  H   H169      1.0  0.34143  0.9995500000000003  0.85911  1.0000
  H   H170      1.0  0.31023  0.9770900000000002  0.90674  1.0000
  C   C190      1.0  0.37180999999999986  0.90485  0.92426  1.0000
  H   H171      1.0  0.34789  0.9125000000000002  0.9535899999999999  1.0000
  H   H172      1.0  0.40508  0.8904300000000003  0.9384799999999999  1.0000
  C   C191      1.0  0.34868999999999994  0.8688500000000002  0.89255  1.0000
  H   H173      1.0  0.371  0.8373  0.89167  1.0000
  H   H174      1.0  0.31381  0.8593800000000003  0.90683  1.0000
  C   C192      1.0  0.39182999999999996  0.9006500000000001  0.82532  1.0000
  H   H175      1.0  0.41534  0.87  0.82285  1.0000
  H   H176      1.0  0.38851  0.9146200000000002  0.79041  1.0000
  C   C193      1.0  0.11147  0.06465  0.66189  1.0000
  C   C194      1.0  0.09267  0.08680000000000003  0.61726  1.0000
  C   C195      1.0  0.08563  0.16262000000000001  0.66214  1.0000
  C   C196      1.0  0.13783999999999996  0.1478  0.67027  1.0000
  C   C197      1.0  0.13734  0.10015  0.69283  1.0000
  H   H177      1.0  0.08162  0.04985  0.68112  1.0000
  H   H178      1.0  0.13638  0.03611  0.65343  1.0000
  H   H179      1.0  0.08435  0.19646  0.6454699999999999  1.0000
  H   H180      1.0  0.067  0.1666  0.69539  1.0000
  H   H181      1.0  0.11934  0.10258000000000003  0.72652  1.0000
  H   H182      1.0  0.17413  0.08816  0.6991  1.0000
  C   C198      1.0  0.16198  0.14173  0.62284  1.0000
  H   H183      1.0  0.19914999999999997  0.1299  0.62723  1.0000
  H   H184      1.0  0.16324  0.17498  0.60507  1.0000
  C   C199      1.0  0.1355  0.10719  0.59221  1.0000
  H   H185      1.0  0.12301999999999999  0.12481000000000002  0.56114  1.0000
  H   H186      1.0  0.16043  0.07952  0.58117  1.0000
  C   C200      1.0  0.05929999999999999  0.12709  0.63166  1.0000
  H   H187      1.0  0.04535999999999999  0.14444  0.60094  1.0000
  H   H188      1.0  0.02845  0.11382  0.65058  1.0000
  C   C201      1.0  0.1324  0.14877  0.36099  1.0000
  C   C202      1.0  0.17984  0.15961  0.38482  1.0000
  C   C203      1.0  0.14106  0.14482  0.46154  1.0000
  C   C204      1.0  0.13076  0.10094000000000003  0.43321  1.0000
  C   C205      1.0  0.10342  0.11506  0.38954  1.0000
  H   H189      1.0  0.11125  0.18061  0.35627  1.0000
  H   H190      1.0  0.13923  0.13379  0.32651  1.0000
  H   H191      1.0  0.16229999999999997  0.13606  0.49205  1.0000
  H   H192      1.0  0.10743  0.16083  0.47377  1.0000
  H   H193      1.0  0.06909  0.13155  0.399  1.0000
  H   H194      1.0  0.09544  0.0843  0.36844  1.0000
  C   C206      1.0  0.17865  0.07933  0.41797  1.0000
  H   H195      1.0  0.17247  0.0482  0.39681  1.0000
  H   H196      1.0  0.19936  0.06856  0.44821  1.0000
  C   C207      1.0  0.2077  0.11384  0.39026  1.0000
  H   H197      1.0  0.2417  0.11996000000000002  0.40804  1.0000
  H   H198      1.0  0.21632999999999997  0.09888000000000002  0.35615  1.0000
  C   C208      1.0  0.1688  0.17942000000000005  0.43302  1.0000
  H   H199      1.0  0.20219999999999996  0.18807000000000004  0.45081  1.0000
  H   H200      1.0  0.1477  0.21156  0.43039999999999995  1.0000
  C   C209      1.0  0.91701  0.8473300000000002  0.64066  1.0000
  C   C210      1.0  0.89829  0.8578000000000001  0.59232  1.0000
  C   C211      1.0  0.85939  0.7800400000000002  0.59052  1.0000
  C   C212      1.0  0.8397  0.80327  0.63452  1.0000
  C   C213      1.0  0.8822599999999999  0.81579  0.6657299999999999  1.0000
  H   H201      1.0  0.9523  0.8303400000000002  0.63838  1.0000
  H   H202      1.0  0.92125  0.8796000000000003  0.66054  1.0000
  H   H203      1.0  0.82993  0.7705700000000002  0.5674  1.0000
  H   H204      1.0  0.8786499999999999  0.74793  0.5989899999999999  1.0000
  H   H205      1.0  0.90172  0.7844300000000002  0.67616  1.0000
  H   H206      1.0  0.86927  0.8331200000000002  0.69741  1.0000
  C   C214      1.0  0.8138999999999997  0.8481300000000002  0.62159  1.0000
  H   H207      1.0  0.79908  0.8652500000000002  0.65263  1.0000
  H   H208      1.0  0.78391  0.84079  0.59836  1.0000
  C   C215      1.0  0.8483899999999999  0.8803900000000002  0.59757  1.0000
  H   H209      1.0  0.83365  0.8891300000000002  0.56364  1.0000
  H   H210      1.0  0.8509  0.9128400000000002  0.6175  1.0000
  C   C216      1.0  0.8931  0.81213  0.5655500000000001  1.0000
  H   H211      1.0  0.87884  0.8186000000000002  0.53092  1.0000
  H   H212      1.0  0.9282  0.7951200000000003  0.56119  1.0000
  C   C217      1.0  0.8668099999999997  0.06662  0.40302  1.0000
  C   C218      1.0  0.89754  0.09477  0.4368  1.0000
  C   C219      1.0  0.90256  0.15652  0.3765  1.0000
  C   C220      1.0  0.8487699999999999  0.14902000000000007  0.3827  1.0000
  C   C221      1.0  0.83827  0.09836  0.37149  1.0000
  H   H213      1.0  0.88974  0.04339  0.38205  1.0000
  H   H214      1.0  0.84177  0.04481  0.42186  1.0000
  H   H215      1.0  0.91116  0.19272000000000006  0.38433999999999996  1.0000
  H   H216      1.0  0.9129999999999998  0.14961000000000005  0.34047  1.0000
  H   H217      1.0  0.84754  0.0902  0.33539  1.0000
  H   H218      1.0  0.79991  0.09187  0.37568  1.0000
  C   C222      1.0  0.8360699999999999  0.15848  0.43364  1.0000
  H   H219      1.0  0.79769  0.15329  0.43936  1.0000
  H   H220      1.0  0.84371  0.19455000000000003  0.44305  1.0000
  C   C223      1.0  0.86455  0.12692  0.4651  1.0000
  H   H221      1.0  0.8857  0.14787  0.48925  1.0000
  H   H222      1.0  0.8396  0.10678  0.48586  1.0000
  C   C224      1.0  0.93133  0.12461  0.40832  1.0000
  H   H223      1.0  0.9536499999999999  0.14571000000000006  0.43126  1.0000
  H   H224      1.0  0.95547  0.10240000000000003  0.38757  1.0000
  C   C225      1.0  0.18059999999999996  0.8014  0.62425  1.0000
  C   C226      1.0  0.14959  0.8065500000000002  0.66817  1.0000
  C   C227      1.0  0.13623  0.88994  0.64769  1.0000
  C   C228      1.0  0.12137999999999999  0.8631800000000002  0.60396  1.0000
  C   C229      1.0  0.16415  0.83439  0.587  1.0000
  H   H225      1.0  0.21821  0.80799  0.63254  1.0000
  H   H226      1.0  0.17879  0.7659500000000001  0.61028  1.0000
  H   H227      1.0  0.10603  0.91109  0.66061  1.0000
  H   H228      1.0  0.16534  0.9136800000000003  0.63978  1.0000
  H   H229      1.0  0.19385  0.8569200000000001  0.57771  1.0000
  H   H230      1.0  0.15451999999999996  0.81465  0.55579  1.0000
  C   C230      1.0  0.08114999999999997  0.8301200000000002  0.61737  1.0000
  H   H231      1.0  0.06979  0.8097800000000003  0.58715  1.0000
  H   H232      1.0  0.04984  0.8500300000000001  0.62976  1.0000
  C   C231      1.0  0.09774  0.79706  0.65495  1.0000
  H   H233      1.0  0.07440999999999999  0.8011900000000002  0.68533  1.0000
  H   H234      1.0  0.09437  0.7612  0.64251  1.0000
  C   C232      1.0  0.15276  0.85668  0.68538  1.0000
  H   H235      1.0  0.13042000000000004  0.8619400000000002  0.71629  1.0000
  H   H236      1.0  0.1897  0.86444  0.6952  1.0000
  C   C233      1.0  0.92161  0.7835600000000001  0.41172  1.0000
  C   C234      1.0  0.89216  0.8034600000000002  0.37208  1.0000
  C   C235      1.0  0.88352  0.8774700000000002  0.41965  1.0000
  C   C236      1.0  0.9378999999999998  0.8698500000000002  0.4178  1.0000
  C   C237      1.0  0.94881  0.82162  0.43739  1.0000
  H   H237      1.0  0.89814  0.7660600000000002  0.43619  1.0000
  H   H238      1.0  0.94707  0.75746  0.39822  1.0000
  H   H239      1.0  0.87399  0.9112800000000002  0.4053  1.0000
  H   H240      1.0  0.8709799999999998  0.87763  0.45552  1.0000
  H   H241      1.0  0.93945  0.82095  0.47412  1.0000
  H   H242      1.0  0.98731  0.8140400000000002  0.43487  1.0000
  C   C238      1.0  0.95256  0.8682800000000003  0.36662  1.0000
  H   H243      1.0  0.99135  0.86282  0.36366  1.0000
  H   H244      1.0  0.94416  0.9016  0.35068  1.0000
  C   C239      1.0  0.92652  0.8291500000000003  0.34011  1.0000
  H   H245      1.0  0.90661  0.84388  0.31109  1.0000
  H   H246      1.0  0.95305  0.80475  0.32545  1.0000
  C   C240      1.0  0.85733  0.83978  0.39265  1.0000
  H   H247      1.0  0.8365699999999999  0.8557000000000001  0.36481  1.0000
  H   H248      1.0  0.83162  0.82344  0.41581999999999997  1.0000
  C   C241      1.0  0.07108  0.58444  0.11587  1.0000
  C   C242      1.0  0.10684999999999997  0.55793  0.08484  1.0000
  C   C243      1.0  0.14919  0.63378  0.07259  1.0000
  C   C244      1.0  0.14715999999999999  0.62975  0.12538  1.0000
  C   C245      1.0  0.09441  0.6261  0.13936  1.0000
  H   H249      1.0  0.04049  0.5963  0.09529  1.0000
  H   H250      1.0  0.05697  0.5615500000000001  0.14244  1.0000
  H   H251      1.0  0.18650999999999998  0.6359800000000002  0.06111  1.0000
  H   H252      1.0  0.13084  0.6656500000000001  0.0619  1.0000
  H   H253      1.0  0.075  0.65784  0.12999  1.0000
  H   H254      1.0  0.09117999999999998  0.62269  0.17694  1.0000
  C   C246      1.0  0.17259  0.58444  0.13824  1.0000
  H   H255      1.0  0.17158999999999996  0.57991  0.17581  1.0000
  H   H256      1.0  0.21041  0.58569  0.12812  1.0000
  C   C247      1.0  0.14927  0.54279  0.11471  1.0000
  H   H257      1.0  0.17589  0.5242  0.09329  1.0000
  H   H258      1.0  0.13743  0.51874  0.14128  1.0000
  C   C248      1.0  0.12560999999999997  0.5919200000000001  0.04894  1.0000
  H   H259      1.0  0.1518  0.57438  0.02622  1.0000
  H   H260      1.0  0.09609  0.60396  0.02709  1.0000
  C   C249      1.0  0.15142  0.33633  0.06689  1.0000
  C   C250      1.0  0.11019  0.3608700000000001  0.09325  1.0000
  C   C251      1.0  0.1168  0.29958  0.15356  1.0000
  C   C252      1.0  0.16752999999999998  0.31868  0.15045  1.0000
  C   C253      1.0  0.1852  0.31123000000000006  0.10069  1.0000
  H   H261      1.0  0.13697  0.31131  0.04194  1.0000
  H   H262      1.0  0.17186999999999997  0.36154  0.04723  1.0000
  H   H263      1.0  0.10245  0.3038700000000001  0.18872  1.0000
  H   H264      1.0  0.11734  0.26233  0.14561999999999997  1.0000
  H   H265      1.0  0.18666  0.2741500000000001  0.09217  1.0000
  H   H266      1.0  0.22154  0.32455  0.09696999999999999  1.0000
  C   C254      1.0  0.16553  0.37104  0.16027  1.0000
  H   H267      1.0  0.20148  0.38551000000000013  0.15712  1.0000
  H   H268      1.0  0.15324  0.37844  0.19569  1.0000
  C   C255      1.0  0.13187  0.39539000000000013  0.1273  1.0000
  H   H269      1.0  0.10347  0.4132300000000001  0.14719  1.0000
  H   H270      1.0  0.15151  0.4219800000000001  0.10863  1.0000
  C   C256      1.0  0.08342999999999999  0.32412  0.12041  1.0000
  H   H271      1.0  0.05392  0.33993  0.14043  1.0000
  H   H272      1.0  0.06773999999999997  0.2987800000000001  0.09649  1.0000
  C   C257      1.0  0.12535  0.3126900000000001  0.83802  1.0000
  C   C258      1.0  0.17485999999999996  0.31523  0.86031  1.0000
  C   C259      1.0  0.16668  0.4024700000000001  0.86131  1.0000
  C   C260      1.0  0.12183  0.3864300000000001  0.88627  1.0000
  C   C261      1.0  0.09431  0.35437  0.8532  1.0000
  H   H273      1.0  0.12889  0.3120500000000001  0.80026  1.0000
  H   H274      1.0  0.10765  0.28065  0.84792  1.0000
  H   H275      1.0  0.18749  0.42513  0.88414  1.0000
  H   H276      1.0  0.15669  0.42274  0.83096  1.0000
  H   H277      1.0  0.08302  0.37336000000000014  0.82245  1.0000
  H   H278      1.0  0.06176999999999999  0.34219  0.87018  1.0000
  C   C262      1.0  0.1373  0.3577200000000001  0.92798  1.0000
  H   H279      1.0  0.10568  0.34565  0.94659  1.0000
  H   H280      1.0  0.15784999999999996  0.3790000000000001  0.95231  1.0000
  C   C263      1.0  0.16804  0.31618  0.9128  1.0000
  H   H281      1.0  0.20286  0.3179500000000001  0.93014  1.0000
  H   H282      1.0  0.15107  0.28417  0.92392  1.0000
  C   C264      1.0  0.19759  0.36103  0.84612  1.0000
  H   H283      1.0  0.23318  0.3644400000000001  0.86161  1.0000
  H   H284      1.0  0.20247999999999997  0.36151  0.8084999999999999  1.0000
  C   C265      1.0  0.89282  0.60095  0.19411  1.0000
  C   C266      1.0  0.8578499999999998  0.6286700000000002  0.16444  1.0000
  C   C267      1.0  0.91141  0.6126  0.09547  1.0000
  C   C268      1.0  0.9017999999999998  0.5644100000000002  0.11425999999999999  1.0000
  C   C269      1.0  0.91856  0.56361  0.16487  1.0000
  H   H285      1.0  0.9194099999999997  0.6239900000000002  0.20958  1.0000
  H   H286      1.0  0.8735399999999999  0.58472  0.22256  1.0000
  H   H287      1.0  0.89903  0.61478  0.05961  1.0000
  H   H288      1.0  0.95001  0.61904  0.09519  1.0000
  H   H289      1.0  0.95724  0.5693700000000003  0.16675  1.0000
  H   H290      1.0  0.91196  0.52951  0.17958  1.0000
  C   C270      1.0  0.84772  0.55696  0.11415  1.0000
  H   H291      1.0  0.8396799999999999  0.52275  0.1279  1.0000
  H   H292      1.0  0.8340099999999998  0.55784  0.07868999999999998  1.0000
  C   C271      1.0  0.82209  0.59442  0.14328  1.0000
  H   H293      1.0  0.79638  0.61271  0.12127  1.0000
  H   H294      1.0  0.80147  0.5781300000000003  0.1708  1.0000
  C   C272      1.0  0.88613  0.6499400000000001  0.1248  1.0000
  H   H295      1.0  0.86203  0.67011  0.10272  1.0000
  H   H296      1.0  0.9128  0.67386  0.13872  1.0000
  C   C273      1.0  0.9001099999999997  0.6256000000000003  0.80516  1.0000
  C   C274      1.0  0.86901  0.65741  0.83607  1.0000
  C   C275      1.0  0.85058  0.58859  0.88509  1.0000
  C   C276      1.0  0.90519  0.5895300000000002  0.88368  1.0000
  C   C277      1.0  0.92132  0.58595  0.83303  1.0000
  H   H297      1.0  0.87868  0.61127  0.77677  1.0000
  H   H298      1.0  0.9291199999999997  0.64535  0.7896  1.0000
  H   H299      1.0  0.83783  0.59139  0.92093  1.0000
  H   H300      1.0  0.83783  0.55555  0.87098  1.0000
  H   H301      1.0  0.90993  0.55302  0.81758  1.0000
  H   H302      1.0  0.96051  0.5866700000000002  0.83089  1.0000
  C   C278      1.0  0.92158  0.63631  0.90309  1.0000
  H   H303      1.0  0.96078  0.63793  0.90233  1.0000
  H   H304      1.0  0.9103800000000001  0.64051  0.93929  1.0000
  C   C279      1.0  0.90048  0.67604  0.87515  1.0000
  H   H305      1.0  0.87949  0.6989  0.8982699999999998  1.0000
  H   H306      1.0  0.9294999999999999  0.6966700000000002  0.86082  1.0000
  C   C280      1.0  0.82949  0.62831  0.85728  1.0000
  H   H307      1.0  0.80676  0.65004  0.87996  1.0000
  H   H308      1.0  0.80667  0.61424  0.8298499999999999  1.0000
  C   C281      1.0  0.88156  0.4077300000000001  0.8631  1.0000
  C   C282      1.0  0.8935199999999999  0.3893  0.91105  1.0000
  C   C283      1.0  0.81358  0.34912  0.91015  1.0000
  C   C284      1.0  0.8379899999999998  0.33177  0.8653899999999999  1.0000
  C   C285      1.0  0.8496299999999998  0.37432  0.8365  1.0000
  H   H309      1.0  0.86344  0.44155  0.8663399999999999  1.0000
  H   H310      1.0  0.91454  0.413  0.84329  1.0000
  H   H311      1.0  0.80511  0.31978000000000006  0.93219  1.0000
  H   H312      1.0  0.77966  0.36662  0.90192  1.0000
  H   H313      1.0  0.8163999999999999  0.39221  0.82667  1.0000
  H   H314      1.0  0.86797  0.3638300000000001  0.80437  1.0000
  C   C286      1.0  0.88508  0.30808000000000013  0.8786799999999999  1.0000
  H   H315      1.0  0.90384  0.2952500000000001  0.84759  1.0000
  H   H316      1.0  0.87795  0.27792  0.90014  1.0000
  C   C287      1.0  0.91734  0.34138  0.90497  1.0000
  H   H317      1.0  0.92591  0.32706  0.93892  1.0000
  H   H318      1.0  0.95121  0.34404000000000007  0.88598  1.0000
  C   C288      1.0  0.84616  0.3827600000000001  0.93695  1.0000
  H   H319      1.0  0.85328  0.3692500000000001  0.97151  1.0000
  H   H320      1.0  0.82759  0.4161800000000001  0.94151  1.0000
  C   C289      1.0  0.38622  0.17769000000000004  0.43488  1.0000
  C   C290      1.0  0.40575  0.17646  0.38531  1.0000
  C   C291      1.0  0.48133999999999993  0.13958  0.41569  1.0000
  C   C292      1.0  0.44162  0.10835  0.43348  1.0000
  C   C293      1.0  0.4071699999999999  0.13817  0.46281  1.0000
  H   H321      1.0  0.39478  0.21081  0.45171  1.0000
  H   H322      1.0  0.3471  0.17483  0.43473  1.0000
  H   H323      1.0  0.50644  0.11925  0.3941  1.0000
  H   H324      1.0  0.50185  0.15386  0.44471  1.0000
  H   H325      1.0  0.42586  0.15271  0.49284  1.0000
  H   H326      1.0  0.37808  0.11686  0.47598  1.0000
  C   C294      1.0  0.41398  0.08975  0.39162  1.0000
  H   H327      1.0  0.38474  0.06764  0.40302  1.0000
  H   H328      1.0  0.43779  0.06838  0.36966  1.0000
  C   C295      1.0  0.39309  0.1296  0.36346  1.0000
  H   H329      1.0  0.40699  0.12719  0.32803  1.0000
  H   H330      1.0  0.35408  0.12628  0.36143  1.0000
  C   C296      1.0  0.46035  0.17947000000000005  0.38761  1.0000
  H   H331      1.0  0.47566999999999987  0.17822  0.35266  1.0000
  H   H332      1.0  0.4706299999999999  0.21259000000000006  0.40340999999999994  1.0000
  C   C297      1.0  0.72344  0.8870100000000001  0.35912  1.0000
  C   C298      1.0  0.68969  0.85211  0.3360699999999999  1.0000
  C   C299      1.0  0.63736  0.85946  0.40722  1.0000
  C   C300      1.0  0.6427899999999999  0.90964  0.39216  1.0000
  C   C301      1.0  0.6961899999999998  0.9206300000000002  0.39123  1.0000
  H   H333      1.0  0.75064  0.86879  0.37946  1.0000
  H   H334      1.0  0.74239  0.9064900000000001  0.33262  1.0000
  H   H335      1.0  0.59935  0.85047  0.4082  1.0000
  H   H336      1.0  0.65126  0.8552100000000002  0.44233  1.0000
  H   H337      1.0  0.71135  0.9183900000000003  0.42607  1.0000
  H   H338      1.0  0.7012999999999998  0.9562000000000002  0.37963  1.0000
  C   C302      1.0  0.6242  0.9131500000000001  0.34232  1.0000
  H   H339      1.0  0.62768  0.94875  0.33025  1.0000
  H   H340      1.0  0.58605  0.9048100000000002  0.34112000000000003  1.0000
  C   C303      1.0  0.65191  0.87987  0.30952  1.0000
  H   H341      1.0  0.6267  0.8563200000000002  0.29268  1.0000
  H   H342      1.0  0.66916  0.8996500000000002  0.2822  1.0000
  C   C304      1.0  0.66397  0.82619  0.37446  1.0000
  H   H343      1.0  0.63828  0.80203  0.35928  1.0000
  H   H344      1.0  0.68986  0.8058  0.39439  1.0000
  C   C305      1.0  0.60472  0.10296000000000002  0.65898  1.0000
  C   C306      1.0  0.62197  0.11867000000000003  0.61143  1.0000
  C   C307      1.0  0.6160799999999997  0.20108999999999996  0.64092  1.0000
  C   C308      1.0  0.6479299999999999  0.17711000000000005  0.67649  1.0000
  C   C309      1.0  0.61984  0.13712  0.69707  1.0000
  H   H345      1.0  0.5655999999999998  0.10010000000000002  0.65909  1.0000
  H   H346      1.0  0.61949  0.0685  0.6664  1.0000
  H   H347      1.0  0.63509  0.22984000000000002  0.62506  1.0000
  H   H348      1.0  0.58416  0.21594  0.65798  1.0000
  H   H349      1.0  0.58784  0.15049  0.71509  1.0000
  H   H350      1.0  0.6418599999999999  0.11903  0.72261  1.0000
  C   C310      1.0  0.69164  0.15643000000000004  0.65101  1.0000
  H   H351      1.0  0.71507  0.13862  0.67559  1.0000
  H   H352      1.0  0.7127  0.18397  0.63545  1.0000
  C   C311      1.0  0.67649  0.1224  0.61299  1.0000
  H   H353      1.0  0.68999  0.13395  0.57951  1.0000
  H   H354      1.0  0.6928399999999999  0.08840999999999999  0.61952  1.0000
  C   C312      1.0  0.601  0.16721  0.60311  1.0000
  H   H355      1.0  0.61286  0.17976000000000006  0.56941  1.0000
  H   H356      1.0  0.56176  0.16623  0.6024  1.0000
  C   C313      1.0  0.56938  0.8303500000000001  0.55919  1.0000
  C   C314      1.0  0.59594  0.87426  0.5739  1.0000
  C   C315      1.0  0.60699  0.83923  0.65263  1.0000
  C   C316      1.0  0.62757  0.8022700000000003  0.61932  1.0000
  C   C317      1.0  0.5878799999999997  0.7883500000000002  0.58575  1.0000
  H   H357      1.0  0.53087  0.8349900000000002  0.56545  1.0000
  H   H358      1.0  0.57424  0.82375  0.52204  1.0000
  H   H359      1.0  0.6345699999999999  0.8502200000000002  0.6772  1.0000
  H   H360      1.0  0.57757  0.8248500000000001  0.6728099999999999  1.0000
  H   H361      1.0  0.55825  0.7728900000000002  0.60479  1.0000
  H   H362      1.0  0.6013299999999998  0.7620600000000002  0.56108  1.0000
  C   C318      1.0  0.66782  0.82441  0.59157  1.0000
  H   H363      1.0  0.6836400000000001  0.79917  0.5670899999999999  1.0000
  H   H364      1.0  0.69643  0.8354  0.61497  1.0000
  C   C319      1.0  0.64935  0.86609  0.56493  1.0000
  H   H365      1.0  0.66965  0.89675  0.5752899999999999  1.0000
  H   H366      1.0  0.65579  0.86036  0.52787  1.0000
  C   C320      1.0  0.58858  0.88129  0.62607  1.0000
  H   H367      1.0  0.60748  0.91217  0.63818  1.0000
  H   H368      1.0  0.55045  0.8870100000000001  0.63364  1.0000
  C   C321      1.0  0.3567499999999999  0.08222000000000003  0.63464  1.0000
  C   C322      1.0  0.4038399999999999  0.10368000000000002  0.61955  1.0000
  C   C323      1.0  0.36305  0.18222000000000005  0.62215  1.0000
  C   C324      1.0  0.35297  0.16275  0.66998  1.0000
  C   C325      1.0  0.32701  0.11656  0.6636  1.0000
  H   H369      1.0  0.33598  0.07149  0.6043  1.0000
  H   H370      1.0  0.3639699999999999  0.05104  0.6548  1.0000
  H   H371      1.0  0.38267999999999996  0.2147  0.6255  1.0000
  H   H372      1.0  0.32926999999999995  0.1903  0.6045599999999999  1.0000
  H   H373      1.0  0.2925099999999999  0.12204  0.64638  1.0000
  H   H374      1.0  0.31942  0.10161000000000002  0.69743  1.0000
  C   C326      1.0  0.40115  0.15237  0.69308  1.0000
  H   H375      1.0  0.39521  0.13791  0.72742  1.0000
  H   H376      1.0  0.42119  0.18443  0.69793  1.0000
  C   C327      1.0  0.43105  0.11803  0.66347  1.0000
  H   H377      1.0  0.46499  0.13412  0.6541  1.0000
  H   H378      1.0  0.43978  0.08737000000000003  0.68387  1.0000
  C   C328      1.0  0.39218  0.14777  0.59271  1.0000
  H   H379      1.0  0.42540999999999995  0.16398000000000004  0.58141  1.0000
  H   H380      1.0  0.37167  0.13922  0.56157  1.0000
  C   C329      1.0  0.32487999999999995  0.8765400000000002  0.3786  1.0000
  C   C330      1.0  0.3575  0.84066  0.35471  1.0000
  C   C331      1.0  0.4252  0.89717  0.36226  1.0000
  C   C332      1.0  0.40645  0.8928400000000002  0.4119  1.0000
  C   C333      1.0  0.35328  0.90695  0.41196  1.0000
  H   H381      1.0  0.30738999999999994  0.8983500000000002  0.35273  1.0000
  H   H382      1.0  0.29645  0.8591800000000003  0.39768  1.0000
  H   H383      1.0  0.46309  0.8868600000000002  0.36044  1.0000
  H   H384      1.0  0.42272  0.93336  0.35149  1.0000
  H   H385      1.0  0.3493399999999999  0.94333  0.40216  1.0000
  H   H386      1.0  0.33803  0.90377  0.44671  1.0000
  C   C334      1.0  0.41043  0.84201  0.42532  1.0000
  H   H387      1.0  0.39707  0.8375500000000002  0.4606499999999999  1.0000
  H   H388      1.0  0.44804  0.83058  0.4249299999999999  1.0000
  C   C335      1.0  0.38205  0.81167  0.39218  1.0000
  H   H389      1.0  0.40601999999999994  0.78573  0.3760299999999999  1.0000
  H   H390      1.0  0.35543999999999987  0.7928300000000003  0.41223  1.0000
  C   C336      1.0  0.39653  0.86666  0.32876  1.0000
  H   H391      1.0  0.4207399999999999  0.84187  0.31123  1.0000
  H   H392      1.0  0.38039  0.8884  0.30206  1.0000
  C   C337      1.0  0.39839  0.69969  0.85974  1.0000
  C   C338      1.0  0.34986  0.68231  0.8435  1.0000
  C   C339      1.0  0.38356  0.60093  0.84176  1.0000
  C   C340      1.0  0.3941899999999999  0.6187400000000002  0.89044  1.0000
  C   C341      1.0  0.42446  0.6625300000000001  0.88696  1.0000
  H   H393      1.0  0.42038  0.7092900000000002  0.82997  1.0000
  H   H394      1.0  0.39366  0.7308700000000002  0.88144  1.0000
  H   H395      1.0  0.36131  0.56999  0.84324  1.0000
  H   H396      1.0  0.41697  0.5908400000000003  0.82405  1.0000
  H   H397      1.0  0.45872  0.6546400000000002  0.86975  1.0000
  H   H398      1.0  0.43265999999999993  0.67593  0.92166  1.0000
  C   C342      1.0  0.34658  0.63231  0.91382  1.0000
  H   H399      1.0  0.35313  0.64518  0.9490299999999999  1.0000
  H   H400      1.0  0.32361  0.60199  0.9165699999999999  1.0000
  C   C343      1.0  0.32042999999999994  0.66968  0.88612  1.0000
  H   H401      1.0  0.28522999999999993  0.6571  0.87548  1.0000
  H   H402      1.0  0.3143899999999999  0.7003300000000001  0.9082599999999998  1.0000
  C   C344      1.0  0.35782  0.6380500000000002  0.8142  1.0000
  H   H403      1.0  0.32334  0.62489  0.8021  1.0000
  H   H404      1.0  0.37934999999999997  0.64528  0.78344  1.0000
  C   C345      1.0  0.42539  0.4169700000000001  0.20236999999999997  1.0000
  C   C346      1.0  0.3836999999999999  0.39048  0.18054  1.0000
  C   C347      1.0  0.35656  0.4646000000000001  0.14384  1.0000
  C   C348      1.0  0.4089  0.45911000000000013  0.12842  1.0000
  C   C349      1.0  0.43997  0.45729  0.17194  1.0000
  H   H405      1.0  0.41507  0.43035  0.23668  1.0000
  H   H406      1.0  0.45627  0.39363  0.20695  1.0000
  H   H407      1.0  0.33283  0.4656  0.11373  1.0000
  H   H408      1.0  0.3515  0.4974200000000001  0.16285  1.0000
  H   H409      1.0  0.43628  0.4898800000000001  0.1916  1.0000
  H   H410      1.0  0.47778999999999994  0.4532300000000001  0.16247  1.0000
  C   C350      1.0  0.41455  0.41293000000000013  0.10238  1.0000
  H   H411      1.0  0.45179  0.4078700000000001  0.0911  1.0000
  H   H412      1.0  0.39241999999999994  0.413  0.07110999999999999  1.0000
  C   C351      1.0  0.39993  0.37284  0.1328  1.0000
  H   H413      1.0  0.37101  0.35386  0.11576  1.0000
  H   H414      1.0  0.43024  0.34862000000000004  0.13633  1.0000
  C   C352      1.0  0.34193999999999997  0.42459  0.17434  1.0000
  H   H415      1.0  0.31133  0.4070200000000001  0.1586  1.0000
  H   H416      1.0  0.33002  0.43815  0.20811999999999997  1.0000
  C   C353      1.0  0.6859299999999999  0.6652200000000003  0.08129  1.0000
  C   C354      1.0  0.66186  0.6809000000000002  0.12677  1.0000
  C   C355      1.0  0.5834099999999999  0.65392  0.09252  1.0000
  C   C356      1.0  0.6161  0.6109700000000002  0.08731  1.0000
  C   C357      1.0  0.65959  0.6249000000000001  0.05861  1.0000
  H   H417      1.0  0.68682  0.6941  0.05712  1.0000
  H   H418      1.0  0.72317  0.6547300000000001  0.08777  1.0000
  H   H419      1.0  0.55197  0.6456500000000002  0.11343  1.0000
  H   H420      1.0  0.57036  0.6644300000000001  0.05848  1.0000
  H   H421      1.0  0.64813  0.63466  0.02381  1.0000
  H   H422      1.0  0.68457  0.5955  0.05453  1.0000
  C   C358      1.0  0.63399  0.59839  0.13563  1.0000
  H   H423      1.0  0.6580399999999998  0.56811  0.13343  1.0000
  H   H424      1.0  0.60364  0.58882  0.15744999999999998  1.0000
  C   C359      1.0  0.66058  0.6388500000000001  0.15845000000000004  1.0000
  H   H425      1.0  0.64287  0.6483  0.19118  1.0000
  H   H426      1.0  0.6971999999999999  0.62775  0.16685  1.0000
  C   C360      1.0  0.61002  0.6945100000000002  0.11555  1.0000
  H   H427      1.0  0.59118  0.70522  0.14731  1.0000
  H   H428      1.0  0.60951  0.72428  0.09247  1.0000
  C   C361      1.0  0.56288  0.39146  0.14242999999999997  1.0000
  C   C362      1.0  0.59678  0.39663000000000004  0.1012  1.0000
  C   C363      1.0  0.6632699999999999  0.36338000000000004  0.14913  1.0000
  C   C364      1.0  0.6239  0.3273200000000001  0.1518  1.0000
  C   C365      1.0  0.57876  0.35078  0.17211  1.0000
  H   H429      1.0  0.56246  0.42319  0.16368999999999997  1.0000
  H   H430      1.0  0.52629  0.38585000000000014  0.13024  1.0000
  H   H431      1.0  0.69596  0.34766  0.13436  1.0000
  H   H432      1.0  0.67221  0.3761100000000001  0.18391  1.0000
  H   H433      1.0  0.58555  0.36347  0.20736  1.0000
  H   H434      1.0  0.54974  0.32571  0.17422  1.0000
  C   C366      1.0  0.61226  0.31064  0.10273  1.0000
  H   H435      1.0  0.5839099999999999  0.28477000000000013  0.10369  1.0000
  H   H436      1.0  0.6438  0.29397  0.08671  1.0000
  C   C367      1.0  0.59626  0.35120000000000007  0.07315  1.0000
  H   H437      1.0  0.62015  0.35322  0.04313  1.0000
  H   H438      1.0  0.56013  0.34494  0.05992999999999999  1.0000
  C   C368      1.0  0.6474  0.40395  0.11964999999999999  1.0000
  H   H439      1.0  0.67272  0.40764  0.09092  1.0000
  H   H440      1.0  0.64857  0.43604  0.14032  1.0000
  C   C369      1.0  0.61381  0.6343  0.8968  1.0000
  C   C370      1.0  0.61991  0.58481  0.8776  1.0000
  C   C371      1.0  0.6262  0.61828  0.79777  1.0000
  C   C372      1.0  0.66421  0.6440100000000002  0.82584  1.0000
  C   C373      1.0  0.63934  0.6687900000000002  0.86643  1.0000
  H   H441      1.0  0.5756399999999999  0.64355  0.89899  1.0000
  H   H442      1.0  0.6283  0.6368900000000002  0.93193  1.0000
  H   H443      1.0  0.64312  0.59982  0.76852  1.0000
  H   H444      1.0  0.60025  0.64298  0.78347  1.0000
  H   H445      1.0  0.61333  0.69436  0.85371  1.0000
  H   H446      1.0  0.66561  0.6877400000000001  0.88722  1.0000
  C   C374      1.0  0.69917  0.60779  0.84525  1.0000
  H   H447      1.0  0.72609  0.62472  0.86684  1.0000
  H   H448      1.0  0.71807  0.5896599999999999  0.81692  1.0000
  C   C375      1.0  0.67326  0.57298  0.87475  1.0000
  H   H449      1.0  0.67854  0.53811  0.85996  1.0000
  H   H450      1.0  0.68915  0.5729200000000001  0.90939  1.0000
  C   C376      1.0  0.59985  0.5837  0.82827  1.0000
  H   H451      1.0  0.6036899999999997  0.54875  0.81333  1.0000
  H   H452      1.0  0.56153  0.59244  0.82885  1.0000
  C   C377      1.0  0.40324  0.4224600000000001  0.86389  1.0000
  C   C378      1.0  0.41905  0.41112000000000004  0.91325  1.0000
  C   C379      1.0  0.35506  0.3497800000000001  0.9137  1.0000
  C   C380      1.0  0.38422  0.33718  0.87027  1.0000
  C   C381      1.0  0.3830799999999999  0.37962  0.83895  1.0000
  H   H453      1.0  0.37594  0.45009  0.8648299999999999  1.0000
  H   H454      1.0  0.43365  0.43541  0.84408  1.0000
  H   H455      1.0  0.35515999999999986  0.32066  0.93761  1.0000
  H   H456      1.0  0.31761  0.35659  0.90436  1.0000
  H   H457      1.0  0.34622  0.3869300000000001  0.82801  1.0000
  H   H458      1.0  0.4041199999999999  0.3725  0.80753  1.0000
  C   C382      1.0  0.43626  0.32904  0.88509  1.0000
  H   H459      1.0  0.45836999999999994  0.32058  0.85469  1.0000
  H   H460      1.0  0.43849  0.2992900000000002  0.90814  1.0000
  C   C383      1.0  0.45645  0.3719400000000001  0.90999  1.0000
  H   H461      1.0  0.46821  0.36246  0.94477  1.0000
  H   H462      1.0  0.48813  0.3838  0.89136  1.0000
  C   C384      1.0  0.3752  0.3922900000000001  0.93857  1.0000
  H   H463      1.0  0.38492  0.38285  0.97395  1.0000
  H   H464      1.0  0.34724  0.41923000000000005  0.9412  1.0000
  C   C385      1.0  0.152  0.32581  0.38145  1.0000
  C   C386      1.0  0.19923  0.35159  0.37772  1.0000
  C   C387      1.0  0.15230999999999997  0.42688  0.37357999999999997  1.0000
  C   C388      1.0  0.13305  0.40383000000000013  0.41658999999999996  1.0000
  C   C389      1.0  0.11331  0.35638  0.40296  1.0000
  H   H465      1.0  0.13996  0.3141200000000001  0.34721  1.0000
  H   H466      1.0  0.15689999999999996  0.29504  0.40275  1.0000
  H   H467      1.0  0.16755  0.46061  0.38265  1.0000
  H   H468      1.0  0.12321999999999997  0.43333  0.34897  1.0000
  H   H469      1.0  0.08411  0.36004  0.37794  1.0000
  H   H470      1.0  0.09855  0.33947  0.43348  1.0000
  C   C390      1.0  0.17524  0.39588  0.44985  1.0000
  H   H471      1.0  0.16251  0.37913000000000013  0.48126  1.0000
  H   H472      1.0  0.19051  0.42913  0.46041  1.0000
  C   C391      1.0  0.21464  0.36537  0.42666  1.0000
  H   H473      1.0  0.24827  0.3843900000000001  0.42537  1.0000
  H   H474      1.0  0.22104  0.33436  0.44728  1.0000
  C   C392      1.0  0.19041  0.3965400000000001  0.35075999999999996  1.0000
  H   H475      1.0  0.22381  0.41586  0.34815  1.0000
  H   H476      1.0  0.17863999999999997  0.38899  0.31534  1.0000
  C   C393      1.0  0.85278  0.56088  0.64747  1.0000
  C   C394      1.0  0.85304  0.6085100000000001  0.62501  1.0000
  C   C395      1.0  0.9401499999999999  0.5952600000000002  0.6057  1.0000
  C   C396      1.0  0.91523  0.55293  0.5849  1.0000
  C   C397      1.0  0.88883  0.52834  0.62374  1.0000
  H   H477      1.0  0.86182  0.5639300000000002  0.68424  1.0000
  H   H478      1.0  0.8169  0.54608  0.64528  1.0000
  H   H479      1.0  0.95942  0.6136400000000002  0.57863  1.0000
  H   H480      1.0  0.96658  0.58439  0.63144  1.0000
  H   H481      1.0  0.91452  0.51543  0.64928  1.0000
  H   H482      1.0  0.8699  0.49827  0.60974  1.0000
  C   C398      1.0  0.87801  0.5700000000000001  0.55008  1.0000
  H   H483      1.0  0.85914  0.5407000000000001  0.53439  1.0000
  H   H484      1.0  0.8958199999999998  0.58825  0.52199  1.0000
  C   C399      1.0  0.84146  0.60216  0.57357  1.0000
  H   H485      1.0  0.84162  0.6356200000000001  0.55613  1.0000
  H   H486      1.0  0.8054999999999998  0.58791  0.56955  1.0000
  C   C400      1.0  0.9036099999999999  0.62797  0.62889  1.0000
  H   H487      1.0  0.90505  0.66197  0.61261  1.0000
  H   H488      1.0  0.91312  0.63299  0.66537  1.0000
  C   C401      1.0  0.10856  0.58992  0.69493  1.0000
  C   C402      1.0  0.15692999999999993  0.6083600000000002  0.67917  1.0000
  C   C403      1.0  0.17116999999999996  0.53332  0.63568  1.0000
  C   C404      1.0  0.12281  0.55085  0.61777  1.0000
  C   C405      1.0  0.08861  0.55643  0.65903  1.0000
  H   H489      1.0  0.11256999999999999  0.57234  0.72808  1.0000
  H   H490      1.0  0.08276  0.61845  0.7002899999999999  1.0000
  H   H491      1.0  0.19657  0.52929  0.60689  1.0000
  H   H492      1.0  0.16727999999999996  0.49917000000000006  0.65122  1.0000
  H   H493      1.0  0.08278  0.5229  0.67531  1.0000
  H   H494      1.0  0.053619999999999994  0.56918  0.64728  1.0000
  C   C406      1.0  0.12991  0.5986400000000002  0.59677  1.0000
  H   H495      1.0  0.09573  0.61221  0.58375  1.0000
  H   H496      1.0  0.1547  0.5961  0.56735  1.0000
  C   C407      1.0  0.14991  0.6322100000000003  0.63268  1.0000
  H   H497      1.0  0.18414999999999998  0.64561  0.62035  1.0000
  H   H498      1.0  0.12532  0.66195  0.6366  1.0000
  C   C408      1.0  0.19121  0.567  0.6717199999999999  1.0000
  H   H499      1.0  0.22624  0.57885  0.6599  1.0000
  H   H500      1.0  0.19684  0.54903  0.70442  1.0000
  C   C409      1.0  0.93557  0.3468  0.64949  1.0000
  C   C410      1.0  0.91053  0.36073  0.60465  1.0000
  C   C411      1.0  0.86394  0.2869400000000001  0.60866  1.0000
  C   C412      1.0  0.8546199999999999  0.3106600000000001  0.6556  1.0000
  C   C413      1.0  0.90285  0.31796  0.67937  1.0000
  H   H501      1.0  0.96839  0.32697  0.64145  1.0000
  H   H502      1.0  0.9462  0.37759000000000004  0.66935  1.0000
  H   H503      1.0  0.82994  0.2813  0.59072  1.0000
  H   H504      1.0  0.88073  0.25284  0.61359  1.0000
  H   H505      1.0  0.92049  0.28457  0.68598  1.0000
  H   H506      1.0  0.8974  0.33535  0.71298  1.0000
  C   C414      1.0  0.8318399999999999  0.35828  0.64695  1.0000
  H   H507      1.0  0.82462  0.37622  0.67996  1.0000
  H   H508      1.0  0.79744  0.35451  0.62921  1.0000
  C   C415      1.0  0.86461  0.3875400000000001  0.6174599999999999  1.0000
  H   H509      1.0  0.84575  0.39807  0.58603  1.0000
  H   H510      1.0  0.87321  0.41922  0.63683  1.0000
  C   C416      1.0  0.8965699999999999  0.31643  0.5786  1.0000
  H   H511      1.0  0.87788  0.3251100000000001  0.54652  1.0000
  H   H512      1.0  0.92878  0.29638  0.56902  1.0000
  C   C417      1.0  0.16349  0.6419700000000002  0.36236  1.0000
  C   C418      1.0  0.1238  0.67307  0.34287  1.0000
  C   C419      1.0  0.07219  0.60236  0.33699  1.0000
  C   C420      1.0  0.08812999999999999  0.60299  0.38779  1.0000
  C   C421      1.0  0.14281  0.60138  0.38864  1.0000
  H   H513      1.0  0.18622  0.62865  0.33408  1.0000
  H   H514      1.0  0.18641999999999995  0.6620400000000002  0.38569  1.0000
  H   H515      1.0  0.03300000000000001  0.6037100000000002  0.3351  1.0000
  H   H516      1.0  0.08398999999999998  0.57004  0.3199  1.0000
  H   H517      1.0  0.156  0.56876  0.37309  1.0000
  H   H518      1.0  0.1556  0.60245  0.42443999999999993  1.0000
  C   C422      1.0  0.07133  0.64918  0.40935  1.0000
  H   H519      1.0  0.08243  0.65148  0.44562  1.0000
  H   H520      1.0  0.03213  0.65149  0.40887  1.0000
  C   C423      1.0  0.09211  0.6899800000000001  0.38318  1.0000
  H   H521      1.0  0.06284999999999998  0.71186  0.37019  1.0000
  H   H522      1.0  0.11287999999999997  0.71132  0.40726  1.0000
  C   C424      1.0  0.09295999999999996  0.6432700000000002  0.31079999999999997  1.0000
  H   H523      1.0  0.06366  0.6642600000000001  0.29656  1.0000
  H   H524      1.0  0.11448  0.63019  0.28152999999999995  1.0000
  C   C425      1.0  0.7936799999999999  0.37395  0.37876  1.0000
  C   C426      1.0  0.8213  0.33819  0.34895  1.0000
  C   C427      1.0  0.88359  0.39852  0.3352  1.0000
  C   C428      1.0  0.88034  0.39641  0.38807  1.0000
  C   C429      1.0  0.8284099999999999  0.40799  0.40192  1.0000
  H   H525      1.0  0.76806  0.39306  0.35736  1.0000
  H   H526      1.0  0.7730699999999998  0.35645  0.40549  1.0000
  H   H527      1.0  0.92005  0.39011  0.32338  1.0000
  H   H528      1.0  0.87517  0.43371  0.32372  1.0000
  H   H529      1.0  0.81924  0.44344  0.39182  1.0000
  H   H530      1.0  0.82425  0.4063100000000001  0.43954999999999994  1.0000
  C   C430      1.0  0.8915  0.34683000000000014  0.40267  1.0000
  H   H531      1.0  0.88908  0.34413  0.4404  1.0000
  H   H532      1.0  0.92828  0.33711  0.3928  1.0000
  C   C431      1.0  0.85702  0.31308  0.38031  1.0000
  H   H533      1.0  0.87769  0.28699  0.36052  1.0000
  H   H534      1.0  0.83773  0.29475  0.40742  1.0000
  C   C432      1.0  0.84935  0.36452  0.3125  1.0000
  H   H535      1.0  0.86996  0.3403100000000001  0.29042  1.0000
  H   H536      1.0  0.82453  0.38332  0.28997  1.0000
  C   C433      1.0  0.39269999999999994  0.5841  0.32397  1.0000
  C   C434      1.0  0.3756099999999999  0.5851100000000002  0.37437  1.0000
  C   C435      1.0  0.35687  0.67028  0.36593  1.0000
  C   C436      1.0  0.32928  0.6476700000000002  0.32628  1.0000
  C   C437      1.0  0.3653699999999999  0.62069  0.29574  1.0000
  H   H537      1.0  0.43119  0.5909000000000001  0.32243  1.0000
  H   H538      1.0  0.38715999999999995  0.54967  0.30864  1.0000
  H   H539      1.0  0.33214  0.6897  0.38873  1.0000
  H   H540      1.0  0.38245999999999997  0.6951700000000001  0.35234  1.0000
  H   H541      1.0  0.39104  0.64453  0.28053  1.0000
  H   H542      1.0  0.34662  0.60368  0.26707  1.0000
  C   C438      1.0  0.29483  0.6125900000000002  0.34693  1.0000
  H   H543      1.0  0.27428  0.5957700000000002  0.31933  1.0000
  H   H544      1.0  0.26917  0.6302300000000002  0.37011  1.0000
  C   C439      1.0  0.32178  0.57605  0.3744  1.0000
  H   H545      1.0  0.30788  0.5762  0.40991  1.0000
  H   H546      1.0  0.31485  0.54167  0.35952  1.0000
  C   C440      1.0  0.38371  0.63402  0.39389  1.0000
  H   H547      1.0  0.37156  0.6366  0.42994  1.0000
  H   H548      1.0  0.42207  0.6416000000000002  0.39374  1.0000
  C   C441      1.0  0.57907  0.3857100000000001  0.68593  1.0000
  C   C442      1.0  0.63325  0.37871  0.67911  1.0000
  C   C443      1.0  0.6212  0.3953900000000001  0.59468  1.0000
  C   C444      1.0  0.5980399999999999  0.43764  0.61895  1.0000
  C   C445      1.0  0.55855  0.42  0.65084  1.0000
  H   H549      1.0  0.56071  0.35260000000000014  0.6819  1.0000
  H   H550      1.0  0.57169  0.39855  0.72111  1.0000
  H   H551      1.0  0.6501399999999999  0.40628  0.57175  1.0000
  H   H552      1.0  0.59469  0.37789  0.57293  1.0000
  H   H553      1.0  0.53073  0.40308000000000005  0.63025  1.0000
  H   H554      1.0  0.5414  0.4491300000000001  0.66945  1.0000
  C   C446      1.0  0.63602  0.46050000000000013  0.64935  1.0000
  H   H555      1.0  0.6203199999999999  0.49044  0.66785  1.0000
  H   H556      1.0  0.66517  0.47343000000000013  0.62781  1.0000
  C   C447      1.0  0.6566099999999999  0.42622000000000004  0.68425  1.0000
  H   H557      1.0  0.6954  0.42304000000000014  0.67893  1.0000
  H   H558      1.0  0.65091  0.4398700000000001  0.71942  1.0000
  C   C448      1.0  0.64158  0.36124  0.62957  1.0000
  H   H559      1.0  0.68002  0.35617  0.62312  1.0000
  H   H560      1.0  0.62472  0.32747  0.6245399999999999  1.0000
  C   C449      1.0  0.37458  0.4351  0.6482399999999999  1.0000
  C   C450      1.0  0.37951  0.41158  0.60063  1.0000
  C   C451      1.0  0.38058999999999993  0.33481000000000005  0.63817  1.0000
  C   C452      1.0  0.3346199999999999  0.3586500000000001  0.65595  1.0000
  C   C453      1.0  0.34801  0.4036300000000001  0.68118  1.0000
  H   H561      1.0  0.40995  0.44274  0.66257  1.0000
  H   H562      1.0  0.35506999999999994  0.4681300000000001  0.64526  1.0000
  H   H563      1.0  0.37244  0.30246  0.61969  1.0000
  H   H564      1.0  0.40388  0.32584  0.66728  1.0000
  H   H565      1.0  0.37096  0.39614  0.71093  1.0000
  H   H566      1.0  0.31572  0.42143  0.69431  1.0000
  C   C454      1.0  0.30262999999999995  0.3708500000000001  0.6151  1.0000
  H   H567      1.0  0.26988  0.38855  0.62733  1.0000
  H   H568      1.0  0.29168  0.33950000000000014  0.59629  1.0000
  C   C455      1.0  0.3291  0.40172  0.58234  1.0000
  H   H569      1.0  0.33088999999999996  0.38441  0.54836  1.0000
  H   H570      1.0  0.30895  0.43426000000000003  0.57816  1.0000
  C   C456      1.0  0.40699  0.36605  0.60568  1.0000
  H   H571      1.0  0.4112  0.3486900000000001  0.5719  1.0000
  H   H572      1.0  0.44302  0.37232  0.6192  1.0000
  C   C457      1.0  0.68123  0.63639  0.37672  1.0000
  C   C458      1.0  0.64885  0.65948  0.34085  1.0000
  C   C459      1.0  0.6073  0.58379  0.32945  1.0000
  C   C460      1.0  0.6040699999999999  0.5940100000000003  0.3812  1.0000
  C   C461      1.0  0.65472  0.59762  0.40066  1.0000
  H   H573      1.0  0.7136  0.62224  0.35991000000000006  1.0000
  H   H574      1.0  0.69275  0.66185  0.40272  1.0000
  H   H575      1.0  0.57138  0.58054  0.3146  1.0000
  H   H576      1.0  0.6263  0.55081  0.32311  1.0000
  H   H577      1.0  0.67446  0.5649  0.39531  1.0000
  H   H578      1.0  0.65326  0.6046  0.438  1.0000
  C   C462      1.0  0.57821  0.64084  0.38895  1.0000
  H   H579      1.0  0.5754  0.6487200000000001  0.42607  1.0000
  H   H580      1.0  0.5416499999999999  0.63994  0.37524  1.0000
  C   C463      1.0  0.60462  0.67925  0.36521  1.0000
  H   H581      1.0  0.5809  0.6961300000000002  0.3402  1.0000
  H   H582      1.0  0.61469  0.70559  0.39096  1.0000
  C   C464      1.0  0.63338  0.62239  0.30558  1.0000
  H   H583      1.0  0.6096  0.63764  0.2796  1.0000
  H   H584      1.0  0.66475  0.6079700000000001  0.28726  1.0000
  C   C465      1.0  0.40948  0.67732  0.63263  1.0000
  C   C466      1.0  0.35515  0.6708900000000002  0.63622  1.0000
  C   C467      1.0  0.35833999999999994  0.6295500000000002  0.55888  1.0000
  C   C468      1.0  0.39514  0.6029500000000001  0.58773  1.0000
  C   C469      1.0  0.43289  0.63759  0.60415  1.0000
  H   H585      1.0  0.41717  0.71041  0.61628  1.0000
  H   H586      1.0  0.4252199999999999  0.6784100000000001  0.6673  1.0000
  H   H587      1.0  0.33032  0.60619  0.54661  1.0000
  H   H588      1.0  0.37569  0.64359  0.52815  1.0000
  H   H589      1.0  0.45159  0.6518100000000001  0.57429  1.0000
  H   H590      1.0  0.45979  0.61995  0.62536  1.0000
  C   C470      1.0  0.36978  0.58468  0.63065  1.0000
  H   H591      1.0  0.39546999999999993  0.56595  0.65234  1.0000
  H   H592      1.0  0.34204  0.56  0.62064  1.0000
  C   C471      1.0  0.3466  0.6240500000000001  0.65869  1.0000
  H   H593      1.0  0.3081  0.61774  0.66169  1.0000
  H   H594      1.0  0.36113999999999996  0.6241600000000003  0.6938799999999999  1.0000
  C   C472      1.0  0.3351499999999999  0.66897  0.58699  1.0000
  H   H595      1.0  0.29630999999999996  0.66395  0.5877699999999999  1.0000
  H   H596      1.0  0.3414  0.70193  0.56978  1.0000
  C   C473      1.0  0.55697  0.3474700000000001  0.43472  1.0000
  C   C474      1.0  0.5677  0.39  0.40558  1.0000
  C   C475      1.0  0.64525  0.35098  0.38131  1.0000
  C   C476      1.0  0.60767  0.31464  0.36962  1.0000
  C   C477      1.0  0.5800399999999998  0.3037700000000001  0.41381999999999997  1.0000
  H   H597      1.0  0.57035  0.35237  0.47004  1.0000
  H   H598      1.0  0.51815  0.3428900000000001  0.43731  1.0000
  H   H599      1.0  0.66525  0.35987  0.35006  1.0000
  H   H600      1.0  0.67131  0.33707  0.40598  1.0000
  H   H601      1.0  0.6040699999999999  0.2883300000000001  0.43944  1.0000
  H   H602      1.0  0.55229  0.2783  0.40622  1.0000
  C   C478      1.0  0.57212  0.33656  0.33556  1.0000
  H   H603      1.0  0.5443  0.31165  0.32649  1.0000
  H   H604      1.0  0.59066  0.3453300000000001  0.30347  1.0000
  C   C479      1.0  0.54858  0.3806600000000001  0.35671  1.0000
  H   H605      1.0  0.55593  0.41023  0.33455  1.0000
  H   H606      1.0  0.50965  0.37661  0.35787  1.0000
  C   C480      1.0  0.62213  0.39463000000000004  0.40198  1.0000
  H   H607      1.0  0.63092  0.42437  0.38054  1.0000
  H   H608      1.0  0.63761  0.40116  0.43621999999999994  1.0000
