data_image0
_chemical_formula_structural       Zn2CZn2HCO8HO6C4Zn2CZn2HCO8HO6C4Zn2CZn2HCO8HO6C4Zn2CZn2HCO8HO6C4Zn2CZn2HCO8HO6C4Zn2CZn2HCO8HO6C7HC3HC12H10C3HC3HC12H10C3HC3HC12H10C3HC3HC12H10C3HC3HC12H10C3HC3HC12H10CHCHCHC3HCHCHCHCHCHC3HCHCHCHCHCHC3HCHCHC3HC3HC12H10C3HC3HC12H10C3HC3HC12H10CHCHCHC3HCHCHCHCHCHC3HCHCHCHCHCHC3HCHCHC3HC3HC12H10C3HC3HC12H10C3HC3HC12H10
_chemical_formula_sum              "Zn24 C300 H192 O84"
_cell_length_a       19.02219
_cell_length_b       16.43788
_cell_length_c       36.84084
_cell_angle_alpha    88.26163
_cell_angle_beta     88.45328
_cell_angle_gamma    107.43681

_symmetry_space_group_name_H-M    'P 1'
_symmetry_Int_Tables_number       1

loop_
  _symmetry_equiv_pos_as_xyz
  'x,y,z'

loop_
  _atom_site_type_symbol
  _atom_site_label
  _atom_site_symmetry_multiplicity
  _atom_site_fract_x
  _atom_site_fract_y
  _atom_site_fract_z
  _atom_site_occupancy
  Zn  Zn1       1.0  0.56165  0.3337400000000001  0.89851  1.0000
  Zn  Zn2       1.0  0.69595  0.5175400000000002  0.9154600000000002  1.0000
  C   C1        1.0  0.75951  0.22952  0.84684  1.0000
  Zn  Zn3       1.0  0.73011  0.37238  0.8788499999999999  1.0000
  Zn  Zn4       1.0  0.59746  0.19815000000000002  0.85146  1.0000
  H   H1        1.0  0.67803  0.36599000000000004  0.9424899999999999  1.0000
  C   C2        1.0  0.7295499999999999  0.51773  0.83351  1.0000
  O   O1        1.0  0.48827  0.15246000000000007  0.8578  1.0000
  O   O2        1.0  0.46326  0.27587  0.87169  1.0000
  O   O3        1.0  0.66717  0.38986  0.91904  1.0000
  O   O4        1.0  0.60196  0.5434200000000002  0.92235  1.0000
  O   O5        1.0  0.53605  0.23913000000000004  0.93558  1.0000
  O   O6        1.0  0.51474  0.42311  0.9067299999999999  1.0000
  O   O7        1.0  0.60888  0.16795  0.90864  1.0000
  O   O8        1.0  0.80358  0.56133  0.9057  1.0000
  H   H2        1.0  0.6149  0.3539000000000001  0.83471  1.0000
  O   O9        1.0  0.82832  0.4338500000000002  0.90642  1.0000
  O   O10       1.0  0.6248099999999999  0.3237300000000001  0.85675  1.0000
  O   O11       1.0  0.69427  0.1762  0.84048  1.0000
  O   O12       1.0  0.76144  0.45779  0.8385  1.0000
  O   O13       1.0  0.76841  0.27504  0.87594  1.0000
  O   O14       1.0  0.67934  0.52482  0.85741  1.0000
  C   C3        1.0  0.44424  0.20088  0.85711  1.0000
  C   C4        1.0  0.5394400000000001  0.4837800000000002  0.92966  1.0000
  C   C5        1.0  0.56128  0.17289  0.9344699999999999  1.0000
  C   C6        1.0  0.8478199999999999  0.51572  0.9128899999999999  1.0000
  Zn  Zn5       1.0  0.66877  0.43415  0.56534  1.0000
  Zn  Zn6       1.0  0.51161  0.3307100000000001  0.52342  1.0000
  C   C7        1.0  0.69925  0.14621  0.59191  1.0000
  Zn  Zn7       1.0  0.59788  0.23427  0.56424  1.0000
  Zn  Zn8       1.0  0.74536  0.32957  0.60964  1.0000
  H   H3        1.0  0.64015  0.32763  0.5097  1.0000
  C   C8        1.0  0.44927999999999996  0.20067000000000002  0.59164  1.0000
  O   O15       1.0  0.81574  0.44558  0.61015  1.0000
  O   O16       1.0  0.7318799999999999  0.51922  0.60359  1.0000
  O   O17       1.0  0.61304  0.3330400000000001  0.53238  1.0000
  O   O18       1.0  0.50789  0.40789000000000014  0.5626  1.0000
  O   O19       1.0  0.75893  0.45365  0.53462  1.0000
  O   O20       1.0  0.6121899999999999  0.5175200000000002  0.55722  1.0000
  O   O21       1.0  0.77751  0.32714  0.55237  1.0000
  O   O22       1.0  0.4888400000000001  0.2379800000000001  0.48972000000000004  1.0000
  H   H4        1.0  0.61641  0.34111  0.62112  1.0000
  O   O23       1.0  0.53641  0.14856000000000008  0.52458  1.0000
  O   O24       1.0  0.64601  0.33508  0.59944  1.0000
  O   O25       1.0  0.7275299999999999  0.20405  0.6157  1.0000
  O   O26       1.0  0.51434  0.19422  0.59898  1.0000
  O   O27       1.0  0.66657  0.16484  0.56322  1.0000
  O   O28       1.0  0.43800999999999995  0.23435  0.56047  1.0000
  C   C9        1.0  0.7977299999999999  0.5164500000000002  0.61266  1.0000
  C   C10       1.0  0.54036  0.48819000000000023  0.55411  1.0000
  C   C11       1.0  0.79401  0.3963  0.53076  1.0000
  C   C12       1.0  0.49754000000000004  0.16245  0.49691  1.0000
  Zn  Zn9       1.0  0.9249399999999999  0.924  0.71473  1.0000
  Zn  Zn10      1.0  0.01676000000000002  0.9644000000000001  0.79265  1.0000
  C   C13       1.0  0.16081000000000004  0.08685000000000001  0.65612  1.0000
  Zn  Zn11      1.0  0.07127000000000001  0.07173000000000002  0.7229  1.0000
  Zn  Zn12      1.0  0.001259999999999963  0.9990299999999999  0.64258  1.0000
  H   H5        1.0  0.06210000000000004  0.91501  0.73275  1.0000
  C   C14       1.0  0.97704  0.12982  0.773  1.0000
  O   O29       1.0  0.90473  0.9209400000000002  0.63038  1.0000
  O   O30       1.0  0.8325800000000001  0.91783  0.68107  1.0000
  O   O31       1.0  0.029600000000000015  0.94992  0.73917  1.0000
  O   O32       1.0  0.9213199999999999  0.87779  0.80656  1.0000
  O   O33       1.0  0.9314899999999999  0.8167900000000002  0.69525  1.0000
  O   O34       1.0  0.85813  0.90151  0.75755  1.0000
  O   O35       1.0  0.030099999999999905  0.88449  0.65837  1.0000
  O   O36       1.0  0.10032000000000002  0.060500000000000005  0.80828  1.0000
  H   H6        1.0  0.9483699999999999  0.07445000000000002  0.69112  1.0000
  O   O37       1.0  0.16599  0.09142000000000002  0.75442  1.0000
  O   O38       1.0  0.97878  0.03499  0.69172  1.0000
  O   O39       1.0  0.11089000000000002  0.04934000000000003  0.63278  1.0000
  O   O40       1.0  0.03493  0.15473000000000003  0.75036  1.0000
  O   O41       1.0  0.14232  0.12651000000000007  0.68353  1.0000
  O   O42       1.0  0.95153  0.050129999999999994  0.7849  1.0000
  C   C15       1.0  0.8429199999999999  0.9262400000000002  0.6453  1.0000
  C   C16       1.0  0.8672199999999999  0.85065  0.78417  1.0000
  C   C17       1.0  0.97933  0.8140300000000003  0.66954  1.0000
  C   C18       1.0  0.16376  0.08718  0.78998  1.0000
  Zn  Zn13      1.0  0.3295100000000001  0.7113700000000002  0.40376  1.0000
  Zn  Zn14      1.0  0.21287  0.52737  0.44172999999999996  1.0000
  C   C19       1.0  0.1267600000000001  0.7945400000000002  0.35736  1.0000
  Zn  Zn15      1.0  0.15837  0.64404  0.39223  1.0000
  Zn  Zn16      1.0  0.28018  0.80461  0.34054  1.0000
  H   H7        1.0  0.21462  0.67992  0.45252  1.0000
  C   C20       1.0  0.16755000000000003  0.4865900000000002  0.36303  1.0000
  O   O43       1.0  0.37614000000000003  0.8170300000000003  0.31776  1.0000
  O   O44       1.0  0.4257099999999999  0.78433  0.37075  1.0000
  O   O45       1.0  0.22749999999999998  0.65059  0.43141  1.0000
  O   O46       1.0  0.31465999999999994  0.5201700000000001  0.44341  1.0000
  O   O47       1.0  0.33372  0.81078  0.43128  1.0000
  O   O48       1.0  0.39464  0.64752  0.42305  1.0000
  O   O49       1.0  0.34115  0.8951500000000002  0.38031  1.0000
  O   O50       1.0  0.10429999999999996  0.47031999999999996  0.44281  1.0000
  H   H8        1.0  0.27348  0.65094  0.34699  1.0000
  O   O51       1.0  0.06675999999999999  0.58686  0.42824  1.0000
  O   O52       1.0  0.26152  0.69084  0.36397  1.0000
  O   O53       1.0  0.19584000000000004  0.8422800000000003  0.35757  1.0000
  O   O54       1.0  0.12964  0.54138  0.36352  1.0000
  O   O55       1.0  0.10319  0.72529  0.37874  1.0000
  O   O56       1.0  0.2213000000000001  0.49413000000000024  0.38543  1.0000
  C   C21       1.0  0.43312999999999996  0.8115200000000002  0.33617  1.0000
  C   C22       1.0  0.3732700000000001  0.5853600000000002  0.44809999999999994  1.0000
  C   C23       1.0  0.34615000000000007  0.8863100000000003  0.41568  1.0000
  C   C24       1.0  0.055499999999999994  0.5124599999999999  0.44541000000000003  1.0000
  Zn  Zn17      1.0  0.19530000000000006  0.7282800000000003  0.05720999999999999  1.0000
  Zn  Zn18      1.0  0.32859  0.86419  0.10809  1.0000
  C   C25       1.0  0.35555  0.56299  0.03461  1.0000
  Zn  Zn19      1.0  0.36296  0.73052  0.06063  1.0000
  Zn  Zn20      1.0  0.23587  0.60758  0.00363  1.0000
  H   H9        1.0  0.27585  0.70506  0.11339  1.0000
  C   C26       1.0  0.43057999999999996  0.90337  0.03537  1.0000
  O   O57       1.0  0.16766000000000006  0.6371000000000002  0.97173  1.0000
  O   O58       1.0  0.11089000000000004  0.6954200000000003  0.01582  1.0000
  O   O59       1.0  0.2857600000000001  0.7465700000000002  0.09249  1.0000
  O   O60       1.0  0.2758700000000001  0.9204800000000002  0.07516  1.0000
  O   O61       1.0  0.14202000000000006  0.6249800000000002  0.08618  1.0000
  O   O62       1.0  0.16083000000000003  0.8287600000000003  0.06763  1.0000
  O   O63       1.0  0.13773  0.53991  0.03797  1.0000
  O   O64       1.0  0.40903  0.85051  0.1378  1.0000
  H   H10       1.0  0.2854  0.76497  0.00621  1.0000
  O   O65       1.0  0.44844999999999996  0.76287  0.09993  1.0000
  O   O66       1.0  0.27477000000000007  0.7186100000000002  0.02523  1.0000
  O   O67       1.0  0.28376  0.53829  0.03268  1.0000
  O   O68       1.0  0.42191999999999996  0.8235700000000002  0.02817  1.0000
  O   O69       1.0  0.38791  0.6226  0.05683  1.0000
  O   O70       1.0  0.41834  0.9243600000000002  0.06847  1.0000
  C   C27       1.0  0.11067  0.65945  0.98387  1.0000
  C   C28       1.0  0.20415000000000005  0.9026800000000003  0.07796  1.0000
  C   C29       1.0  0.12277  0.54923  0.07235  1.0000
  C   C30       1.0  0.46224  0.82293  0.1242  1.0000
  Zn  Zn21      1.0  0.98836  0.14356  0.21074  1.0000
  Zn  Zn22      1.0  0.8709399999999999  0.10063000000000005  0.2873  1.0000
  C   C31       1.0  0.76878  0.9557900000000003  0.15685  1.0000
  Zn  Zn23      1.0  0.8555299999999999  0.9823500000000002  0.22185000000000002  1.0000
  Zn  Zn24      1.0  0.92429  0.06844  0.13855  1.0000
  H   H11       1.0  0.84514  0.1294  0.22213  1.0000
  C   C32       1.0  0.9248999999999999  0.9362600000000002  0.2834  1.0000
  O   O71       1.0  0.023459999999999998  0.14268  0.12318  1.0000
  O   O72       1.0  0.08625  0.16614  0.1761  1.0000
  O   O73       1.0  0.87972  0.10301000000000002  0.2338  1.0000
  O   O74       1.0  0.9734299999999999  0.15268  0.30378  1.0000
  O   O75       1.0  0.9743899999999999  0.24948999999999996  0.19277  1.0000
  O   O76       1.0  0.04913  0.1625  0.25358  1.0000
  O   O77       1.0  0.9027  0.18999  0.14699  1.0000
  O   O78       1.0  0.76493  0.044649999999999995  0.29537  1.0000
  H   H12       1.0  0.98155  0.002030000000000002  0.18765  1.0000
  O   O79       1.0  0.76245  0.9321000000000003  0.25926  1.0000
  O   O80       1.0  0.94661  0.03616  0.18805  1.0000
  O   O81       1.0  0.81277  0.022710000000000004  0.13814  1.0000
  O   O82       1.0  0.9111500000000001  0.92026  0.24917000000000003  1.0000
  O   O83       1.0  0.7927  0.91938  0.18426  1.0000
  O   O84       1.0  0.88781  0.97792  0.30199  1.0000
  C   C33       1.0  0.08197  0.14334  0.14172  1.0000
  C   C34       1.0  0.029150000000000002  0.19709  0.28238  1.0000
  C   C35       1.0  0.9517899999999998  0.25593  0.16006  1.0000
  C   C36       1.0  0.7286900000000001  0.9725700000000003  0.28073  1.0000
  C   C37       1.0  0.9950799999999999  0.3283  0.13569  1.0000
  C   C38       1.0  0.96302  0.3604400000000001  0.10649  1.0000
  C   C39       1.0  0.005499999999999986  0.43255999999999994  0.08571  1.0000
  H   H13       1.0  0.9814  0.45657  0.06298  1.0000
  C   C40       1.0  0.07842000000000002  0.4747900000000001  0.09469  1.0000
  C   C41       1.0  0.10971999999999998  0.44335  0.12408999999999999  1.0000
  C   C42       1.0  0.06921000000000001  0.36869000000000013  0.14328  1.0000
  H   H14       1.0  0.09486000000000001  0.3434100000000001  0.16504  1.0000
  C   C43       1.0  0.18459  0.48914000000000013  0.13553  1.0000
  C   C44       1.0  0.19427000000000003  0.5497000000000002  0.16245  1.0000
  C   C45       1.0  0.26499  0.59088  0.17416  1.0000
  C   C46       1.0  0.32622  0.57271  0.15866  1.0000
  C   C47       1.0  0.3167  0.51215  0.13193  1.0000
  C   C48       1.0  0.24601  0.4701100000000001  0.12048  1.0000
  C   C49       1.0  0.8854399999999999  0.31971  0.0976  1.0000
  C   C50       1.0  0.82816  0.33382000000000006  0.11886000000000001  1.0000
  C   C51       1.0  0.7547599999999999  0.28924  0.11246999999999999  1.0000
  C   C52       1.0  0.7382699999999999  0.23153  0.08454  1.0000
  C   C53       1.0  0.7951299999999999  0.21844000000000005  0.06288  1.0000
  C   C54       1.0  0.8686500000000001  0.2625000000000001  0.06931  1.0000
  H   H15       1.0  0.71069  0.29913  0.12927  1.0000
  H   H16       1.0  0.68146  0.19708  0.07963  1.0000
  H   H17       1.0  0.78226  0.17373000000000002  0.04128  1.0000
  H   H18       1.0  0.9125099999999999  0.25097  0.05286  1.0000
  H   H19       1.0  0.84059  0.37809  0.14065  1.0000
  H   H20       1.0  0.14713  0.56487  0.17416  1.0000
  H   H21       1.0  0.2724300000000001  0.6374500000000002  0.19497  1.0000
  H   H22       1.0  0.23891000000000007  0.4227800000000001  0.10009  1.0000
  H   H23       1.0  0.36409  0.49775000000000014  0.12009  1.0000
  H   H24       1.0  0.3810200000000001  0.6055700000000003  0.16735  1.0000
  C   C55       1.0  0.53816  0.85662  0.13716  1.0000
  C   C56       1.0  0.57192  0.94561  0.13997  1.0000
  C   C57       1.0  0.64824  0.9773000000000002  0.14405  1.0000
  H   H25       1.0  0.67403  0.04544000000000001  0.14578  1.0000
  C   C58       1.0  0.6910700000000001  0.9216900000000002  0.14716  1.0000
  C   C59       1.0  0.65786  0.83308  0.14408  1.0000
  C   C60       1.0  0.58144  0.8011  0.1402  1.0000
  H   H26       1.0  0.55616  0.7330700000000002  0.13766  1.0000
  C   C61       1.0  0.70334  0.7742000000000002  0.14169  1.0000
  C   C62       1.0  0.75627  0.78475  0.11316000000000001  1.0000
  C   C63       1.0  0.79806  0.72805  0.11050000000000001  1.0000
  C   C64       1.0  0.78609  0.65956  0.13571  1.0000
  C   C65       1.0  0.7324399999999999  0.64774  0.16368  1.0000
  C   C66       1.0  0.6918  0.70551  0.16705  1.0000
  C   C67       1.0  0.52838  0.006420000000000002  0.13845  1.0000
  C   C68       1.0  0.5336199999999999  0.05994000000000001  0.10744  1.0000
  C   C69       1.0  0.4929299999999999  0.11803  0.10614  1.0000
  C   C70       1.0  0.44785000000000025  0.12382000000000003  0.13595  1.0000
  C   C71       1.0  0.44422000000000006  0.07244000000000003  0.16732  1.0000
  C   C72       1.0  0.48504  0.014510000000000002  0.16879  1.0000
  H   H27       1.0  0.49631999999999993  0.15852000000000005  0.08204  1.0000
  H   H28       1.0  0.41597999999999996  0.16839  0.1348  1.0000
  H   H29       1.0  0.40973  0.07745  0.19048  1.0000
  H   H30       1.0  0.48208999999999996  0.97499  0.1932  1.0000
  H   H31       1.0  0.56854  0.05586  0.0843  1.0000
  H   H32       1.0  0.7648899999999998  0.8367200000000004  0.0931  1.0000
  H   H33       1.0  0.83927  0.73678  0.0887  1.0000
  H   H34       1.0  0.6509600000000001  0.6964900000000005  0.18908  1.0000
  H   H35       1.0  0.72181  0.59329  0.1825  1.0000
  H   H36       1.0  0.8179800000000002  0.6152400000000002  0.1334  1.0000
  C   C73       1.0  0.13000999999999996  0.09509000000000002  0.12777  1.0000
  C   C74       1.0  0.15263  0.10374000000000003  0.0906  1.0000
  C   C75       1.0  0.17254  0.03773  0.07411  1.0000
  H   H37       1.0  0.18992999999999996  0.04449  0.0456  1.0000
  C   C76       1.0  0.17248000000000008  0.9643900000000002  0.09446  1.0000
  C   C77       1.0  0.15565000000000004  0.9587700000000002  0.13214  1.0000
  C   C78       1.0  0.13580999999999996  0.02474  0.14865  1.0000
  H   H38       1.0  0.12022  0.01858  0.17738  1.0000
  C   C79       1.0  0.15815999999999994  0.88368  0.15449  1.0000
  C   C80       1.0  0.09413000000000003  0.81446  0.16078  1.0000
  C   C81       1.0  0.09607000000000006  0.7445500000000003  0.18289  1.0000
  C   C82       1.0  0.16165  0.74375  0.19893  1.0000
  C   C83       1.0  0.22586000000000006  0.8119800000000003  0.19224  1.0000
  C   C84       1.0  0.22417000000000004  0.8820700000000002  0.17018  1.0000
  C   C85       1.0  0.16002  0.18370000000000006  0.06931  1.0000
  C   C86       1.0  0.10041  0.1937  0.04988  1.0000
  C   C87       1.0  0.10875000000000001  0.2678600000000001  0.028410000000000005  1.0000
  C   C88       1.0  0.17738  0.33027  0.02481  1.0000
  C   C89       1.0  0.23761000000000004  0.3189300000000001  0.04294  1.0000
  C   C90       1.0  0.22875  0.24661000000000005  0.06568  1.0000
  H   H39       1.0  0.062300000000000036  0.2763800000000001  0.01413  1.0000
  H   H40       1.0  0.18403000000000003  0.3870200000000001  0.00775  1.0000
  H   H41       1.0  0.29095  0.36667  0.03977  1.0000
  H   H42       1.0  0.2755  0.23871  0.07994  1.0000
  H   H43       1.0  0.04794  0.14394  0.05126  1.0000
  H   H44       1.0  0.042979999999999956  0.81509  0.14869  1.0000
  H   H45       1.0  0.04667  0.69117  0.18773  1.0000
  H   H46       1.0  0.27396  0.93502  0.16529  1.0000
  H   H47       1.0  0.2768  0.81076  0.2043  1.0000
  H   H48       1.0  0.16269999999999998  0.69033  0.21658  1.0000
  C   C91       1.0  0.65219  0.9298000000000002  0.29302  1.0000
  C   C92       1.0  0.59776  0.97151  0.28953  1.0000
  C   C93       1.0  0.52585  0.9311  0.30295  1.0000
  H   H49       1.0  0.48428000000000004  0.9638400000000003  0.30079  1.0000
  C   C94       1.0  0.50759  0.8494  0.31985  1.0000
  C   C95       1.0  0.56157  0.8063800000000002  0.32227  1.0000
  C   C96       1.0  0.6334800000000002  0.8468900000000003  0.30865  1.0000
  H   H50       1.0  0.67525  0.81442  0.31076  1.0000
  C   C97       1.0  0.5437299999999999  0.7197000000000002  0.33961  1.0000
  C   C98       1.0  0.4913100000000001  0.6506400000000002  0.32467  1.0000
  C   C99       1.0  0.47239  0.5697400000000002  0.34206  1.0000
  C   C100      1.0  0.5071399999999999  0.5569099999999999  0.37375  1.0000
  C   C101      1.0  0.56082  0.62492  0.38813  1.0000
  C   C102      1.0  0.57864  0.70634  0.37137  1.0000
  C   C103      1.0  0.61537  0.05680000000000001  0.27113  1.0000
  C   C104      1.0  0.6237300000000002  0.12950000000000006  0.2916  1.0000
  C   C105      1.0  0.6444  0.21054  0.27429  1.0000
  C   C106      1.0  0.65621  0.21921000000000002  0.23653999999999997  1.0000
  C   C107      1.0  0.64711  0.14685  0.21603  1.0000
  C   C108      1.0  0.6269  0.06574000000000003  0.23325  1.0000
  H   H51       1.0  0.65154  0.26664  0.29013  1.0000
  H   H52       1.0  0.67248  0.28199  0.22321  1.0000
  H   H53       1.0  0.65583  0.15369000000000005  0.18681  1.0000
  H   H54       1.0  0.62088  0.009980000000000001  0.21733  1.0000
  H   H55       1.0  0.61525  0.12325000000000001  0.32088  1.0000
  H   H56       1.0  0.46463999999999994  0.65995  0.29994  1.0000
  H   H57       1.0  0.43091  0.51698  0.33093  1.0000
  H   H58       1.0  0.6193000000000001  0.75903  0.38308  1.0000
  H   H59       1.0  0.58869  0.61456  0.41223  1.0000
  H   H60       1.0  0.49263000000000007  0.4942400000000002  0.38711  1.0000
  C   C109      1.0  0.07980000000000002  0.2751900000000001  0.29607  1.0000
  C   C110      1.0  0.07026  0.35568  0.28764  1.0000
  C   C111      1.0  0.10946000000000002  0.4269900000000001  0.30634  1.0000
  H   H61       1.0  0.10287000000000002  0.48883000000000004  0.29937  1.0000
  C   C112      1.0  0.14988000000000007  0.41764000000000007  0.3366  1.0000
  C   C113      1.0  0.16227999999999998  0.33790000000000003  0.344  1.0000
  C   C114      1.0  0.1287  0.26805  0.32293  1.0000
  H   H62       1.0  0.1366  0.20652  0.3292  1.0000
  C   C115      1.0  0.20706999999999995  0.32549  0.37459  1.0000
  C   C116      1.0  0.2837200000000001  0.34355  0.36964  1.0000
  C   C117      1.0  0.32638  0.3351  0.39904  1.0000
  C   C118      1.0  0.2927100000000001  0.3084400000000001  0.43337  1.0000
  C   C119      1.0  0.21634  0.2901300000000001  0.43836  1.0000
  C   C120      1.0  0.1734  0.2979  0.409  1.0000
  C   C121      1.0  0.014480000000000003  0.36527  0.26185  1.0000
  C   C122      1.0  0.93891  0.33007  0.27102  1.0000
  C   C123      1.0  0.8863100000000002  0.3503  0.24967  1.0000
  C   C124      1.0  0.9087299999999999  0.40816  0.21996  1.0000
  C   C125      1.0  0.98374  0.4444900000000001  0.21104  1.0000
  C   C126      1.0  0.03653000000000002  0.4223500000000001  0.23159  1.0000
  H   H63       1.0  0.82819  0.32258  0.25665  1.0000
  H   H64       1.0  0.8679799999999999  0.4253800000000001  0.20405  1.0000
  H   H65       1.0  0.000999999999999991  0.48951  0.18809  1.0000
  H   H66       1.0  0.09456000000000002  0.4511400000000001  0.22463  1.0000
  H   H67       1.0  0.92109  0.2894  0.29528  1.0000
  H   H68       1.0  0.31017  0.36489  0.34318  1.0000
  H   H69       1.0  0.38546  0.34905  0.39521  1.0000
  H   H70       1.0  0.11427  0.2838  0.41306  1.0000
  H   H71       1.0  0.19037  0.26929  0.46492999999999995  1.0000
  H   H72       1.0  0.32572  0.30135  0.45604  1.0000
  C   C127      1.0  0.9751399999999999  0.8985000000000002  0.3026  1.0000
  C   C128      1.0  0.96624  0.81008  0.30227  1.0000
  C   C129      1.0  0.016310000000000054  0.7769100000000002  0.32032  1.0000
  H   H73       1.0  0.011260000000000037  0.7095700000000003  0.31898  1.0000
  C   C130      1.0  0.07190000000000005  0.8298700000000002  0.3407  1.0000
  C   C131      1.0  0.07585000000000008  0.9166300000000002  0.34391  1.0000
  C   C132      1.0  0.029460000000000014  0.95088  0.32367  1.0000
  H   H74       1.0  0.03407999999999999  0.018069999999999996  0.32526  1.0000
  C   C133      1.0  0.12364  0.97018  0.37058  1.0000
  C   C134      1.0  0.10967000000000006  0.9508700000000002  0.40798  1.0000
  C   C135      1.0  0.15267  0.003950000000000009  0.43317  1.0000
  C   C136      1.0  0.20894  0.07692  0.42119  1.0000
  C   C137      1.0  0.22313  0.09634000000000004  0.384  1.0000
  C   C138      1.0  0.18069  0.04316999999999999  0.35869  1.0000
  C   C139      1.0  0.9010299999999999  0.7508300000000002  0.28623  1.0000
  C   C140      1.0  0.9096700000000001  0.70456  0.25589  1.0000
  C   C141      1.0  0.8483600000000001  0.64492  0.24209999999999998  1.0000
  C   C142      1.0  0.77835  0.63147  0.25845  1.0000
  C   C143      1.0  0.76933  0.67839  0.28829  1.0000
  C   C144      1.0  0.8304999999999999  0.73758  0.30235  1.0000
  H   H75       1.0  0.85518  0.60869  0.21892  1.0000
  H   H76       1.0  0.73115  0.58425  0.24817999999999998  1.0000
  H   H77       1.0  0.71504  0.66821  0.30078  1.0000
  H   H78       1.0  0.8232699999999998  0.7727  0.32586  1.0000
  H   H79       1.0  0.96381  0.71429  0.24326999999999996  1.0000
  H   H80       1.0  0.06532999999999994  0.89516  0.41747  1.0000
  H   H81       1.0  0.14207  0.98884  0.46198000000000006  1.0000
  H   H82       1.0  0.19173  0.05886  0.32991  1.0000
  H   H83       1.0  0.26713  0.15248  0.37479  1.0000
  H   H84       1.0  0.24145  0.11847000000000005  0.44073  1.0000
  C   C145      1.0  0.4679599999999999  0.9843299999999999  0.44343999999999995  1.0000
  H   H85       1.0  0.50562  0.94946  0.43304  1.0000
  C   C146      1.0  0.45089000000000007  0.9955700000000002  0.48396  1.0000
  H   H86       1.0  0.47534999999999994  0.9713300000000002  0.5074  1.0000
  C   C147      1.0  0.47567  0.07942  0.43471  1.0000
  H   H87       1.0  0.52071  0.12425000000000001  0.41773  1.0000
  C   C148      1.0  0.4581100000000001  0.08963  0.47494  1.0000
  C   C149      1.0  0.38515  0.96167  0.4363600000000001  1.0000
  C   C150      1.0  0.3922800000000001  0.05569000000000003  0.42731  1.0000
  H   H88       1.0  0.36819  0.07976  0.40373  1.0000
  C   C151      1.0  0.37532  0.06703  0.46791  1.0000
  H   H89       1.0  0.33808  0.10197000000000006  0.47868000000000005  1.0000
  C   C152      1.0  0.3676400000000001  0.9720300000000003  0.47662999999999994  1.0000
  H   H90       1.0  0.32255999999999996  0.9273899999999999  0.49366000000000004  1.0000
  C   C153      1.0  0.9045600000000001  0.3617200000000001  0.49112  1.0000
  H   H91       1.0  0.8876  0.29104000000000013  0.49428  1.0000
  C   C154      1.0  0.9779199999999999  0.42354  0.50379  1.0000
  H   H92       1.0  0.022610000000000022  0.4042500000000001  0.51694  1.0000
  C   C155      1.0  0.91389  0.41413  0.45454999999999995  1.0000
  H   H93       1.0  0.9059599999999999  0.38716  0.42717  1.0000
  C   C156      1.0  0.98598  0.47533999999999993  0.46762000000000004  1.0000
  C   C157      1.0  0.8628  0.41962000000000005  0.50751  1.0000
  C   C158      1.0  0.87107  0.47137999999999997  0.47134  1.0000
  H   H94       1.0  0.8265400000000003  0.4910100000000002  0.45818  1.0000
  C   C159      1.0  0.9438599999999999  0.53272  0.48414000000000007  1.0000
  H   H95       1.0  0.9604199999999999  0.60342  0.48109  1.0000
  C   C160      1.0  0.9350299999999999  0.48074  0.52047  1.0000
  H   H96       1.0  0.94308  0.50804  0.54781  1.0000
  C   C161      1.0  0.42494999999999994  0.47807000000000016  0.51688  1.0000
  H   H97       1.0  0.39009  0.41723  0.53016  1.0000
  C   C162      1.0  0.4477700000000001  0.49029000000000017  0.47626000000000007  1.0000
  H   H98       1.0  0.4333199999999999  0.43998  0.45596  1.0000
  C   C163      1.0  0.40431  0.56163  0.51579  1.0000
  H   H99       1.0  0.35313000000000005  0.5699  0.52816  1.0000
  C   C164      1.0  0.42676000000000014  0.5735000000000003  0.4751  1.0000
  C   C165      1.0  0.50438  0.52854  0.52618  1.0000
  C   C166      1.0  0.48402  0.61232  0.5253  1.0000
  H   H100      1.0  0.49936  0.66231  0.54573  1.0000
  C   C167      1.0  0.50599  0.62521  0.48398  1.0000
  H   H101      1.0  0.53894  0.68603  0.47003  1.0000
  C   C168      1.0  0.52725  0.54088  0.4855300000000001  1.0000
  H   H102      1.0  0.57839  0.53206  0.47338  1.0000
  C   C169      1.0  0.71585  0.06498999999999999  0.59449  1.0000
  C   C170      1.0  0.68241  0.004679999999999996  0.62256  1.0000
  C   C171      1.0  0.7211000000000001  0.9516600000000002  0.63719  1.0000
  H   H103      1.0  0.69809  0.9098700000000002  0.66061  1.0000
  C   C172      1.0  0.79125  0.95609  0.62264  1.0000
  C   C173      1.0  0.81586  0.002720000000000003  0.58911  1.0000
  C   C174      1.0  0.77841  0.05799000000000001  0.57573  1.0000
  H   H104      1.0  0.80105  0.10002000000000004  0.55223  1.0000
  C   C175      1.0  0.88028  0.9943800000000004  0.56791  1.0000
  C   C176      1.0  0.94949  0.05572000000000002  0.57019  1.0000
  C   C177      1.0  0.011700000000000002  0.04333  0.55295  1.0000
  C   C178      1.0  0.004820000000000104  0.9707300000000003  0.53283  1.0000
  C   C179      1.0  0.93555  0.91104  0.52946  1.0000
  C   C180      1.0  0.8732299999999998  0.92314  0.54669  1.0000
  C   C181      1.0  0.6056900000000001  0.9938800000000003  0.6352  1.0000
  C   C182      1.0  0.59016  0.05084  0.65952  1.0000
  C   C183      1.0  0.517  0.04463  0.66907  1.0000
  C   C184      1.0  0.45924  0.98114  0.65473  1.0000
  C   C185      1.0  0.47447000000000006  0.9238500000000002  0.6307  1.0000
  C   C186      1.0  0.54753  0.93001  0.62096  1.0000
  H   H105      1.0  0.50507  0.08921000000000001  0.68748  1.0000
  H   H106      1.0  0.40267  0.9764400000000001  0.66216  1.0000
  H   H107      1.0  0.42967000000000005  0.8750000000000002  0.61947  1.0000
  H   H108      1.0  0.55893  0.88608  0.60197  1.0000
  H   H109      1.0  0.63462  0.1008  0.67037  1.0000
  H   H110      1.0  0.9554  0.11121999999999999  0.58634  1.0000
  H   H111      1.0  0.06534000000000002  0.08954  0.55548  1.0000
  H   H112      1.0  0.8197500000000001  0.8770800000000002  0.5438  1.0000
  H   H113      1.0  0.93022  0.85519  0.51366  1.0000
  H   H114      1.0  0.053110000000000074  0.9608200000000002  0.51981  1.0000
  C   C187      1.0  0.3858  0.16080000000000005  0.61634  1.0000
  C   C188      1.0  0.36286  0.2105  0.64187  1.0000
  C   C189      1.0  0.29004  0.18420000000000003  0.65591  1.0000
  H   H115      1.0  0.27175  0.22483999999999998  0.6742  1.0000
  C   C190      1.0  0.24011999999999997  0.10743999999999998  0.64525  1.0000
  C   C191      1.0  0.26631  0.05244  0.62345  1.0000
  C   C192      1.0  0.33863  0.08026  0.60862  1.0000
  H   H116      1.0  0.35738  0.04038  0.59009  1.0000
  C   C193      1.0  0.2203300000000001  0.9642200000000003  0.61782  1.0000
  C   C194      1.0  0.18393999999999996  0.9436200000000001  0.58515  1.0000
  C   C195      1.0  0.14103000000000004  0.8597300000000002  0.57983  1.0000
  C   C196      1.0  0.13567000000000007  0.7959600000000002  0.60669  1.0000
  C   C197      1.0  0.17240000000000005  0.8161800000000002  0.63912  1.0000
  C   C198      1.0  0.21440999999999996  0.9001700000000001  0.64479  1.0000
  C   C199      1.0  0.4140499999999999  0.29231  0.65267  1.0000
  C   C200      1.0  0.40541000000000005  0.3698700000000001  0.6398  1.0000
  C   C201      1.0  0.45691000000000004  0.4471  0.64799  1.0000
  C   C202      1.0  0.5171200000000002  0.4471600000000002  0.66896  1.0000
  C   C203      1.0  0.52575  0.37003  0.68191  1.0000
  C   C204      1.0  0.47413000000000016  0.29271  0.67402  1.0000
  H   H117      1.0  0.45066  0.50683  0.6377  1.0000
  H   H118      1.0  0.55729  0.50694  0.67501  1.0000
  H   H119      1.0  0.57302  0.3701000000000001  0.69759  1.0000
  H   H120      1.0  0.4815  0.2331900000000001  0.68386  1.0000
  H   H121      1.0  0.35975  0.37019  0.6229  1.0000
  H   H122      1.0  0.18825999999999998  0.9926699999999999  0.56416  1.0000
  H   H123      1.0  0.11208999999999994  0.84412  0.55487  1.0000
  H   H124      1.0  0.24258  0.91544  0.67002  1.0000
  H   H125      1.0  0.16826000000000008  0.7668700000000003  0.65988  1.0000
  H   H126      1.0  0.10271  0.731  0.60246  1.0000
  C   C205      1.0  0.8536799999999999  0.59401  0.62415  1.0000
  C   C206      1.0  0.86843  0.6725800000000002  0.6042  1.0000
  C   C207      1.0  0.92556  0.7432400000000002  0.61451  1.0000
  H   H127      1.0  0.9375199999999999  0.8031600000000002  0.59903  1.0000
  C   C208      1.0  0.96185  0.73909  0.64683  1.0000
  C   C209      1.0  0.95562  0.6583  0.66292  1.0000
  C   C210      1.0  0.89966  0.58673  0.65247  1.0000
  H   H128      1.0  0.8924499999999999  0.52521  0.66614  1.0000
  C   C211      1.0  0.011239999999999983  0.6468  0.68818  1.0000
  C   C212      1.0  0.060720000000000066  0.6028800000000002  0.67732  1.0000
  C   C213      1.0  0.11015000000000003  0.58693  0.70196  1.0000
  C   C214      1.0  0.11009999999999998  0.61427  0.73753  1.0000
  C   C215      1.0  0.06074999999999997  0.6577099999999999  0.74846  1.0000
  C   C216      1.0  0.011360000000000047  0.6737800000000003  0.7239  1.0000
  C   C217      1.0  0.82355  0.6820300000000002  0.57321  1.0000
  C   C218      1.0  0.76016  0.70766  0.57887  1.0000
  C   C219      1.0  0.71479  0.71064  0.54992  1.0000
  C   C220      1.0  0.7330999999999999  0.68932  0.51521  1.0000
  C   C221      1.0  0.7971099999999999  0.66559  0.50934  1.0000
  C   C222      1.0  0.84248  0.66229  0.53824  1.0000
  H   H129      1.0  0.66533  0.72919  0.55441  1.0000
  H   H130      1.0  0.69764  0.69102  0.49289  1.0000
  H   H131      1.0  0.8113099999999999  0.64923  0.48245  1.0000
  H   H132      1.0  0.89179  0.64361  0.5336  1.0000
  H   H133      1.0  0.74558  0.7239700000000002  0.60574  1.0000
  H   H134      1.0  0.06078000000000001  0.58112  0.64985  1.0000
  H   H135      1.0  0.14826000000000003  0.5530900000000002  0.69354  1.0000
  H   H136      1.0  0.9723  0.70549  0.73274  1.0000
  H   H137      1.0  0.05963000000000001  0.67727  0.77619  1.0000
  H   H138      1.0  0.14788000000000007  0.6012000000000002  0.75668  1.0000
  C   C223      1.0  0.9910699999999999  0.53346  0.97173  1.0000
  H   H139      1.0  0.0016300000000000659  0.48631000000000024  0.9914  1.0000
  C   C224      1.0  0.98575  0.52373  0.93019  1.0000
  H   H140      1.0  0.99086  0.4680000000000001  0.91524  1.0000
  C   C225      1.0  0.9222799999999999  0.56516  0.9725999999999999  1.0000
  H   H141      1.0  0.87503  0.54306  0.9925599999999999  1.0000
  C   C226      1.0  0.91783  0.55579  0.93125  1.0000
  C   C227      1.0  0.039989999999999984  0.62628  0.96514  1.0000
  C   C228      1.0  0.9721499999999998  0.65853  0.96624  1.0000
  H   H142      1.0  0.9671900000000001  0.71427  0.98122  1.0000
  C   C229      1.0  0.96659  0.64868  0.9245799999999998  1.0000
  H   H143      1.0  0.9559699999999999  0.69561  0.90482  1.0000
  C   C230      1.0  0.035460000000000005  0.61691  0.92376  1.0000
  H   H144      1.0  0.08269000000000006  0.6386300000000003  0.90378  1.0000
  C   C231      1.0  0.44709  0.053870000000000015  0.9648599999999999  1.0000
  H   H145      1.0  0.4042699999999998  0.06932999999999999  0.94848  1.0000
  C   C232      1.0  0.45192999999999994  0.05866  0.00657  1.0000
  H   H146      1.0  0.41241999999999995  0.07685  0.02498  1.0000
  C   C233      1.0  0.4629400000000001  0.9668600000000002  0.96649  1.0000
  H   H147      1.0  0.43265999999999993  0.90945  0.9519  1.0000
  C   C234      1.0  0.4681800000000001  0.9724000000000003  0.00795  1.0000
  C   C235      1.0  0.53046  0.09956000000000001  0.9609999999999999  1.0000
  C   C236      1.0  0.54688  0.013389999999999994  0.9622300000000001  1.0000
  H   H148      1.0  0.5863700000000001  0.9954000000000001  0.94376  1.0000
  C   C237      1.0  0.55156  0.01786  0.00416  1.0000
  H   H149      1.0  0.59424  0.0022200000000000006  0.02056  1.0000
  C   C238      1.0  0.53564  0.10502  0.00245  1.0000
  H   H150      1.0  0.56588  0.16238000000000005  0.01708  1.0000
  C   C239      1.0  0.3733699999999999  0.48334  0.9735  1.0000
  H   H151      1.0  0.31465999999999994  0.45414000000000004  0.9671100000000001  1.0000
  C   C240      1.0  0.42963999999999997  0.4338600000000001  0.98095  1.0000
  H   H152      1.0  0.41821  0.36365  0.9799599999999999  1.0000
  C   C241      1.0  0.4319299999999999  0.54976  0.94903  1.0000
  H   H153      1.0  0.42249  0.5747500000000002  0.9218500000000001  1.0000
  C   C242      1.0  0.48734  0.5007300000000002  0.95691  1.0000
  C   C243      1.0  0.40102  0.53738  0.00652  1.0000
  C   C244      1.0  0.45870999999999995  0.60394  0.9824  1.0000
  H   H154      1.0  0.47025999999999996  0.67419  0.98332  1.0000
  C   C245      1.0  0.5146  0.55464  0.99  1.0000
  H   H155      1.0  0.5731900000000001  0.5839800000000005  0.99659  1.0000
  C   C246      1.0  0.45631  0.48826  0.014390000000000002  1.0000
  H   H156      1.0  0.46569000000000005  0.4632400000000001  0.04158  1.0000
  C   C247      1.0  0.82488  0.22779  0.82441  1.0000
  C   C248      1.0  0.8196399999999999  0.21441  0.78668  1.0000
  C   C249      1.0  0.8777000000000004  0.19660999999999998  0.76746  1.0000
  H   H157      1.0  0.8713299999999999  0.17939000000000005  0.73928  1.0000
  C   C250      1.0  0.9399599999999999  0.19075000000000003  0.78563  1.0000
  C   C251      1.0  0.95023  0.21866  0.82147  1.0000
  C   C252      1.0  0.8923599999999999  0.23651  0.84082  1.0000
  H   H158      1.0  0.8987199999999996  0.25298  0.86907  1.0000
  C   C253      1.0  0.0192  0.22206  0.83983  1.0000
  C   C254      1.0  0.08627999999999998  0.28047  0.82728  1.0000
  C   C255      1.0  0.15183  0.28149000000000013  0.84378  1.0000
  C   C256      1.0  0.15095000000000003  0.22353999999999996  0.87249  1.0000
  C   C257      1.0  0.08436  0.16492  0.88497  1.0000
  C   C258      1.0  0.0185  0.16414  0.86877  1.0000
  C   C259      1.0  0.75203  0.21432  0.76773  1.0000
  C   C260      1.0  0.7031199999999999  0.13686  0.75738  1.0000
  C   C261      1.0  0.63247  0.13365  0.74659  1.0000
  C   C262      1.0  0.61158  0.2082  0.74439  1.0000
  C   C263      1.0  0.6609699999999998  0.28598000000000007  0.75347  1.0000
  C   C264      1.0  0.73092  0.28914999999999996  0.76525  1.0000
  H   H159      1.0  0.59354  0.07317  0.74048  1.0000
  H   H160      1.0  0.5568  0.20549000000000003  0.73615  1.0000
  H   H161      1.0  0.64437  0.34342  0.75234  1.0000
  H   H162      1.0  0.76695  0.3485  0.77441  1.0000
  H   H163      1.0  0.71852  0.07862  0.75948  1.0000
  H   H164      1.0  0.08772  0.32426000000000005  0.80453  1.0000
  H   H165      1.0  0.2034  0.3266100000000001  0.83405  1.0000
  H   H166      1.0  0.9672299999999999  0.11785999999999999  0.87828  1.0000
  H   H167      1.0  0.08383  0.11972000000000001  0.90704  1.0000
  H   H168      1.0  0.20196  0.22355  0.88483  1.0000
  C   C265      1.0  0.37258  0.17135000000000003  0.83968  1.0000
  C   C266      1.0  0.34928  0.22727000000000003  0.81624  1.0000
  C   C267      1.0  0.27985  0.19962000000000008  0.80116  1.0000
  H   H169      1.0  0.26248000000000005  0.2422800000000001  0.78286  1.0000
  C   C268      1.0  0.2328  0.11725000000000001  0.8093  1.0000
  C   C269      1.0  0.25568  0.06131000000000001  0.83275  1.0000
  C   C270      1.0  0.32549999999999996  0.08866000000000002  0.84779  1.0000
  H   H170      1.0  0.34298  0.04576000000000001  0.86589  1.0000
  C   C271      1.0  0.20870000000000008  0.9724900000000002  0.83985  1.0000
  C   C272      1.0  0.1557900000000001  0.9527300000000004  0.86865  1.0000
  C   C273      1.0  0.10672999999999995  0.87019  0.8732400000000001  1.0000
  C   C274      1.0  0.11069999999999999  0.80717  0.84928  1.0000
  C   C275      1.0  0.16445000000000007  0.82619  0.82106  1.0000
  C   C276      1.0  0.21325000000000005  0.9087100000000002  0.81623  1.0000
  C   C277      1.0  0.39672  0.31551  0.80789  1.0000
  C   C278      1.0  0.4574099999999999  0.33108000000000004  0.78329  1.0000
  C   C279      1.0  0.50466  0.41414  0.77719  1.0000
  C   C280      1.0  0.49093999999999993  0.48186000000000007  0.79514  1.0000
  C   C281      1.0  0.43049000000000004  0.4666100000000002  0.81959  1.0000
  C   C282      1.0  0.38336000000000003  0.3836800000000001  0.82597  1.0000
  H   H171      1.0  0.5520800000000001  0.4260400000000001  0.7587  1.0000
  H   H172      1.0  0.5270399999999997  0.54617  0.79007  1.0000
  H   H173      1.0  0.42044000000000004  0.51899  0.83378  1.0000
  H   H174      1.0  0.33763999999999994  0.37205  0.84558  1.0000
  H   H175      1.0  0.46845  0.27884  0.76936  1.0000
  H   H176      1.0  0.1517  0.0016399999999999989  0.88693  1.0000
  H   H177      1.0  0.06535000000000005  0.8552500000000002  0.8951900000000002  1.0000
  H   H178      1.0  0.25377999999999995  0.9234600000000002  0.79386  1.0000
  H   H179      1.0  0.16820000000000004  0.7771100000000002  0.80287  1.0000
  H   H180      1.0  0.07204000000000006  0.7437000000000002  0.85252  1.0000
  C   C283      1.0  0.82962  0.7584900000000002  0.78396  1.0000
  C   C284      1.0  0.7520099999999998  0.7257400000000003  0.78424  1.0000
  C   C285      1.0  0.7177600000000001  0.6403100000000003  0.79562  1.0000
  H   H181      1.0  0.65823  0.6168000000000001  0.79887  1.0000
  C   C286      1.0  0.7605600000000001  0.5875900000000002  0.80596  1.0000
  C   C287      1.0  0.83722  0.6162  0.79785  1.0000
  C   C288      1.0  0.8715699999999998  0.7025300000000002  0.78947  1.0000
  H   H182      1.0  0.93122  0.72711  0.789  1.0000
  C   C289      1.0  0.8813199999999999  0.55616  0.79627  1.0000
  C   C290      1.0  0.9307  0.554  0.82366  1.0000
  C   C291      1.0  0.9735800000000004  0.4983700000000002  0.82163  1.0000
  C   C292      1.0  0.96865  0.4463500000000002  0.79188  1.0000
  C   C293      1.0  0.9209099999999997  0.4499  0.76411  1.0000
  C   C294      1.0  0.8773599999999999  0.50478  0.7662  1.0000
  C   C295      1.0  0.70635  0.77963  0.7726  1.0000
  C   C296      1.0  0.6743  0.76902  0.73852  1.0000
  C   C297      1.0  0.62947  0.8184300000000002  0.72783  1.0000
  C   C298      1.0  0.61749  0.8794900000000002  0.7508  1.0000
  C   C299      1.0  0.64935  0.8903400000000005  0.78479  1.0000
  C   C300      1.0  0.69317  0.8400000000000002  0.79588  1.0000
  H   H183      1.0  0.60383  0.80921  0.70178  1.0000
  H   H184      1.0  0.5830900000000001  0.9179200000000002  0.74238  1.0000
  H   H185      1.0  0.6398799999999999  0.93752  0.80257  1.0000
  H   H186      1.0  0.7171199999999999  0.8481400000000002  0.82237  1.0000
  H   H187      1.0  0.68384  0.7223  0.72045  1.0000
  H   H188      1.0  0.93616  0.59576  0.84625  1.0000
  H   H189      1.0  0.011240000000000007  0.49629000000000006  0.84289  1.0000
  H   H190      1.0  0.8408299999999999  0.50767  0.74446  1.0000
  H   H191      1.0  0.9175999999999996  0.41006000000000004  0.74097  1.0000
  H   H192      1.0  0.002339999999999993  0.40399  0.79015  1.0000
