data_image0
_chemical_formula_structural       NiONiO3NiO7NiH2COC5O2NiONiO3NiO7NiH2COC5O2NiONiO3NiO7NiH2COC5O2NiONiO3NiO7NiH2COC5O2NiONiO3NiO7NiH2COC5O2NiONiO3NiO7NiH2COC5O2C3HC3HC12H10C3HC3HC12H10C3HC3HC12H10C3HC3HC12H10C3HC3HC12H10C3HC3HC12H10C3HC3HC12H10C3HC3HC12H10C3HC3HC12H10C3HC3HC12H10C3HC3HC12H10C3HC3HC12H10C3HC3HC12H10C3HC3HC12H10C3HC3HC12H10C3HC3HC12H10C3HC3HC12H10C3HC3HC12H10
_chemical_formula_sum              "Ni24 O84 H228 C360"
_cell_length_a       18.25331
_cell_length_b       16.71566
_cell_length_c       40.11957
_cell_angle_alpha    90.49237000000001
_cell_angle_beta     91.08871
_cell_angle_gamma    111.02376

_space_group_name_H-M_alt    "P 1"
_space_group_IT_number       1

loop_
  _space_group_symop_operation_xyz
  'x, y, z'

loop_
  _atom_site_type_symbol
  _atom_site_label
  _atom_site_symmetry_multiplicity
  _atom_site_fract_x
  _atom_site_fract_y
  _atom_site_fract_z
  _atom_site_occupancy
  Ni  Ni1       1.0  0.75086  0.3764000000000001  0.886  1.0000
  O   O1        1.0  0.6538900000000001  0.33366  0.8548200000000001  1.0000
  Ni  Ni2       1.0  0.57039  0.3347400000000001  0.88593  1.0000
  O   O2        1.0  0.8176499999999999  0.32617  0.8586200000000002  1.0000
  O   O3        1.0  0.71761  0.19779000000000005  0.85668  1.0000
  O   O4        1.0  0.7966200000000001  0.48615  0.85877  1.0000
  Ni  Ni3       1.0  0.6212  0.21766  0.83584  1.0000
  O   O5        1.0  0.81514  0.54883  0.92682  1.0000
  O   O6        1.0  0.5452  0.13743  0.86913  1.0000
  O   O7        1.0  0.46982  0.2634  0.85928  1.0000
  O   O8        1.0  0.6699  0.39581  0.9140999999999999  1.0000
  O   O9        1.0  0.8424200000000001  0.4266200000000001  0.91846  1.0000
  O   O10       1.0  0.50289  0.36243  0.9209299999999999  1.0000
  O   O11       1.0  0.57829  0.50484  0.91987  1.0000
  Ni  Ni4       1.0  0.69615  0.51772  0.92138  1.0000
  H   H1        1.0  0.6574300000000001  0.3749800000000001  0.8368400000000001  1.0000
  H   H2        1.0  0.66871  0.36804000000000014  0.93589  1.0000
  C   C1        1.0  0.54314  0.15379  0.90113  1.0000
  O   O12       1.0  0.7043500000000003  0.5434800000000002  0.87198  1.0000
  C   C2        1.0  0.78854  0.24642  0.8479900000000001  1.0000
  C   C3        1.0  0.46657  0.23611000000000004  0.82789  1.0000
  C   C4        1.0  0.7669799999999999  0.54679  0.8556699999999999  1.0000
  C   C5        1.0  0.5238  0.4399800000000001  0.9339400000000001  1.0000
  C   C6        1.0  0.85005  0.49533  0.93668  1.0000
  O   O13       1.0  0.56872  0.23203000000000004  0.91292  1.0000
  O   O14       1.0  0.5297  0.23585000000000006  0.8123099999999999  1.0000
  Ni  Ni5       1.0  0.51708  0.37286  0.54947  1.0000
  O   O15       1.0  0.621  0.40018  0.52553  1.0000
  Ni  Ni6       1.0  0.68001  0.34972  0.55631  1.0000
  O   O16       1.0  0.47595000000000004  0.4308700000000001  0.51242  1.0000
  O   O17       1.0  0.58096  0.55456  0.52126  1.0000
  O   O18       1.0  0.48402999999999996  0.26185  0.52171  1.0000
  Ni  Ni7       1.0  0.6801099999999999  0.52148  0.52072  1.0000
  O   O19       1.0  0.4465299999999999  0.28473  0.61852  1.0000
  O   O20       1.0  0.6885  0.5411400000000002  0.57071  1.0000
  O   O21       1.0  0.7732000000000001  0.3679300000000001  0.52636  1.0000
  O   O22       1.0  0.58331  0.34018  0.58361  1.0000
  O   O23       1.0  0.40832999999999997  0.3364  0.57127  1.0000
  O   O24       1.0  0.7157899999999999  0.26972  0.58579  1.0000
  O   O25       1.0  0.59256  0.16990000000000005  0.58261  1.0000
  Ni  Ni8       1.0  0.51926  0.22856  0.601  1.0000
  H   H3        1.0  0.6134499999999999  0.37123  0.50341  1.0000
  H   H4        1.0  0.5978  0.3833600000000001  0.60196  1.0000
  C   C7        1.0  0.7457  0.52835  0.58686  1.0000
  O   O26       1.0  0.43573  0.16991  0.56468  1.0000
  C   C8        1.0  0.51676  0.5104  0.50431  1.0000
  C   C9        1.0  0.79944  0.4404100000000001  0.50991  1.0000
  C   C10       1.0  0.44208  0.18554000000000007  0.53259  1.0000
  C   C11       1.0  0.66545  0.19409  0.59375  1.0000
  C   C12       1.0  0.39054  0.29243  0.5992  1.0000
  O   O27       1.0  0.75126  0.4518500000000001  0.58588  1.0000
  O   O28       1.0  0.78732  0.50881  0.52129  1.0000
  Ni  Ni9       1.0  0.9501  0.0019000000000000022  0.66626  1.0000
  O   O29       1.0  0.05051  0.04292  0.6953  1.0000
  Ni  Ni10      1.0  0.009980000000000001  0.98832  0.73834  1.0000
  O   O30       1.0  0.012180000000000002  0.06373000000000002  0.62568  1.0000
  O   O31       1.0  0.053230000000000006  0.18683000000000005  0.65602  1.0000
  O   O32       1.0  0.9712  0.89175  0.65512  1.0000
  Ni  Ni11      1.0  0.09038  0.16652  0.70351  1.0000
  O   O33       1.0  0.7558599999999999  0.9074800000000002  0.68183  1.0000
  O   O34       1.0  0.9886599999999999  0.17096  0.72295  1.0000
  O   O35       1.0  0.11614000000000001  0.022860000000000005  0.76257  1.0000
  O   O36       1.0  0.90751  0.96746  0.71168  1.0000
  O   O37       1.0  0.8458899999999999  0.9556400000000003  0.64014  1.0000
  O   O38       1.0  0.95757  0.90172  0.77475  1.0000
  O   O39       1.0  0.8925099999999999  0.80205  0.73488  1.0000
  Ni  Ni12      1.0  0.82335  0.85579  0.7087  1.0000
  H   H5        1.0  0.09101  0.02163  0.68701  1.0000
  H   H6        1.0  0.8822999999999999  0.008029999999999999  0.71858  1.0000
  C   C13       1.0  0.9656299999999999  0.13961000000000007  0.75252  1.0000
  O   O40       1.0  0.84483  0.8071600000000002  0.66507  1.0000
  C   C14       1.0  0.06373  0.14196  0.63068  1.0000
  C   C15       1.0  0.16417  0.10419000000000002  0.76081  1.0000
  C   C16       1.0  0.9148499999999999  0.81563  0.6549  1.0000
  C   C17       1.0  0.9110899999999998  0.82324  0.76635  1.0000
  C   C18       1.0  0.78031  0.95242  0.65443  1.0000
  O   O41       1.0  0.99138  0.08297  0.76564  1.0000
  O   O42       1.0  0.13722  0.16374  0.75007  1.0000
  Ni  Ni13      1.0  0.14796999999999993  0.73625  0.38166  1.0000
  O   O43       1.0  0.24027  0.81374  0.35501  1.0000
  Ni  Ni14      1.0  0.3304400000000001  0.8107500000000002  0.38274  1.0000
  O   O44       1.0  0.07018999999999999  0.75655  0.34836  1.0000
  O   O45       1.0  0.12720000000000004  0.90144  0.35758  1.0000
  O   O46       1.0  0.15411000000000002  0.6345000000000002  0.35372  1.0000
  Ni  Ni15      1.0  0.24816  0.93238  0.35371  1.0000
  O   O47       1.0  0.12905000000000003  0.64396  0.45421000000000006  1.0000
  O   O48       1.0  0.25093  0.9482200000000001  0.40432  1.0000
  O   O49       1.0  0.41548  0.87868  0.35137  1.0000
  O   O50       1.0  0.23835  0.75024  0.41298000000000007  1.0000
  O   O51       1.0  0.056450000000000035  0.6517600000000001  0.4072  1.0000
  O   O52       1.0  0.40888  0.77007  0.4082200000000001  1.0000
  O   O53       1.0  0.31923  0.63552  0.40422  1.0000
  Ni  Ni16      1.0  0.22559000000000012  0.6390400000000003  0.43159  1.0000
  H   H7        1.0  0.24156  0.79069  0.3323  1.0000
  H   H8        1.0  0.23621000000000003  0.7886400000000002  0.43152000000000007  1.0000
  C   C19       1.0  0.31394  0.95673  0.4223100000000001  1.0000
  O   O54       1.0  0.14894999999999997  0.55324  0.39949000000000007  1.0000
  C   C20       1.0  0.07201  0.83507  0.34304  1.0000
  C   C21       1.0  0.4202  0.9560600000000002  0.34179  1.0000
  C   C22       1.0  0.14899  0.56081  0.36712  1.0000
  C   C23       1.0  0.38993000000000005  0.68752  0.41290000000000004  1.0000
  C   C24       1.0  0.060900000000000086  0.6246000000000003  0.43793000000000004  1.0000
  O   O55       1.0  0.36218999999999996  0.91851  0.41318  1.0000
  O   O56       1.0  0.36878  0.9904900000000002  0.35201  1.0000
  Ni  Ni17      1.0  0.31794  0.82207  0.060980000000000006  1.0000
  O   O57       1.0  0.25507  0.72339  0.09128  1.0000
  Ni  Ni18      1.0  0.2592  0.6214300000000003  0.06613  1.0000
  O   O58       1.0  0.29890000000000005  0.9109400000000002  0.0922  1.0000
  O   O59       1.0  0.16686000000000012  0.8375300000000002  0.08813  1.0000
  O   O60       1.0  0.41467  0.82735  0.08943  1.0000
  Ni  Ni19      1.0  0.1448200000000001  0.7081500000000002  0.09489  1.0000
  O   O61       1.0  0.39544999999999997  0.82831  0.98793  1.0000
  O   O62       1.0  0.12647000000000003  0.6974000000000002  0.04477  1.0000
  O   O63       1.0  0.2044  0.53192  0.10019  1.0000
  O   O64       1.0  0.30775  0.71811  0.03326  1.0000
  O   O65       1.0  0.38749  0.91851  0.03074  1.0000
  O   O66       1.0  0.29556  0.5338  0.04198  1.0000
  O   O67       1.0  0.4183700000000001  0.6330200000000002  0.04211  1.0000
  Ni  Ni20      1.0  0.40968  0.7335300000000002  0.01476  1.0000
  H   H9        1.0  0.28008  0.72747  0.11365000000000001  1.0000
  H   H10       1.0  0.2704700000000001  0.7140600000000003  0.01453  1.0000
  C   C25       1.0  0.11598999999999997  0.62579  0.02869  1.0000
  O   O68       1.0  0.48917  0.82462  0.04461  1.0000
  C   C26       1.0  0.22727999999999998  0.8971400000000003  0.10253  1.0000
  C   C27       1.0  0.1373000000000001  0.5298800000000002  0.11273  1.0000
  C   C28       1.0  0.48252999999999996  0.83379  0.07674  1.0000
  C   C29       1.0  0.36984000000000006  0.5553800000000002  0.03459  1.0000
  C   C30       1.0  0.4105  0.90585  0.00046  1.0000
  O   O69       1.0  0.15684  0.57805  0.03735  1.0000
  O   O70       1.0  0.09947000000000002  0.57748  0.09992000000000001  1.0000
  Ni  Ni21      1.0  0.9032899999999999  0.0391  0.19827  1.0000
  O   O71       1.0  0.81519  0.06489  0.22118  1.0000
  Ni  Ni22      1.0  0.8662599999999999  0.11346000000000003  0.26461  1.0000
  O   O72       1.0  0.83051  0.99316  0.15701  1.0000
  O   O73       1.0  0.7413900000000001  0.8958000000000003  0.18932  1.0000
  O   O74       1.0  0.9472499999999999  0.16050000000000006  0.17699  1.0000
  Ni  Ni23      1.0  0.7280600000000002  0.9596100000000002  0.23204  1.0000
  O   O75       1.0  0.0844  0.12814  0.19539  1.0000
  O   O76       1.0  0.7941700000000002  0.9030700000000003  0.25825  1.0000
  O   O77       1.0  0.77478  0.14408  0.28159  1.0000
  O   O78       1.0  0.9500399999999999  0.06970000000000003  0.24503  1.0000
  O   O79       1.0  0.98879  0.0052699999999999995  0.17697  1.0000
  O   O80       1.0  0.9331  0.18988000000000002  0.30274  1.0000
  O   O81       1.0  0.05552000000000001  0.19493  0.29079  1.0000
  Ni  Ni24      1.0  0.05621000000000003  0.15378000000000006  0.24222999999999997  1.0000
  H   H11       1.0  0.79731  0.10595  0.20888999999999996  1.0000
  H   H12       1.0  0.95325  0.018040000000000007  0.2557  1.0000
  C   C31       1.0  0.82829  0.93575  0.28695  1.0000
  O   O82       1.0  0.005000000000000016  0.23379000000000005  0.22485  1.0000
  C   C32       1.0  0.75951  0.9359400000000002  0.16095  1.0000
  C   C33       1.0  0.70384  0.08373  0.28171  1.0000
  C   C34       1.0  0.98902  0.23328  0.193  1.0000
  C   C35       1.0  0.008330000000000025  0.23414000000000004  0.29995  1.0000
  C   C36       1.0  0.06341000000000001  0.050450000000000016  0.18253  1.0000
  O   O83       1.0  0.83126  0.011980000000000003  0.29608  1.0000
  O   O84       1.0  0.69433  0.0028599999999999993  0.27475  1.0000
  C   C37       1.0  0.09619  0.45987  0.13562  1.0000
  C   C38       1.0  0.014810000000000033  0.41143000000000013  0.13186  1.0000
  C   C39       1.0  0.98192  0.33529  0.14952  1.0000
  H   H13       1.0  0.9203599999999998  0.2964400000000001  0.14558  1.0000
  C   C40       1.0  0.02616000000000001  0.31268  0.17404  1.0000
  C   C41       1.0  0.10522  0.36768  0.18073  1.0000
  C   C42       1.0  0.14033  0.43743  0.16016  1.0000
  H   H14       1.0  0.20202  0.47595  0.16393  1.0000
  C   C43       1.0  0.15003  0.35768  0.21051000000000003  1.0000
  C   C44       1.0  0.19441  0.30454  0.20905999999999997  1.0000
  C   C45       1.0  0.23876999999999998  0.29730999999999996  0.2369  1.0000
  C   C46       1.0  0.24282999999999996  0.34709  0.26555  1.0000
  C   C47       1.0  0.20378999999999997  0.40529  0.26611  1.0000
  C   C48       1.0  0.15762000000000007  0.4108700000000001  0.23867000000000002  1.0000
  C   C49       1.0  0.9617400000000002  0.4464700000000001  0.11433000000000001  1.0000
  C   C50       1.0  0.9291299999999999  0.49816  0.13181  1.0000
  C   C51       1.0  0.87994  0.53301  0.11523000000000001  1.0000
  C   C52       1.0  0.8622  0.5154600000000003  0.08127  1.0000
  C   C53       1.0  0.89358  0.46289  0.06392  1.0000
  C   C54       1.0  0.94325  0.42817  0.08035  1.0000
  H   H15       1.0  0.8555699999999999  0.57345  0.12876  1.0000
  H   H16       1.0  0.82399  0.5423100000000002  0.06839  1.0000
  H   H17       1.0  0.87948  0.44933  0.03778  1.0000
  H   H18       1.0  0.9679199999999999  0.3880000000000001  0.06669  1.0000
  H   H19       1.0  0.94219  0.51149  0.15818  1.0000
  H   H20       1.0  0.19563  0.27019  0.18628  1.0000
  H   H21       1.0  0.27113  0.25432  0.23605000000000004  1.0000
  H   H22       1.0  0.13002  0.4584  0.23881  1.0000
  H   H23       1.0  0.21031000000000002  0.4470500000000001  0.28758  1.0000
  H   H24       1.0  0.27759  0.34193  0.28702  1.0000
  C   C55       1.0  0.5549000000000001  0.8635500000000003  0.09789  1.0000
  C   C56       1.0  0.57271  0.93568  0.11952  1.0000
  C   C57       1.0  0.6432  0.96303  0.13849  1.0000
  H   H25       1.0  0.65494  0.01513  0.15647  1.0000
  C   C58       1.0  0.69772  0.92208  0.13498  1.0000
  C   C59       1.0  0.68312  0.8556  0.11107  1.0000
  C   C60       1.0  0.61097  0.82514  0.09345  1.0000
  H   H26       1.0  0.59911  0.77244  0.07569  1.0000
  C   C61       1.0  0.74278  0.81704  0.10438000000000001  1.0000
  C   C62       1.0  0.81673  0.86773  0.09256  1.0000
  C   C63       1.0  0.87206  0.8303700000000003  0.08532  1.0000
  C   C64       1.0  0.8531400000000002  0.7421800000000002  0.08898  1.0000
  C   C65       1.0  0.7789999999999998  0.69133  0.10008999999999998  1.0000
  C   C66       1.0  0.7243500000000002  0.7286900000000002  0.10822  1.0000
  C   C67       1.0  0.52077  0.98612  0.12100000000000001  1.0000
  C   C68       1.0  0.51786  0.0392  0.09446  1.0000
  C   C69       1.0  0.47117  0.0895  0.09642  1.0000
  C   C70       1.0  0.42808  0.08794000000000003  0.125  1.0000
  C   C71       1.0  0.43093  0.03537000000000001  0.15153  1.0000
  C   C72       1.0  0.4765800000000001  0.9838700000000002  0.14947  1.0000
  H   H27       1.0  0.46869  0.13  0.07585  1.0000
  H   H28       1.0  0.39243  0.1274  0.12658  1.0000
  H   H29       1.0  0.39855  0.03538  0.17384  1.0000
  H   H30       1.0  0.4787100000000001  0.9434900000000003  0.17017  1.0000
  H   H31       1.0  0.55176  0.04148999999999999  0.07242  1.0000
  H   H32       1.0  0.8309899999999999  0.9357100000000003  0.08879  1.0000
  H   H33       1.0  0.9293800000000002  0.8696600000000002  0.07669  1.0000
  H   H34       1.0  0.66736  0.6889  0.11713000000000001  1.0000
  H   H35       1.0  0.76352  0.62289  0.10219  1.0000
  H   H36       1.0  0.8958  0.71323  0.08311  1.0000
  C   C73       1.0  0.21282  0.95252  0.12815  1.0000
  C   C74       1.0  0.18239  0.9167200000000001  0.15897  1.0000
  C   C75       1.0  0.13844  0.9536100000000002  0.1778  1.0000
  H   H37       1.0  0.11270000000000006  0.9241300000000002  0.20086  1.0000
  C   C76       1.0  0.12248  0.024220000000000005  0.16578  1.0000
  C   C77       1.0  0.1577  0.06391  0.13616  1.0000
  C   C78       1.0  0.20531  0.02954000000000001  0.11831  1.0000
  H   H38       1.0  0.22959000000000002  0.05772  0.09486  1.0000
  C   C79       1.0  0.14032  0.13707  0.12221  1.0000
  C   C80       1.0  0.06517  0.12486  0.10898  1.0000
  C   C81       1.0  0.04944  0.19377  0.09523  1.0000
  C   C82       1.0  0.10895  0.27446  0.09387  1.0000
  C   C83       1.0  0.18405000000000002  0.28669000000000006  0.10664999999999998  1.0000
  C   C84       1.0  0.20001  0.21807000000000007  0.12057  1.0000
  C   C85       1.0  0.18789  0.83443  0.16951  1.0000
  C   C86       1.0  0.12262000000000002  0.75804  0.16556  1.0000
  C   C87       1.0  0.12935000000000008  0.6795800000000002  0.17339  1.0000
  C   C88       1.0  0.20096999999999995  0.67703  0.18526  1.0000
  C   C89       1.0  0.26588  0.753  0.18952  1.0000
  C   C90       1.0  0.2594400000000001  0.8316400000000003  0.18174  1.0000
  H   H39       1.0  0.07886999999999998  0.62088  0.17062  1.0000
  H   H40       1.0  0.2058200000000001  0.6163800000000003  0.19168  1.0000
  H   H41       1.0  0.32119000000000003  0.75096  0.19886  1.0000
  H   H42       1.0  0.30988999999999994  0.89013  0.18513  1.0000
  H   H43       1.0  0.0671700000000001  0.7594500000000004  0.15602  1.0000
  H   H44       1.0  0.019209999999999998  0.062079999999999996  0.10926  1.0000
  H   H45       1.0  0.99125  0.18452000000000005  0.08544  1.0000
  H   H46       1.0  0.25841  0.22796  0.13034  1.0000
  H   H47       1.0  0.22991  0.34935  0.10576000000000002  1.0000
  H   H48       1.0  0.09687000000000005  0.3274700000000001  0.08289  1.0000
  C   C91       1.0  0.49610999999999994  0.01447  0.32959  1.0000
  C   C92       1.0  0.56576  0.03285  0.34905  1.0000
  C   C93       1.0  0.63849  0.07726000000000002  0.33486  1.0000
  H   H49       1.0  0.6922  0.08589  0.34889  1.0000
  C   C94       1.0  0.64225  0.09809000000000002  0.30101  1.0000
  C   C95       1.0  0.57308  0.09600000000000003  0.28422  1.0000
  C   C96       1.0  0.49979999999999997  0.05184  0.2982  1.0000
  H   H50       1.0  0.44618  0.04502  0.28439  1.0000
  C   C97       1.0  0.57739  0.14389  0.25311  1.0000
  C   C98       1.0  0.56582  0.22248  0.25386  1.0000
  C   C99       1.0  0.57192  0.26927  0.22465000000000002  1.0000
  C   C100      1.0  0.5904  0.23835000000000006  0.19471  1.0000
  C   C101      1.0  0.60227  0.16029  0.19386  1.0000
  C   C102      1.0  0.5944300000000001  0.11222000000000003  0.22283999999999998  1.0000
  C   C103      1.0  0.56324  0.004250000000000001  0.3839  1.0000
  C   C104      1.0  0.58015  0.9308  0.39153  1.0000
  C   C105      1.0  0.57854  0.9044100000000003  0.42458  1.0000
  C   C106      1.0  0.55953  0.95072  0.45003000000000004  1.0000
  C   C107      1.0  0.5428299999999999  0.024029999999999996  0.44253999999999993  1.0000
  C   C108      1.0  0.54473  0.05092  0.40954  1.0000
  H   H51       1.0  0.5916100000000001  0.8478600000000002  0.43046999999999996  1.0000
  H   H52       1.0  0.5580000000000002  0.9299200000000002  0.47555  1.0000
  H   H53       1.0  0.52837  0.05996  0.4622800000000001  1.0000
  H   H54       1.0  0.53179  0.10777000000000002  0.4038900000000001  1.0000
  H   H55       1.0  0.59467  0.89445  0.37191  1.0000
  H   H56       1.0  0.55266  0.24748  0.27708  1.0000
  H   H57       1.0  0.56298  0.32987  0.22529  1.0000
  H   H58       1.0  0.60203  0.05089000000000001  0.2218  1.0000
  H   H59       1.0  0.61713  0.1369  0.17071  1.0000
  H   H60       1.0  0.59565  0.27493  0.17218  1.0000
  C   C109      1.0  0.04247  0.31749  0.31748  1.0000
  C   C110      1.0  0.016949999999999993  0.38592  0.31005  1.0000
  C   C111      1.0  0.05826  0.468  0.3236  1.0000
  H   H61       1.0  0.03805000000000001  0.52016  0.31812  1.0000
  C   C112      1.0  0.12060999999999997  0.481  0.34667  1.0000
  C   C113      1.0  0.14329999999999998  0.41068  0.35519  1.0000
  C   C114      1.0  0.10510999999999998  0.33054  0.34002  1.0000
  H   H62       1.0  0.12316000000000005  0.2773700000000001  0.34643  1.0000
  C   C115      1.0  0.20362  0.41827  0.38142  1.0000
  C   C116      1.0  0.18054  0.39451  0.41421  1.0000
  C   C117      1.0  0.23551999999999998  0.38965  0.43810000000000004  1.0000
  C   C118      1.0  0.31309  0.40588  0.42919  1.0000
  C   C119      1.0  0.336  0.4277  0.39644  1.0000
  C   C120      1.0  0.28161  0.43453  0.3726  1.0000
  C   C121      1.0  0.9427199999999999  0.37044  0.29108  1.0000
  C   C122      1.0  0.94173  0.37012  0.2561  1.0000
  C   C123      1.0  0.87089  0.35206000000000004  0.23829  1.0000
  C   C124      1.0  0.8010700000000001  0.33619  0.2553  1.0000
  C   C125      1.0  0.80196  0.33824  0.29017  1.0000
  C   C126      1.0  0.8725500000000002  0.3549600000000001  0.30808  1.0000
  H   H63       1.0  0.87023  0.3510600000000001  0.2113  1.0000
  H   H64       1.0  0.7463299999999999  0.32228  0.24148  1.0000
  H   H65       1.0  0.7477900000000001  0.3255800000000001  0.3033  1.0000
  H   H66       1.0  0.87267  0.3552  0.33509  1.0000
  H   H67       1.0  0.99557  0.38435  0.24277000000000004  1.0000
  H   H68       1.0  0.11986000000000002  0.3788  0.42102000000000006  1.0000
  H   H69       1.0  0.21761  0.3717200000000001  0.46337000000000006  1.0000
  H   H70       1.0  0.29944  0.44988000000000006  0.34713  1.0000
  H   H71       1.0  0.39564000000000005  0.43819000000000013  0.38942  1.0000
  H   H72       1.0  0.3552  0.40043  0.44754  1.0000
  C   C127      1.0  0.8766399999999999  0.89499  0.30561  1.0000
  C   C128      1.0  0.9145799999999998  0.9303300000000002  0.33654  1.0000
  C   C129      1.0  0.97483  0.9054  0.34915  1.0000
  H   H73       1.0  0.003610000000000047  0.9325600000000002  0.3727  1.0000
  C   C130      1.0  0.9993300000000003  0.8471000000000002  0.33167  1.0000
  C   C131      1.0  0.9577699999999999  0.8064400000000003  0.30247  1.0000
  C   C132      1.0  0.8956300000000001  0.82934  0.29002  1.0000
  H   H74       1.0  0.86511  0.79935  0.26716  1.0000
  C   C133      1.0  0.97903  0.74051  0.28461  1.0000
  C   C134      1.0  0.05152999999999999  0.7628  0.26884  1.0000
  C   C135      1.0  0.07404999999999999  0.69911  0.25438  1.0000
  C   C136      1.0  0.022490000000000007  0.61381  0.25373  1.0000
  C   C137      1.0  0.94902  0.59187  0.26832  1.0000
  C   C138      1.0  0.9276499999999999  0.65478  0.28413  1.0000
  C   C139      1.0  0.89413  0.9955400000000002  0.35569  1.0000
  C   C140      1.0  0.95189  0.07649  0.36261  1.0000
  C   C141      1.0  0.93476  0.13595000000000004  0.3827  1.0000
  C   C142      1.0  0.86038  0.11479  0.39628  1.0000
  C   C143      1.0  0.8029  0.034190000000000005  0.38974  1.0000
  C   C144      1.0  0.81936  0.9747800000000002  0.36932  1.0000
  H   H75       1.0  0.9792899999999999  0.19832000000000005  0.38786  1.0000
  H   H76       1.0  0.84734  0.16073000000000007  0.41198000000000007  1.0000
  H   H77       1.0  0.74567  0.01774  0.40054  1.0000
  H   H78       1.0  0.7741699999999999  0.91311  0.364  1.0000
  H   H79       1.0  0.01  0.09308  0.3525  1.0000
  H   H80       1.0  0.09122  0.8289800000000003  0.26868  1.0000
  H   H81       1.0  0.13177999999999998  0.71578  0.24404999999999996  1.0000
  H   H82       1.0  0.87153  0.6369100000000002  0.29618  1.0000
  H   H83       1.0  0.9088899999999999  0.52614  0.26763  1.0000
  H   H84       1.0  0.039619999999999975  0.56471  0.24211000000000002  1.0000
  C   C145      1.0  0.39133  0.12116  0.5083  1.0000
  C   C146      1.0  0.38104  0.0332  0.51033  1.0000
  C   C147      1.0  0.35344  0.9795200000000002  0.48217  1.0000
  H   H85       1.0  0.3485200000000001  0.9129500000000003  0.48319  1.0000
  C   C148      1.0  0.33213999999999994  0.011099999999999997  0.45274  1.0000
  C   C149      1.0  0.333  0.09600000000000003  0.45224000000000003  1.0000
  C   C150      1.0  0.36197  0.15002  0.4800900000000001  1.0000
  H   H86       1.0  0.36483000000000004  0.21595  0.47924000000000005  1.0000
  C   C151      1.0  0.30609  0.13007000000000002  0.42244  1.0000
  C   C152      1.0  0.23288  0.14002  0.42214000000000007  1.0000
  C   C153      1.0  0.20919000000000007  0.17647  0.39465  1.0000
  C   C154      1.0  0.25847  0.20330000000000006  0.36747  1.0000
  C   C155      1.0  0.33157  0.1939  0.36775  1.0000
  C   C156      1.0  0.35561  0.15772  0.39522  1.0000
  C   C157      1.0  0.39316999999999996  0.99488  0.5421  1.0000
  C   C158      1.0  0.34048  0.98561  0.56816  1.0000
  C   C159      1.0  0.34491999999999995  0.9386800000000002  0.59633  1.0000
  C   C160      1.0  0.40005000000000007  0.8984300000000002  0.59815  1.0000
  C   C161      1.0  0.4514300000000001  0.9058900000000002  0.57198  1.0000
  C   C162      1.0  0.44933  0.95555  0.54437  1.0000
  H   H87       1.0  0.3047800000000001  0.9323400000000002  0.61651  1.0000
  H   H88       1.0  0.40246  0.86084  0.61969  1.0000
  H   H89       1.0  0.4929800000000001  0.8733000000000001  0.5731  1.0000
  H   H90       1.0  0.48961  0.9613200000000002  0.52429  1.0000
  H   H91       1.0  0.29577  0.014090000000000002  0.56642  1.0000
  H   H92       1.0  0.19472  0.12004  0.44325000000000003  1.0000
  H   H93       1.0  0.15285  0.18436000000000005  0.39451  1.0000
  H   H94       1.0  0.41262  0.15137  0.39541  1.0000
  H   H95       1.0  0.36974999999999997  0.21497  0.34674  1.0000
  H   H96       1.0  0.24020999999999998  0.23175  0.34626  1.0000
  C   C163      1.0  0.9893499999999998  0.56351  0.45262  1.0000
  C   C164      1.0  0.91439  0.56473  0.44373  1.0000
  C   C165      1.0  0.8475  0.50226  0.45626  1.0000
  H   H97       1.0  0.79011  0.50415  0.44985  1.0000
  C   C166      1.0  0.85471  0.45177  0.4828  1.0000
  C   C167      1.0  0.9275999999999999  0.44276  0.48891000000000007  1.0000
  C   C168      1.0  0.99492  0.4988700000000001  0.47369  1.0000
  H   H98       1.0  0.05131000000000003  0.4926100000000001  0.4784  1.0000
  C   C169      1.0  0.9335300000000001  0.3746800000000001  0.51088  1.0000
  C   C170      1.0  0.89017  0.2881800000000001  0.50315  1.0000
  C   C171      1.0  0.89008  0.22436  0.52546  1.0000
  C   C172      1.0  0.9353  0.24617000000000006  0.55493  1.0000
  C   C173      1.0  0.9809500000000001  0.33187  0.56212  1.0000
  C   C174      1.0  0.9795499999999999  0.39619  0.54035  1.0000
  C   C175      1.0  0.9054899999999999  0.63803  0.42597  1.0000
  C   C176      1.0  0.86134  0.62402  0.39601  1.0000
  C   C177      1.0  0.84001  0.68963  0.38262  1.0000
  C   C178      1.0  0.86252  0.76911  0.3990699999999999  1.0000
  C   C179      1.0  0.9113900000000001  0.7853800000000002  0.42747  1.0000
  C   C180      1.0  0.9327699999999999  0.71999  0.44103  1.0000
  H   H99       1.0  0.8047499999999999  0.67835  0.35985  1.0000
  H   H100      1.0  0.84211  0.81806  0.38984  1.0000
  H   H101      1.0  0.9302800000000002  0.8477200000000003  0.43967999999999996  1.0000
  H   H102      1.0  0.96711  0.73167  0.46409  1.0000
  H   H103      1.0  0.8415  0.56162  0.38377  1.0000
  H   H104      1.0  0.85533  0.27075  0.48025  1.0000
  H   H105      1.0  0.85578  0.15788  0.51968  1.0000
  H   H106      1.0  0.013469999999999992  0.46262  0.54651  1.0000
  H   H107      1.0  0.017409999999999946  0.34842  0.58457  1.0000
  H   H108      1.0  0.9365900000000001  0.19642000000000012  0.57178  1.0000
  C   C181      1.0  0.48347  0.5552800000000002  0.48078  1.0000
  C   C182      1.0  0.4276400000000001  0.58999  0.49125  1.0000
  C   C183      1.0  0.40429  0.64216  0.46975  1.0000
  H   H109      1.0  0.35951  0.66668  0.47742000000000007  1.0000
  C   C184      1.0  0.43381  0.65796  0.43756  1.0000
  C   C185      1.0  0.49251000000000017  0.6269000000000002  0.42757  1.0000
  C   C186      1.0  0.51663  0.57522  0.44925000000000004  1.0000
  H   H110      1.0  0.56204  0.55152  0.44178  1.0000
  C   C187      1.0  0.53185  0.6516800000000003  0.39523  1.0000
  C   C188      1.0  0.6121300000000001  0.7020400000000002  0.39465  1.0000
  C   C189      1.0  0.6493599999999999  0.72513  0.36419  1.0000
  C   C190      1.0  0.60692  0.69828  0.33425  1.0000
  C   C191      1.0  0.52726  0.6474  0.33465  1.0000
  C   C192      1.0  0.48982  0.62352  0.36501  1.0000
  C   C193      1.0  0.39317000000000013  0.5723400000000002  0.52468  1.0000
  C   C194      1.0  0.40824000000000005  0.6394600000000003  0.54817  1.0000
  C   C195      1.0  0.3694  0.62488  0.57847  1.0000
  C   C196      1.0  0.31756  0.54281  0.58597  1.0000
  C   C197      1.0  0.30276  0.47565000000000013  0.56278  1.0000
  C   C198      1.0  0.33937  0.49053  0.53195  1.0000
  H   H111      1.0  0.37875  0.67741  0.59598  1.0000
  H   H112      1.0  0.2882600000000001  0.5314500000000002  0.60961  1.0000
  H   H113      1.0  0.26222  0.41236  0.56854  1.0000
  H   H114      1.0  0.32558  0.43885  0.51366  1.0000
  H   H115      1.0  0.44869999999999993  0.70315  0.54263  1.0000
  H   H116      1.0  0.6455300000000002  0.7233000000000003  0.41773  1.0000
  H   H117      1.0  0.71115  0.7633500000000002  0.36378  1.0000
  H   H118      1.0  0.42817  0.58419  0.365  1.0000
  H   H119      1.0  0.49452  0.62633  0.31143  1.0000
  H   H120      1.0  0.63589  0.7166  0.31072  1.0000
  C   C199      1.0  0.7442999999999999  0.013789999999999997  0.64416  1.0000
  C   C200      1.0  0.66959  0.9863600000000002  0.62862  1.0000
  C   C201      1.0  0.64449  0.04595000000000001  0.61233  1.0000
  H   H121      1.0  0.58861  0.02407  0.59897  1.0000
  C   C202      1.0  0.69107  0.13372  0.6134  1.0000
  C   C203      1.0  0.7605800000000001  0.16200000000000006  0.63359  1.0000
  C   C204      1.0  0.7881  0.10131  0.64756  1.0000
  H   H122      1.0  0.84322  0.12233  0.66168  1.0000
  C   C205      1.0  0.80055  0.25325  0.64327  1.0000
  C   C206      1.0  0.88147  0.29321  0.63824  1.0000
  C   C207      1.0  0.92249  0.37423  0.65213  1.0000
  C   C208      1.0  0.88354  0.41505  0.67168  1.0000
  C   C209      1.0  0.80298  0.37596  0.67672  1.0000
  C   C210      1.0  0.7613800000000001  0.2952900000000001  0.66253  1.0000
  C   C211      1.0  0.61557  0.8967200000000002  0.63104  1.0000
  C   C212      1.0  0.61906  0.83475  0.60802  1.0000
  C   C213      1.0  0.57032  0.74899  0.61137  1.0000
  C   C214      1.0  0.5183500000000001  0.7250000000000002  0.63777  1.0000
  C   C215      1.0  0.51302  0.7871  0.66015  1.0000
  C   C216      1.0  0.5613100000000001  0.8729400000000003  0.65676  1.0000
  H   H123      1.0  0.57275  0.70112  0.59354  1.0000
  H   H124      1.0  0.48156  0.65844  0.64064  1.0000
  H   H125      1.0  0.4719100000000001  0.7686300000000003  0.68027  1.0000
  H   H126      1.0  0.55735  0.92072  0.67433  1.0000
  H   H127      1.0  0.65951  0.85315  0.58767  1.0000
  H   H128      1.0  0.9131899999999998  0.25937  0.62524  1.0000
  H   H129      1.0  0.9850299999999999  0.40425  0.64857  1.0000
  H   H130      1.0  0.69942  0.26433  0.66733  1.0000
  H   H131      1.0  0.77298  0.4078100000000001  0.69192  1.0000
  H   H132      1.0  0.9160199999999998  0.47642  0.6833  1.0000
  C   C217      1.0  0.30649  0.24259000000000006  0.60637  1.0000
  C   C218      1.0  0.28293  0.2051  0.63787  1.0000
  C   C219      1.0  0.20304000000000003  0.16742  0.64458  1.0000
  H   H133      1.0  0.18570999999999996  0.14527000000000007  0.66947  1.0000
  C   C220      1.0  0.14546  0.16149  0.62003  1.0000
  C   C221      1.0  0.16882  0.18846  0.58733  1.0000
  C   C222      1.0  0.24909999999999996  0.23012  0.58092  1.0000
  H   H134      1.0  0.26687  0.25129  0.55588  1.0000
  C   C223      1.0  0.11118  0.16811000000000006  0.55908  1.0000
  C   C224      1.0  0.10997  0.23334  0.5374  1.0000
  C   C225      1.0  0.06679  0.21264000000000002  0.50735  1.0000
  C   C226      1.0  0.02243  0.12721  0.49927  1.0000
  C   C227      1.0  0.022119999999999997  0.06214000000000001  0.52098  1.0000
  C   C228      1.0  0.0672  0.08222  0.55058  1.0000
  C   C229      1.0  0.34047000000000005  0.20111000000000007  0.66362  1.0000
  C   C230      1.0  0.35647  0.25559  0.69179  1.0000
  C   C231      1.0  0.40863  0.24938  0.71675  1.0000
  C   C232      1.0  0.44494  0.18895  0.71369  1.0000
  C   C233      1.0  0.42860000000000004  0.13400000000000006  0.68583  1.0000
  C   C234      1.0  0.37565  0.13913  0.66103  1.0000
  H   H135      1.0  0.42061  0.29111  0.73852  1.0000
  H   H136      1.0  0.48518  0.18419  0.73307  1.0000
  H   H137      1.0  0.45615  0.08669000000000003  0.68366  1.0000
  H   H138      1.0  0.36247  0.0957  0.63971  1.0000
  H   H139      1.0  0.32821999999999996  0.30222  0.6944  1.0000
  H   H140      1.0  0.14369  0.29979  0.54354  1.0000
  H   H141      1.0  0.06682000000000005  0.2630000000000001  0.49055  1.0000
  H   H142      1.0  0.06998999999999998  0.031  0.56631  1.0000
  H   H143      1.0  0.98815  0.9959500000000002  0.51457  1.0000
  H   H144      1.0  0.98822  0.11143999999999998  0.47619999999999996  1.0000
  C   C235      1.0  0.8125900000000001  0.6027800000000002  0.6004  1.0000
  C   C236      1.0  0.84014  0.68313  0.584  1.0000
  C   C237      1.0  0.9003699999999999  0.7522800000000002  0.59923  1.0000
  H   H145      1.0  0.91928  0.8143400000000002  0.58742  1.0000
  C   C238      1.0  0.9198599999999999  0.7477400000000002  0.63287  1.0000
  C   C239      1.0  0.9040699999999999  0.66606  0.64654  1.0000
  C   C240      1.0  0.84984  0.59378  0.63022  1.0000
  H   H146      1.0  0.8320399999999999  0.53212  0.64202  1.0000
  C   C241      1.0  0.93512  0.6574800000000002  0.6801  1.0000
  C   C242      1.0  0.016380000000000096  0.6822200000000003  0.68589  1.0000
  C   C243      1.0  0.04547000000000008  0.6706400000000002  0.71725  1.0000
  C   C244      1.0  0.9937900000000001  0.6348000000000001  0.74293  1.0000
  C   C245      1.0  0.91282  0.61043  0.73735  1.0000
  C   C246      1.0  0.8834100000000001  0.62252  0.70614  1.0000
  C   C247      1.0  0.7973  0.7004600000000002  0.55495  1.0000
  C   C248      1.0  0.7352999999999998  0.7298600000000002  0.55998  1.0000
  C   C249      1.0  0.6932600000000001  0.7444700000000001  0.53266  1.0000
  C   C250      1.0  0.7130300000000002  0.72989  0.50029  1.0000
  C   C251      1.0  0.77588  0.7025  0.49517  1.0000
  C   C252      1.0  0.82029  0.69153  0.5224  1.0000
  H   H147      1.0  0.6441200000000001  0.7649200000000003  0.53656  1.0000
  H   H148      1.0  0.67891  0.7386000000000003  0.47922  1.0000
  H   H149      1.0  0.78892  0.68794  0.47021  1.0000
  H   H150      1.0  0.8708600000000001  0.6736000000000002  0.51821  1.0000
  H   H151      1.0  0.71895  0.73966  0.58505  1.0000
  H   H152      1.0  0.05679000000000005  0.7093000000000003  0.66601  1.0000
  H   H153      1.0  0.10799000000000002  0.68827  0.72153  1.0000
  H   H154      1.0  0.8206300000000001  0.6042800000000003  0.7021  1.0000
  H   H155      1.0  0.8728300000000001  0.5824700000000003  0.75722  1.0000
  H   H156      1.0  0.01657999999999998  0.62581  0.76712  1.0000
  C   C253      1.0  0.051100000000000007  0.59333  0.00347  1.0000
  C   C254      1.0  0.016420000000000084  0.6487100000000002  0.9890000000000001  1.0000
  C   C255      1.0  0.94762  0.61456  0.96957  1.0000
  H   H157      1.0  0.92098  0.6575900000000002  0.9592  1.0000
  C   C256      1.0  0.91658  0.5268400000000002  0.96125  1.0000
  C   C257      1.0  0.95265  0.4714  0.9748300000000001  1.0000
  C   C258      1.0  0.019069999999999997  0.50513  0.99594  1.0000
  H   H158      1.0  0.045130000000000024  0.4622100000000001  0.00688  1.0000
  C   C259      1.0  0.92228  0.37829  0.9669  1.0000
  C   C260      1.0  0.8500199999999999  0.32464  0.97933  1.0000
  C   C261      1.0  0.81799  0.23859000000000005  0.96911  1.0000
  C   C262      1.0  0.85796  0.20558  0.94665  1.0000
  C   C263      1.0  0.93039  0.2583500000000001  0.93457  1.0000
  C   C264      1.0  0.9628499999999999  0.3444  0.9448  1.0000
  C   C265      1.0  0.05423999999999994  0.7429399999999999  0.9921699999999999  1.0000
  C   C266      1.0  0.023680000000000066  0.7891800000000002  0.01371  1.0000
  C   C267      1.0  0.06165  0.87783  0.01776  1.0000
  C   C268      1.0  0.12915000000000001  0.92072  0.9998800000000001  1.0000
  C   C269      1.0  0.15861  0.8751  0.97781  1.0000
  C   C270      1.0  0.12151000000000005  0.78638  0.97403  1.0000
  H   H159      1.0  0.03887000000000006  0.9132600000000002  0.03479  1.0000
  H   H160      1.0  0.15843000000000004  0.9893200000000002  0.00301  1.0000
  H   H161      1.0  0.20993000000000012  0.9085100000000003  0.9635100000000001  1.0000
  H   H162      1.0  0.14514  0.75142  0.95721  1.0000
  H   H163      1.0  0.9715599999999999  0.75626  0.027700000000000002  1.0000
  H   H164      1.0  0.81732  0.3503  0.99575  1.0000
  H   H165      1.0  0.76168  0.19776999999999997  0.9782699999999999  1.0000
  H   H166      1.0  0.018310000000000014  0.38527  0.9348699999999999  1.0000
  H   H167      1.0  0.96104  0.23277000000000006  0.9170500000000001  1.0000
  H   H168      1.0  0.8327100000000001  0.13919000000000006  0.9385300000000001  1.0000
  C   C271      1.0  0.44873  0.97915  0.97916  1.0000
  C   C272      1.0  0.52622  0.99582  0.96863  1.0000
  C   C273      1.0  0.55474  0.04834  0.94127  1.0000
  H   H169      1.0  0.61504  0.06325  0.93389  1.0000
  C   C274      1.0  0.50682  0.08392000000000004  0.9240200000000001  1.0000
  C   C275      1.0  0.42932  0.06674  0.93434  1.0000
  C   C276      1.0  0.40212  0.01781  0.96274  1.0000
  H   H170      1.0  0.34271  0.005239999999999996  0.97074  1.0000
  C   C277      1.0  0.37449  0.09446000000000003  0.9142300000000001  1.0000
  C   C278      1.0  0.35763  0.16650000000000006  0.9241900000000001  1.0000
  C   C279      1.0  0.29923  0.18712000000000006  0.9073099999999998  1.0000
  C   C280      1.0  0.25728  0.13572  0.8805800000000001  1.0000
  C   C281      1.0  0.27492  0.06480000000000002  0.87019  1.0000
  C   C282      1.0  0.33372  0.04435999999999999  0.88683  1.0000
  C   C283      1.0  0.5781  0.9588900000000002  0.98619  1.0000
  C   C284      1.0  0.62778  0.00481  0.01241  1.0000
  C   C285      1.0  0.6798400000000001  0.9717600000000002  0.02793  1.0000
  C   C286      1.0  0.68339  0.89361  0.01696  1.0000
  C   C287      1.0  0.63432  0.8479400000000002  0.99069  1.0000
  C   C288      1.0  0.58204  0.88065  0.9751700000000001  1.0000
  H   H171      1.0  0.7174799999999999  0.006730000000000002  0.04842  1.0000
  H   H172      1.0  0.7239  0.8682600000000001  0.0289  1.0000
  H   H173      1.0  0.63692  0.78731  0.98233  1.0000
  H   H174      1.0  0.54472  0.84538  0.9546100000000001  1.0000
  H   H175      1.0  0.6266999999999999  0.06642000000000003  0.02043  1.0000
  H   H176      1.0  0.38907  0.20576  0.9451500000000002  1.0000
  H   H177      1.0  0.28598  0.24245  0.91517  1.0000
  H   H178      1.0  0.3464800000000001  0.9887000000000002  0.87891  1.0000
  H   H179      1.0  0.24275  0.02542999999999999  0.8493499999999999  1.0000
  H   H180      1.0  0.21125999999999998  0.15098  0.86786  1.0000
  C   C289      1.0  0.39174  0.50737  0.00833  1.0000
  C   C290      1.0  0.38339  0.52603  0.9744900000000001  1.0000
  C   C291      1.0  0.42594  0.50197  0.95034  1.0000
  H   H181      1.0  0.42288999999999993  0.52033  0.9246699999999999  1.0000
  C   C292      1.0  0.4746  0.45726  0.95922  1.0000
  C   C293      1.0  0.47753000000000007  0.43148  0.99245  1.0000
  C   C294      1.0  0.43620000000000003  0.4570500000000001  0.01691  1.0000
  H   H182      1.0  0.44188000000000005  0.4415800000000001  0.04281  1.0000
  C   C295      1.0  0.52657  0.3812100000000001  0.00199  1.0000
  C   C296      1.0  0.608  0.4221900000000001  0.0067  1.0000
  C   C297      1.0  0.65517  0.37379  0.01305  1.0000
  C   C298      1.0  0.62141  0.28441  0.014440000000000001  1.0000
  C   C299      1.0  0.54019  0.24342  0.01017  1.0000
  C   C300      1.0  0.49262999999999996  0.29172  0.00437  1.0000
  C   C301      1.0  0.33222999999999997  0.57311  0.9640800000000002  1.0000
  C   C302      1.0  0.36526000000000003  0.6534800000000002  0.94916  1.0000
  C   C303      1.0  0.3169400000000001  0.6907600000000003  0.93327  1.0000
  C   C304      1.0  0.2356  0.64856  0.9324599999999998  1.0000
  C   C305      1.0  0.20220000000000005  0.5698200000000002  0.94816  1.0000
  C   C306      1.0  0.25029  0.53197  0.9639299999999998  1.0000
  H   H183      1.0  0.34264  0.75192  0.9212300000000001  1.0000
  H   H184      1.0  0.19862000000000002  0.6762100000000002  0.91917  1.0000
  H   H185      1.0  0.13923999999999995  0.537  0.94728  1.0000
  H   H186      1.0  0.22414  0.46947  0.9749699999999999  1.0000
  H   H187      1.0  0.42841999999999997  0.68573  0.94905  1.0000
  H   H188      1.0  0.6347199999999998  0.49125000000000013  0.00497  1.0000
  H   H189      1.0  0.7179200000000001  0.40555000000000013  0.01668  1.0000
  H   H190      1.0  0.4297  0.2597  0.00144  1.0000
  H   H191      1.0  0.51411  0.17426  0.01136  1.0000
  H   H192      1.0  0.65813  0.24696000000000007  0.01891  1.0000
  C   C307      1.0  0.82869  0.21799000000000004  0.8212199999999998  1.0000
  C   C308      1.0  0.8116399999999999  0.13006  0.81405  1.0000
  C   C309      1.0  0.85007  0.10633  0.78805  1.0000
  H   H193      1.0  0.83662  0.03893  0.78242  1.0000
  C   C310      1.0  0.91168  0.1683  0.77168  1.0000
  C   C311      1.0  0.93021  0.25592  0.77948  1.0000
  C   C312      1.0  0.88563  0.28009  0.80273  1.0000
  H   H194      1.0  0.89753  0.34760000000000013  0.8073700000000001  1.0000
  C   C313      1.0  3.000000000002014e-05  0.3223600000000001  0.76569  1.0000
  C   C314      1.0  0.07568  0.33004  0.77691  1.0000
  C   C315      1.0  0.14152  0.39414  0.76434  1.0000
  C   C316      1.0  0.13211000000000003  0.45157000000000014  0.741  1.0000
  C   C317      1.0  0.056840000000000064  0.4451100000000001  0.73025  1.0000
  C   C318      1.0  0.99084  0.38103  0.74272  1.0000
  C   C319      1.0  0.75979  0.06278000000000002  0.8355199999999999  1.0000
  C   C320      1.0  0.7891800000000001  0.042830000000000014  0.86565  1.0000
  C   C321      1.0  0.73872  0.98413  0.88723  1.0000
  C   C322      1.0  0.6590500000000001  0.9447500000000002  0.8787200000000001  1.0000
  C   C323      1.0  0.62972  0.9637300000000002  0.84856  1.0000
  C   C324      1.0  0.6798799999999999  0.022610000000000016  0.82696  1.0000
  H   H195      1.0  0.7612300000000001  0.9697200000000004  0.9106699999999999  1.0000
  H   H196      1.0  0.6199800000000001  0.8998800000000001  0.8955700000000001  1.0000
  H   H197      1.0  0.56795  0.93356  0.8421  1.0000
  H   H198      1.0  0.65636  0.03884000000000001  0.80407  1.0000
  H   H199      1.0  0.85063  0.07407000000000002  0.87261  1.0000
  H   H200      1.0  0.08334  0.28629  0.79524  1.0000
  H   H201      1.0  0.1998  0.39945  0.77277  1.0000
  H   H202      1.0  0.9326699999999999  0.37737  0.73485  1.0000
  H   H203      1.0  0.04969000000000001  0.48984  0.71229  1.0000
  H   H204      1.0  0.18311  0.50126  0.73134  1.0000
  C   C325      1.0  0.39005  0.20347  0.8100699999999998  1.0000
  C   C326      1.0  0.33892000000000005  0.24984000000000006  0.8106  1.0000
  C   C327      1.0  0.26316000000000006  0.21286000000000005  0.79671  1.0000
  H   H205      1.0  0.22319000000000006  0.24757000000000007  0.79809  1.0000
  C   C328      1.0  0.2396  0.13342000000000007  0.77972  1.0000
  C   C329      1.0  0.29248  0.08924000000000003  0.77746  1.0000
  C   C330      1.0  0.36668  0.12375  0.79335  1.0000
  H   H206      1.0  0.40659  0.08890000000000003  0.79241  1.0000
  C   C331      1.0  0.2725  0.009189999999999999  0.75733  1.0000
  C   C332      1.0  0.25967  0.010049999999999998  0.72271  1.0000
  C   C333      1.0  0.24499999999999997  0.93557  0.7035  1.0000
  C   C334      1.0  0.24272000000000005  0.8598400000000003  0.71869  1.0000
  C   C335      1.0  0.25396  0.85813  0.75323  1.0000
  C   C336      1.0  0.26899  0.93262  0.77255  1.0000
  C   C337      1.0  0.3653  0.33886  0.82419  1.0000
  C   C338      1.0  0.32285  0.36038  0.8493800000000001  1.0000
  C   C339      1.0  0.34708999999999995  0.44444999999999996  0.8618299999999999  1.0000
  C   C340      1.0  0.41389000000000004  0.5073500000000001  0.8493800000000001  1.0000
  C   C341      1.0  0.45578  0.4866600000000001  0.8240000000000001  1.0000
  C   C342      1.0  0.43103  0.40298  0.81105  1.0000
  H   H207      1.0  0.31395  0.4609000000000001  0.8810900000000002  1.0000
  H   H208      1.0  0.4329500000000001  0.5722300000000002  0.85928  1.0000
  H   H209      1.0  0.50718  0.53559  0.81423  1.0000
  H   H210      1.0  0.46304000000000006  0.38788000000000006  0.79099  1.0000
  H   H211      1.0  0.27060999999999996  0.31239  0.85895  1.0000
  H   H212      1.0  0.26011000000000006  0.06804000000000003  0.71084  1.0000
  H   H213      1.0  0.2355099999999999  0.93661  0.67682  1.0000
  H   H214      1.0  0.27824  0.9309900000000002  0.7992599999999999  1.0000
  H   H215      1.0  0.2514400000000001  0.7991900000000002  0.76498  1.0000
  H   H216      1.0  0.23228999999999997  0.8025  0.70371  1.0000
  C   C343      1.0  0.8050800000000001  0.6197700000000003  0.83362  1.0000
  C   C344      1.0  0.8880099999999999  0.65507  0.83081  1.0000
  C   C345      1.0  0.9221500000000001  0.7270200000000002  0.8110199999999999  1.0000
  H   H217      1.0  0.98544  0.75353  0.8086799999999998  1.0000
  C   C346      1.0  0.87504  0.7606300000000003  0.79218  1.0000
  C   C347      1.0  0.7925700000000001  0.7253000000000002  0.79474  1.0000
  C   C348      1.0  0.7583300000000001  0.6561100000000002  0.8158  1.0000
  H   H218      1.0  0.69496  0.62938  0.81777  1.0000
  C   C349      1.0  0.74142  0.75918  0.77488  1.0000
  C   C350      1.0  0.69215  0.70851  0.74943  1.0000
  C   C351      1.0  0.6419  0.73948  0.73139  1.0000
  C   C352      1.0  0.64107  0.82115  0.73851  1.0000
  C   C353      1.0  0.69171  0.87275  0.76311  1.0000
  C   C354      1.0  0.74101  0.8415400000000002  0.78167  1.0000
  C   C355      1.0  0.93951  0.61515  0.84703  1.0000
  C   C356      1.0  0.97632  0.6467  0.8779099999999999  1.0000
  C   C357      1.0  0.027470000000000064  0.6110100000000003  0.8925199999999999  1.0000
  C   C358      1.0  0.04162000000000002  0.54351  0.87653  1.0000
  C   C359      1.0  0.005659999999999997  0.51242  0.84562  1.0000
  C   C360      1.0  0.9548699999999999  0.5482000000000001  0.8307900000000001  1.0000
  H   H219      1.0  0.055989999999999984  0.63552  0.91626  1.0000
  H   H220      1.0  0.08075000000000002  0.51558  0.888  1.0000
  H   H221      1.0  0.01737000000000003  0.4607900000000001  0.83311  1.0000
  H   H222      1.0  0.9263399999999999  0.52296  0.80706  1.0000
  H   H223      1.0  0.96532  0.69869  0.8905400000000001  1.0000
  H   H224      1.0  0.69277  0.64528  0.74372  1.0000
  H   H225      1.0  0.60365  0.7002300000000002  0.71189  1.0000
  H   H226      1.0  0.77886  0.8812  0.8012200000000002  1.0000
  H   H227      1.0  0.693  0.93704  0.76763  1.0000
  H   H228      1.0  0.60177  0.84482  0.72477  1.0000
