data_image0
_chemical_formula_structural       Sr3C3HC2HCHOHCO2C3HC2HCHOHCO2C3HC2HCHOHCO2C3HC2HCHOHCO2C3HC2HCHOHCO2C3HC2HCHOHCO3CHNCH3CH3Sr3C3HC2HCHOHCO2C3HC2HCHOHCO2C3HC2HCHOHCO2C3HC2HCHOHCO2C3HC2HCHOHCO2C3HC2HCHOHCO3CHNCH3CH3Sr3C3HC2HCHOHCO2C3HC2HCHOHCO2C3HC2HCHOHCO2C3HC2HCHOHCO2C3HC2HCHOHCO2C3HC2HCHOHCO3CHNCH3CH3Sr3C3HC2HCHOHCO2C3HC2HCHOHCO2C3HC2HCHOHCO2C3HC2HCHOHCO2C3HC2HCHOHCO2C3HC2HCHOHCO3CHNCH3CH3Sr3C3HC2HCHOHCO2C3HC2HCHOHCO2C3HC2HCHOHCO2C3HC2HCHOHCO2C3HC2HCHOHCO2C3HC2HCHOHCO3CHNCH3CH3Sr3C3HC2HCHOHCO2C3HC2HCHOHCO2C3HC2HCHOHCO2C3HC2HCHOHCO2C3HC2HCHOHCO2C3HC2HCHOHCO3CHNCH3CH3Sr3C3HC2HCHOHCO2C3HC2HCHOHCO2C3HC2HCHOHCO2C3HC2HCHOHCO2C3HC2HCHOHCO2C3HC2HCHOHCO3CHNCH3CH3Sr3C3HC2HCHOHCO2C3HC2HCHOHCO2C3HC2HCHOHCO2C3HC2HCHOHCO2C3HC2HCHOHCO2C3HC2HCHOHCO3CHNCH3CH3
_chemical_formula_sum              "Sr24 C360 H248 O152 N8"
_cell_length_a       27.3062
_cell_length_b       19.4347
_cell_length_c       31.177
_cell_angle_alpha    90.0
_cell_angle_beta     90.0
_cell_angle_gamma    90.0

_symmetry_space_group_name_H-M    'P 1'
_symmetry_Int_Tables_number       1

loop_
  _symmetry_equiv_pos_as_xyz
  'x,y,z'

loop_
  _atom_site_type_symbol
  _atom_site_label
  _atom_site_symmetry_multiplicity
  _atom_site_fract_x
  _atom_site_fract_y
  _atom_site_fract_z
  _atom_site_occupancy
  Sr  Sr1       1.0  0.21153  0.42001999999999995  0.17392000000000005  1.0000
  Sr  Sr2       1.0  0.29088  0.26572  0.19869000000000006  1.0000
  Sr  Sr3       1.0  0.22805  0.09955  0.14948  1.0000
  C   C1        1.0  0.3247  0.2424  0.4348100000000001  1.0000
  C   C2        1.0  0.3716  0.2508  0.4191  1.0000
  C   C3        1.0  0.3803  0.2555  0.3758800000000001  1.0000
  H   H1        1.0  0.413  0.2611  0.3661000000000001  1.0000
  C   C4        1.0  0.3431  0.2524  0.34616  1.0000
  C   C5        1.0  0.2957  0.2465  0.3611  1.0000
  H   H2        1.0  0.2692  0.24559999999999998  0.3414  1.0000
  C   C6        1.0  0.2866  0.2417  0.4043  1.0000
  H   H3        1.0  0.2537  0.23789999999999997  0.4140000000000001  1.0000
  O   O1        1.0  0.41126  0.2556999999999999  0.44587000000000004  1.0000
  H   H4        1.0  0.4147  0.21859999999999996  0.4594000000000001  1.0000
  C   C7        1.0  0.3536  0.2578  0.2987700000000001  1.0000
  O   O2        1.0  0.397  0.26758  0.2873900000000001  1.0000
  O   O3        1.0  0.31834  0.2517  0.2735  1.0000
  C   C8        1.0  0.3125  0.2352  0.48183000000000004  1.0000
  C   C9        1.0  0.3291  0.28  0.51323  1.0000
  C   C10       1.0  0.3127  0.2753  0.5547700000000002  1.0000
  H   H5        1.0  0.3235  0.3077  0.5755  1.0000
  C   C11       1.0  0.2803  0.2232  0.5666900000000002  1.0000
  C   C12       1.0  0.265  0.1764  0.5360000000000003  1.0000
  H   H6        1.0  0.24410000000000004  0.1396  0.5440000000000003  1.0000
  C   C13       1.0  0.2799  0.183  0.49430000000000013  1.0000
  H   H7        1.0  0.2679  0.1517  0.4734000000000001  1.0000
  O   O4        1.0  0.36201  0.3301  0.50147  1.0000
  H   H8        1.0  0.3688  0.3546  0.5229  1.0000
  C   C14       1.0  0.2603  0.2225  0.6111100000000003  1.0000
  O   O5        1.0  0.25883  0.27763999999999994  0.6314900000000002  1.0000
  O   O6        1.0  0.24499  0.16679  0.6271400000000003  1.0000
  C   C15       1.0  0.42991  0.5049  0.3013300000000001  1.0000
  C   C16       1.0  0.4186  0.43699999999999994  0.2890400000000001  1.0000
  C   C17       1.0  0.37924  0.4225  0.2627800000000001  1.0000
  H   H9        1.0  0.37340000000000007  0.37639999999999996  0.2541000000000001  1.0000
  C   C18       1.0  0.34786  0.4746  0.24884000000000003  1.0000
  C   C19       1.0  0.3576  0.5418  0.2618200000000001  1.0000
  H   H10       1.0  0.3362  0.5778  0.2532  1.0000
  C   C20       1.0  0.3976  0.5567  0.2870600000000001  1.0000
  H   H11       1.0  0.4036  0.6031  0.2951  1.0000
  O   O7        1.0  0.44862  0.3857  0.30345  1.0000
  H   H12       1.0  0.4369  0.3474  0.2965  1.0000
  C   C21       1.0  0.3049  0.458  0.22114000000000003  1.0000
  O   O8        1.0  0.29504  0.39542  0.21309000000000006  1.0000
  O   O9        1.0  0.27961  0.50701  0.20633000000000007  1.0000
  C   C22       1.0  0.47403  0.5228  0.32733  1.0000
  C   C23       1.0  0.46947  0.5639999999999998  0.3641300000000001  1.0000
  C   C24       1.0  0.51179  0.5846999999999999  0.38653000000000004  1.0000
  H   H13       1.0  0.5083  0.6124  0.4115000000000001  1.0000
  C   C25       1.0  0.55813  0.5659  0.3732100000000001  1.0000
  C   C26       1.0  0.56261  0.5255  0.3366900000000001  1.0000
  H   H14       1.0  0.5941  0.5126  0.3267000000000001  1.0000
  C   C27       1.0  0.5208  0.5038  0.3146700000000001  1.0000
  H   H15       1.0  0.5245  0.4751  0.2902  1.0000
  O   O10       1.0  0.4239  0.5836  0.3784500000000001  1.0000
  H   H16       1.0  0.4023  0.5677  0.3620000000000001  1.0000
  C   C28       1.0  0.60268  0.5909  0.39778000000000013  1.0000
  O   O11       1.0  0.64323  0.59364  0.3786800000000001  1.0000
  O   O12       1.0  0.5951500000000001  0.6087999999999999  0.4359800000000001  1.0000
  C   C29       1.0  0.4753  0.0672  0.24000000000000005  1.0000
  C   C30       1.0  0.4438  0.1206  0.24990000000000007  1.0000
  C   C31       1.0  0.3984  0.1271  0.22910000000000005  1.0000
  H   H17       1.0  0.3774  0.16449999999999998  0.23590000000000005  1.0000
  C   C32       1.0  0.38412  0.0793  0.19880000000000006  1.0000
  C   C33       1.0  0.415  0.0247  0.18790000000000007  1.0000
  H   H18       1.0  0.4056  0.9919999999999999  0.16680000000000006  1.0000
  C   C34       1.0  0.4605  0.0194  0.20900000000000005  1.0000
  H   H19       1.0  0.4817  0.9823999999999999  0.20190000000000005  1.0000
  O   O13       1.0  0.45815  0.1646  0.2815  1.0000
  H   H20       1.0  0.4405  0.2  0.281  1.0000
  C   C35       1.0  0.33436000000000005  0.08689999999999999  0.17857000000000006  1.0000
  O   O14       1.0  0.31038  0.14167  0.18598  1.0000
  O   O15       1.0  0.31708  0.03866  0.15683000000000005  1.0000
  C   C36       1.0  0.027  0.2517  0.2443  1.0000
  C   C37       1.0  0.0578  0.3067  0.2544  1.0000
  C   C38       1.0  0.1066  0.30479999999999996  0.24340000000000006  1.0000
  H   H21       1.0  0.1264  0.3441  0.24880000000000005  1.0000
  C   C39       1.0  0.1279  0.2469  0.22449000000000005  1.0000
  C   C40       1.0  0.09697  0.19179999999999997  0.21470000000000006  1.0000
  H   H22       1.0  0.1101  0.15179999999999996  0.20140000000000005  1.0000
  C   C41       1.0  0.047  0.19479999999999997  0.22423000000000007  1.0000
  H   H23       1.0  0.0264  0.1572  0.21680000000000005  1.0000
  O   O16       1.0  0.04  0.3638  0.2756  1.0000
  H   H24       1.0  0.0247  0.38879999999999987  0.2583  1.0000
  C   C42       1.0  0.1818  0.2445  0.21503000000000005  1.0000
  O   O17       1.0  0.20281999999999997  0.30266999999999994  0.21204000000000006  1.0000
  O   O18       1.0  0.20287  0.18869  0.21161000000000002  1.0000
  O   O19       1.0  0.22521  0.9780899999999999  0.11496000000000003  1.0000
  C   C43       1.0  0.1873  0.9468  0.10627000000000003  1.0000
  H   H25       1.0  0.1728  0.9199  0.1283  1.0000
  N   N1        1.0  0.16502  0.9478  0.06843000000000003  1.0000
  C   C44       1.0  0.1849  0.989  0.0337  1.0000
  H   H26       1.0  0.1588  0.0173  0.021300000000000006  1.0000
  H   H27       1.0  0.1984  0.9586999999999999  0.0116  1.0000
  H   H28       1.0  0.2108  0.0189  0.04480000000000001  1.0000
  C   C45       1.0  0.1181  0.9104  0.06140000000000001  1.0000
  H   H29       1.0  0.11149999999999999  0.8804  0.08610000000000002  1.0000
  H   H30       1.0  0.12060000000000001  0.8824  0.0354  1.0000
  H   H31       1.0  0.09139999999999998  0.9436  0.05830000000000001  1.0000
  Sr  Sr4       1.0  0.28847  0.07998  0.67392  1.0000
  Sr  Sr5       1.0  0.20912  0.23427999999999996  0.6986900000000003  1.0000
  Sr  Sr6       1.0  0.27195  0.4004499999999999  0.6494800000000002  1.0000
  C   C46       1.0  0.1753  0.2576  0.9348100000000003  1.0000
  C   C47       1.0  0.1284  0.2492  0.9191000000000003  1.0000
  C   C48       1.0  0.1197  0.2445  0.8758800000000002  1.0000
  H   H32       1.0  0.087  0.2389  0.8661000000000002  1.0000
  C   C49       1.0  0.1569  0.24759999999999996  0.8461600000000002  1.0000
  C   C50       1.0  0.2043  0.2535  0.8611000000000002  1.0000
  H   H33       1.0  0.2308  0.25439999999999996  0.8414000000000003  1.0000
  C   C51       1.0  0.2134  0.2582999999999999  0.9043000000000002  1.0000
  H   H34       1.0  0.2463  0.2621  0.9140000000000003  1.0000
  O   O20       1.0  0.08874  0.2443  0.9458700000000002  1.0000
  H   H35       1.0  0.0853  0.2814  0.9594000000000001  1.0000
  C   C52       1.0  0.1464  0.2422  0.79877  1.0000
  O   O21       1.0  0.103  0.23242  0.78739  1.0000
  O   O22       1.0  0.18166  0.24829999999999997  0.7735000000000002  1.0000
  C   C53       1.0  0.1875  0.2648  0.9818300000000002  1.0000
  C   C54       1.0  0.17090000000000002  0.22  0.01323  1.0000
  C   C55       1.0  0.1873  0.22469999999999998  0.05477  1.0000
  H   H36       1.0  0.1765  0.1923  0.07550000000000001  1.0000
  C   C56       1.0  0.21970000000000003  0.2768  0.06669  1.0000
  C   C57       1.0  0.235  0.3236  0.03600000000000001  1.0000
  H   H37       1.0  0.2559  0.3604  0.04400000000000001  1.0000
  C   C58       1.0  0.22010000000000002  0.317  0.9943000000000002  1.0000
  H   H38       1.0  0.23210000000000003  0.3483  0.9734000000000003  1.0000
  O   O23       1.0  0.13799  0.1699  0.0014700000000000004  1.0000
  H   H39       1.0  0.1312  0.1454  0.022900000000000007  1.0000
  C   C59       1.0  0.23969999999999997  0.2775  0.11111000000000001  1.0000
  O   O24       1.0  0.24117  0.22236  0.13149000000000005  1.0000
  O   O25       1.0  0.25501  0.33321  0.12714  1.0000
  C   C60       1.0  0.07009  0.9951  0.80133  1.0000
  C   C61       1.0  0.08140000000000001  0.063  0.78904  1.0000
  C   C62       1.0  0.12076  0.0775  0.76278  1.0000
  H   H40       1.0  0.1266  0.1236  0.7541000000000002  1.0000
  C   C63       1.0  0.15214  0.0254  0.7488400000000002  1.0000
  C   C64       1.0  0.1424  0.9581999999999999  0.7618200000000003  1.0000
  H   H41       1.0  0.1638  0.9221999999999999  0.7532  1.0000
  C   C65       1.0  0.1024  0.9432999999999999  0.78706  1.0000
  H   H42       1.0  0.0964  0.8969  0.7951000000000003  1.0000
  O   O26       1.0  0.05138  0.1143  0.8034500000000002  1.0000
  H   H43       1.0  0.0631  0.15259999999999999  0.7965000000000002  1.0000
  C   C66       1.0  0.1951  0.042  0.7211400000000002  1.0000
  O   O27       1.0  0.20496  0.10457999999999999  0.7130900000000002  1.0000
  O   O28       1.0  0.22039  0.9929899999999999  0.7063300000000002  1.0000
  C   C67       1.0  0.02597  0.9772  0.8273300000000002  1.0000
  C   C68       1.0  0.03053  0.936  0.8641300000000002  1.0000
  C   C69       1.0  0.98821  0.9153  0.8865300000000003  1.0000
  H   H44       1.0  0.9917  0.8876  0.9115000000000002  1.0000
  C   C70       1.0  0.94187  0.9340999999999999  0.8732100000000003  1.0000
  C   C71       1.0  0.93739  0.9744999999999999  0.8366900000000003  1.0000
  H   H45       1.0  0.9059  0.9873999999999999  0.8267  1.0000
  C   C72       1.0  0.9792  0.9961999999999999  0.8146700000000002  1.0000
  H   H46       1.0  0.9755  0.0249  0.7902000000000002  1.0000
  O   O29       1.0  0.0761  0.9163999999999999  0.87845  1.0000
  H   H47       1.0  0.0977  0.9323  0.8620000000000002  1.0000
  C   C73       1.0  0.89732  0.9091  0.8977800000000002  1.0000
  O   O30       1.0  0.8567700000000001  0.90636  0.8786800000000002  1.0000
  O   O31       1.0  0.90485  0.8912  0.9359800000000003  1.0000
  C   C74       1.0  0.0247  0.43279999999999996  0.74  1.0000
  C   C75       1.0  0.0562  0.37939999999999996  0.7499000000000002  1.0000
  C   C76       1.0  0.1016  0.3729  0.7291  1.0000
  H   H48       1.0  0.1226  0.3355  0.7359000000000002  1.0000
  C   C77       1.0  0.11587999999999998  0.42069999999999996  0.6988  1.0000
  C   C78       1.0  0.08500000000000002  0.4753  0.6879000000000002  1.0000
  H   H49       1.0  0.0944  0.5079999999999999  0.6668  1.0000
  C   C79       1.0  0.03950000000000001  0.48059999999999997  0.709  1.0000
  H   H50       1.0  0.0183  0.5176  0.7019000000000002  1.0000
  O   O32       1.0  0.04185  0.3353999999999999  0.7815000000000002  1.0000
  H   H51       1.0  0.0595  0.3  0.7810000000000001  1.0000
  C   C80       1.0  0.16564  0.4131  0.67857  1.0000
  O   O33       1.0  0.18962  0.3583299999999999  0.6859800000000003  1.0000
  O   O34       1.0  0.18292  0.4613399999999999  0.6568300000000002  1.0000
  C   C81       1.0  0.473  0.24829999999999997  0.7443000000000002  1.0000
  C   C82       1.0  0.44220000000000004  0.19329999999999997  0.7544000000000002  1.0000
  C   C83       1.0  0.3934  0.19519999999999998  0.7434  1.0000
  H   H52       1.0  0.3736  0.1559  0.7488000000000002  1.0000
  C   C84       1.0  0.3721  0.2531  0.7244900000000002  1.0000
  C   C85       1.0  0.40302999999999994  0.3082  0.7147000000000002  1.0000
  H   H53       1.0  0.3899  0.3482  0.7014000000000002  1.0000
  C   C86       1.0  0.453  0.30519999999999997  0.7242300000000003  1.0000
  H   H54       1.0  0.4736  0.3428  0.7168000000000002  1.0000
  O   O35       1.0  0.46  0.1362  0.7756000000000002  1.0000
  H   H55       1.0  0.4753  0.1112  0.7583000000000002  1.0000
  C   C87       1.0  0.3182  0.2555  0.7150300000000003  1.0000
  O   O36       1.0  0.29718  0.19733  0.71204  1.0000
  O   O37       1.0  0.29713  0.31131  0.71161  1.0000
  O   O38       1.0  0.27479  0.5219099999999999  0.61496  1.0000
  C   C88       1.0  0.3127  0.5532  0.6062700000000002  1.0000
  H   H56       1.0  0.3272  0.5801  0.6283000000000002  1.0000
  N   N2        1.0  0.33498  0.5522  0.5684300000000002  1.0000
  C   C89       1.0  0.3151  0.511  0.5337  1.0000
  H   H57       1.0  0.3412  0.48269999999999996  0.5213000000000002  1.0000
  H   H58       1.0  0.30160000000000003  0.5413  0.5116  1.0000
  H   H59       1.0  0.2892  0.4811  0.5448  1.0000
  C   C90       1.0  0.3819  0.5896  0.5614000000000002  1.0000
  H   H60       1.0  0.3885  0.6196  0.5861000000000002  1.0000
  H   H61       1.0  0.3794  0.6176  0.5354  1.0000
  H   H62       1.0  0.4086  0.5564  0.5583000000000002  1.0000
  Sr  Sr7       1.0  0.78847  0.42001999999999995  0.32608000000000004  1.0000
  Sr  Sr8       1.0  0.70912  0.26572  0.30131000000000013  1.0000
  Sr  Sr9       1.0  0.77195  0.09955  0.3505200000000001  1.0000
  C   C91       1.0  0.6753  0.2424  0.06519000000000003  1.0000
  C   C92       1.0  0.6284  0.2508  0.08090000000000003  1.0000
  C   C93       1.0  0.6197000000000001  0.2555  0.12412000000000002  1.0000
  H   H63       1.0  0.587  0.2611  0.13390000000000005  1.0000
  C   C94       1.0  0.6569  0.2524  0.15384  1.0000
  C   C95       1.0  0.7043  0.2465  0.1389  1.0000
  H   H64       1.0  0.7308  0.24559999999999998  0.1586  1.0000
  C   C96       1.0  0.7134  0.2417  0.09570000000000002  1.0000
  H   H65       1.0  0.7463  0.23789999999999997  0.086  1.0000
  O   O39       1.0  0.58874  0.2556999999999999  0.05413000000000001  1.0000
  H   H66       1.0  0.5853  0.21859999999999996  0.04060000000000001  1.0000
  C   C97       1.0  0.6464  0.2578  0.20123  1.0000
  O   O40       1.0  0.603  0.26758  0.21261000000000005  1.0000
  O   O41       1.0  0.68166  0.2517  0.22650000000000006  1.0000
  C   C98       1.0  0.6875  0.2352  0.01817  1.0000
  C   C99       1.0  0.6709  0.28  0.9867700000000003  1.0000
  C   C100      1.0  0.6873  0.2753  0.9452300000000002  1.0000
  H   H67       1.0  0.6765  0.3077  0.9245000000000002  1.0000
  C   C101      1.0  0.7197  0.2232  0.9333100000000002  1.0000
  C   C102      1.0  0.735  0.1764  0.9640000000000002  1.0000
  H   H68       1.0  0.7559  0.1396  0.9560000000000002  1.0000
  C   C103      1.0  0.7201  0.183  0.005700000000000002  1.0000
  H   H69       1.0  0.7321  0.1517  0.026600000000000006  1.0000
  O   O42       1.0  0.6379900000000001  0.3301  0.9985300000000003  1.0000
  H   H70       1.0  0.6312  0.3546  0.9771000000000002  1.0000
  C   C104      1.0  0.7397  0.2225  0.8888900000000002  1.0000
  O   O43       1.0  0.74117  0.27763999999999994  0.8685100000000002  1.0000
  O   O44       1.0  0.75501  0.16679  0.8728600000000002  1.0000
  C   C105      1.0  0.57009  0.5049  0.19867000000000007  1.0000
  C   C106      1.0  0.5814  0.43699999999999994  0.21096000000000006  1.0000
  C   C107      1.0  0.62076  0.4225  0.23722000000000004  1.0000
  H   H71       1.0  0.6266  0.37639999999999996  0.24590000000000006  1.0000
  C   C108      1.0  0.65214  0.4746  0.25116  1.0000
  C   C109      1.0  0.6424  0.5418  0.23818000000000006  1.0000
  H   H72       1.0  0.6638  0.5778  0.24680000000000005  1.0000
  C   C110      1.0  0.6024  0.5567  0.21294000000000005  1.0000
  H   H73       1.0  0.5964  0.6031  0.20490000000000005  1.0000
  O   O45       1.0  0.55138  0.3857  0.19655000000000006  1.0000
  H   H74       1.0  0.5631  0.3474  0.20350000000000004  1.0000
  C   C111      1.0  0.6951  0.458  0.2788600000000001  1.0000
  O   O46       1.0  0.70496  0.39542  0.2869100000000001  1.0000
  O   O47       1.0  0.72039  0.50701  0.29367  1.0000
  C   C112      1.0  0.52597  0.5228  0.17267  1.0000
  C   C113      1.0  0.53053  0.5639999999999998  0.13587000000000005  1.0000
  C   C114      1.0  0.48821  0.5846999999999999  0.11347000000000003  1.0000
  H   H75       1.0  0.4917  0.6124  0.08850000000000002  1.0000
  C   C115      1.0  0.44187  0.5659  0.12679  1.0000
  C   C116      1.0  0.43739  0.5255  0.16331000000000007  1.0000
  H   H76       1.0  0.4059  0.5126  0.17330000000000004  1.0000
  C   C117      1.0  0.4792  0.5038  0.18533000000000005  1.0000
  H   H77       1.0  0.4755  0.4751  0.20980000000000001  1.0000
  O   O48       1.0  0.5761  0.5836  0.12155000000000003  1.0000
  H   H78       1.0  0.5977  0.5677  0.13800000000000007  1.0000
  C   C118      1.0  0.39732  0.5909  0.10222000000000003  1.0000
  O   O49       1.0  0.35677  0.59364  0.12132000000000003  1.0000
  O   O50       1.0  0.40485  0.6087999999999999  0.06402000000000002  1.0000
  C   C119      1.0  0.5247  0.0672  0.2600000000000001  1.0000
  C   C120      1.0  0.5562  0.1206  0.2501000000000001  1.0000
  C   C121      1.0  0.6016  0.1271  0.2709  1.0000
  H   H79       1.0  0.6226000000000002  0.16449999999999998  0.2641  1.0000
  C   C122      1.0  0.61588  0.0793  0.3012  1.0000
  C   C123      1.0  0.585  0.0247  0.3121000000000001  1.0000
  H   H80       1.0  0.5944  0.9919999999999999  0.3332  1.0000
  C   C124      1.0  0.5395  0.0194  0.2910000000000001  1.0000
  H   H81       1.0  0.5183  0.9823999999999999  0.2981000000000001  1.0000
  O   O51       1.0  0.54185  0.1646  0.21850000000000006  1.0000
  H   H82       1.0  0.5595  0.2  0.21900000000000006  1.0000
  C   C125      1.0  0.66564  0.08689999999999999  0.32143  1.0000
  O   O52       1.0  0.68962  0.14167  0.31402  1.0000
  O   O53       1.0  0.68292  0.03866  0.3431700000000001  1.0000
  C   C126      1.0  0.973  0.2517  0.2557000000000001  1.0000
  C   C127      1.0  0.9422  0.3067  0.24560000000000004  1.0000
  C   C128      1.0  0.8934  0.30479999999999996  0.2566  1.0000
  H   H83       1.0  0.8736  0.3441  0.2512  1.0000
  C   C129      1.0  0.8721  0.2469  0.2755100000000001  1.0000
  C   C130      1.0  0.90303  0.19179999999999997  0.2853  1.0000
  H   H84       1.0  0.8899  0.15179999999999996  0.2986000000000001  1.0000
  C   C131      1.0  0.9529999999999998  0.19479999999999997  0.2757700000000001  1.0000
  H   H85       1.0  0.9736  0.1572  0.2832  1.0000
  O   O54       1.0  0.96  0.3638  0.22440000000000004  1.0000
  H   H86       1.0  0.9753  0.38879999999999987  0.24170000000000005  1.0000
  C   C132      1.0  0.8182  0.2445  0.28497  1.0000
  O   O55       1.0  0.79718  0.30266999999999994  0.28796000000000005  1.0000
  O   O56       1.0  0.79713  0.18869  0.28839  1.0000
  O   O57       1.0  0.77479  0.9780899999999999  0.38504  1.0000
  C   C133      1.0  0.8127000000000001  0.9468  0.39373000000000014  1.0000
  H   H87       1.0  0.8272000000000002  0.9199  0.3717  1.0000
  N   N3        1.0  0.83498  0.9478  0.4315700000000001  1.0000
  C   C134      1.0  0.8151  0.989  0.4663  1.0000
  H   H88       1.0  0.8412  0.0173  0.4787000000000001  1.0000
  H   H89       1.0  0.8016  0.9586999999999999  0.4884000000000001  1.0000
  H   H90       1.0  0.7892  0.0189  0.4552000000000001  1.0000
  C   C135      1.0  0.8819  0.9104  0.4386  1.0000
  H   H91       1.0  0.8885  0.8804  0.4139000000000001  1.0000
  H   H92       1.0  0.8794  0.8824  0.4646000000000001  1.0000
  H   H93       1.0  0.9086  0.9436  0.4417000000000001  1.0000
  Sr  Sr10      1.0  0.71153  0.07998  0.8260800000000003  1.0000
  Sr  Sr11      1.0  0.79088  0.23427999999999996  0.8013100000000002  1.0000
  Sr  Sr12      1.0  0.7280500000000001  0.4004499999999999  0.85052  1.0000
  C   C136      1.0  0.8247  0.2576  0.56519  1.0000
  C   C137      1.0  0.8716  0.2492  0.5809000000000002  1.0000
  C   C138      1.0  0.8803  0.2445  0.62412  1.0000
  H   H94       1.0  0.913  0.2389  0.6339000000000002  1.0000
  C   C139      1.0  0.8430999999999998  0.24759999999999996  0.65384  1.0000
  C   C140      1.0  0.7957  0.2535  0.6389  1.0000
  H   H95       1.0  0.7692  0.25439999999999996  0.6586000000000002  1.0000
  C   C141      1.0  0.7866  0.2582999999999999  0.5957  1.0000
  H   H96       1.0  0.7537  0.2621  0.586  1.0000
  O   O58       1.0  0.9112600000000001  0.2443  0.5541300000000002  1.0000
  H   H97       1.0  0.9147  0.2814  0.5406  1.0000
  C   C142      1.0  0.8536  0.2422  0.7012300000000002  1.0000
  O   O59       1.0  0.897  0.23242  0.7126100000000001  1.0000
  O   O60       1.0  0.81834  0.24829999999999997  0.7265000000000003  1.0000
  C   C143      1.0  0.8125  0.2648  0.5181700000000002  1.0000
  C   C144      1.0  0.8291  0.22  0.4867700000000001  1.0000
  C   C145      1.0  0.8127000000000001  0.22469999999999998  0.4452300000000001  1.0000
  H   H98       1.0  0.8235  0.1923  0.4245  1.0000
  C   C146      1.0  0.7803000000000001  0.2768  0.4333100000000001  1.0000
  C   C147      1.0  0.765  0.3236  0.46400000000000013  1.0000
  H   H99       1.0  0.7441  0.3604  0.4560000000000001  1.0000
  C   C148      1.0  0.7799  0.317  0.5057  1.0000
  H   H100      1.0  0.7679  0.3483  0.5266000000000002  1.0000
  O   O61       1.0  0.86201  0.1699  0.4985300000000001  1.0000
  H   H101      1.0  0.8688  0.1454  0.4771  1.0000
  C   C149      1.0  0.7603  0.2775  0.38889  1.0000
  O   O62       1.0  0.75883  0.22236  0.3685100000000001  1.0000
  O   O63       1.0  0.74499  0.33321  0.37286000000000014  1.0000
  C   C150      1.0  0.92991  0.9951  0.6986700000000002  1.0000
  C   C151      1.0  0.9185999999999999  0.063  0.7109600000000003  1.0000
  C   C152      1.0  0.87924  0.0775  0.7372200000000002  1.0000
  H   H102      1.0  0.8734  0.1236  0.7459  1.0000
  C   C153      1.0  0.84786  0.0254  0.75116  1.0000
  C   C154      1.0  0.8575999999999999  0.9581999999999999  0.7381800000000002  1.0000
  H   H103      1.0  0.8362  0.9221999999999999  0.7468000000000002  1.0000
  C   C155      1.0  0.8976000000000001  0.9432999999999999  0.7129400000000002  1.0000
  H   H104      1.0  0.9036  0.8969  0.7049000000000002  1.0000
  O   O64       1.0  0.94862  0.1143  0.69655  1.0000
  H   H105      1.0  0.9369000000000001  0.15259999999999999  0.7035000000000002  1.0000
  C   C156      1.0  0.8049000000000001  0.042  0.7788600000000002  1.0000
  O   O65       1.0  0.79504  0.10457999999999999  0.78691  1.0000
  O   O66       1.0  0.77961  0.9929899999999999  0.7936700000000002  1.0000
  C   C157      1.0  0.97403  0.9772  0.67267  1.0000
  C   C158      1.0  0.96947  0.936  0.6358700000000003  1.0000
  C   C159      1.0  0.01179  0.9153  0.61347  1.0000
  H   H106      1.0  0.0083  0.8876  0.5885000000000002  1.0000
  C   C160      1.0  0.05813000000000001  0.9340999999999999  0.62679  1.0000
  C   C161      1.0  0.06261  0.9744999999999999  0.6633100000000002  1.0000
  H   H107      1.0  0.0941  0.9873999999999999  0.6733000000000002  1.0000
  C   C162      1.0  0.0208  0.9961999999999999  0.68533  1.0000
  H   H108      1.0  0.0245  0.0249  0.7098000000000002  1.0000
  O   O67       1.0  0.9239  0.9163999999999999  0.6215500000000003  1.0000
  H   H109      1.0  0.9023  0.9323  0.6380000000000002  1.0000
  C   C163      1.0  0.10268  0.9091  0.6022200000000002  1.0000
  O   O68       1.0  0.14323  0.90636  0.62132  1.0000
  O   O69       1.0  0.09515  0.8912  0.5640200000000002  1.0000
  C   C164      1.0  0.9753  0.43279999999999996  0.7600000000000002  1.0000
  C   C165      1.0  0.9438  0.37939999999999996  0.7501  1.0000
  C   C166      1.0  0.8984  0.3729  0.7709000000000001  1.0000
  H   H110      1.0  0.8774  0.3355  0.7641000000000002  1.0000
  C   C167      1.0  0.88412  0.42069999999999996  0.8012000000000002  1.0000
  C   C168      1.0  0.9149999999999999  0.4753  0.8121000000000003  1.0000
  H   H111      1.0  0.9056  0.5079999999999999  0.8332000000000003  1.0000
  C   C169      1.0  0.9605  0.48059999999999997  0.7910000000000003  1.0000
  H   H112      1.0  0.9817  0.5176  0.7981  1.0000
  O   O70       1.0  0.95815  0.3353999999999999  0.7185000000000002  1.0000
  H   H113      1.0  0.9405  0.3  0.719  1.0000
  C   C170      1.0  0.83436  0.4131  0.8214300000000002  1.0000
  O   O71       1.0  0.8103800000000001  0.3583299999999999  0.8140200000000002  1.0000
  O   O72       1.0  0.8170799999999999  0.4613399999999999  0.8431700000000002  1.0000
  C   C171      1.0  0.527  0.24829999999999997  0.7557000000000003  1.0000
  C   C172      1.0  0.5578  0.19329999999999997  0.7456000000000003  1.0000
  C   C173      1.0  0.6066  0.19519999999999998  0.7566000000000003  1.0000
  H   H114      1.0  0.6264  0.1559  0.7512000000000002  1.0000
  C   C174      1.0  0.6279  0.2531  0.7755100000000003  1.0000
  C   C175      1.0  0.59697  0.3082  0.7853000000000002  1.0000
  H   H115      1.0  0.6101  0.3482  0.7986000000000002  1.0000
  C   C176      1.0  0.547  0.30519999999999997  0.77577  1.0000
  H   H116      1.0  0.5264  0.3428  0.7832000000000002  1.0000
  O   O73       1.0  0.54  0.1362  0.7244000000000003  1.0000
  H   H117      1.0  0.5247  0.1112  0.7417  1.0000
  C   C177      1.0  0.6818  0.2555  0.7849700000000002  1.0000
  O   O74       1.0  0.70282  0.19733  0.7879600000000002  1.0000
  O   O75       1.0  0.70287  0.31131  0.7883900000000003  1.0000
  O   O76       1.0  0.72521  0.5219099999999999  0.8850400000000003  1.0000
  C   C178      1.0  0.6873  0.5532  0.8937300000000002  1.0000
  H   H118      1.0  0.6728  0.5801  0.8717000000000003  1.0000
  N   N4        1.0  0.66502  0.5522  0.9315700000000002  1.0000
  C   C179      1.0  0.6849  0.511  0.9663000000000003  1.0000
  H   H119      1.0  0.6587999999999999  0.48269999999999996  0.9787000000000002  1.0000
  H   H120      1.0  0.6984  0.5413  0.9884000000000002  1.0000
  H   H121      1.0  0.7108  0.4811  0.9552000000000003  1.0000
  C   C180      1.0  0.6181  0.5896  0.9386000000000002  1.0000
  H   H122      1.0  0.6115  0.6196  0.9139000000000003  1.0000
  H   H123      1.0  0.6206000000000002  0.6176  0.9646000000000002  1.0000
  H   H124      1.0  0.5914  0.5564  0.9417000000000002  1.0000
  Sr  Sr13      1.0  0.78847  0.57998  0.8260800000000003  1.0000
  Sr  Sr14      1.0  0.70912  0.73428  0.8013100000000002  1.0000
  Sr  Sr15      1.0  0.77195  0.90045  0.85052  1.0000
  C   C181      1.0  0.6753  0.7576  0.56519  1.0000
  C   C182      1.0  0.6284  0.7492  0.5809000000000002  1.0000
  C   C183      1.0  0.6197000000000001  0.7445  0.62412  1.0000
  H   H125      1.0  0.587  0.7388999999999999  0.6339000000000002  1.0000
  C   C184      1.0  0.6569  0.7476  0.65384  1.0000
  C   C185      1.0  0.7043  0.7535  0.6389  1.0000
  H   H126      1.0  0.7308  0.7544  0.6586000000000002  1.0000
  C   C186      1.0  0.7134  0.7583  0.5957  1.0000
  H   H127      1.0  0.7463  0.7621  0.586  1.0000
  O   O77       1.0  0.58874  0.7443  0.5541300000000002  1.0000
  H   H128      1.0  0.5853  0.7814  0.5406  1.0000
  C   C187      1.0  0.6464  0.7422  0.7012300000000002  1.0000
  O   O78       1.0  0.603  0.7324199999999998  0.7126100000000001  1.0000
  O   O79       1.0  0.68166  0.7482999999999999  0.7265000000000003  1.0000
  C   C188      1.0  0.6875  0.7648  0.5181700000000002  1.0000
  C   C189      1.0  0.6709  0.72  0.4867700000000001  1.0000
  C   C190      1.0  0.6873  0.7247  0.4452300000000001  1.0000
  H   H129      1.0  0.6765  0.6922999999999999  0.4245  1.0000
  C   C191      1.0  0.7197  0.7768  0.4333100000000001  1.0000
  C   C192      1.0  0.735  0.8235999999999999  0.46400000000000013  1.0000
  H   H130      1.0  0.7559  0.8604  0.4560000000000001  1.0000
  C   C193      1.0  0.7201  0.817  0.5057  1.0000
  H   H131      1.0  0.7321  0.8483  0.5266000000000002  1.0000
  O   O80       1.0  0.6379900000000001  0.6699  0.4985300000000001  1.0000
  H   H132      1.0  0.6312  0.6454  0.4771  1.0000
  C   C194      1.0  0.7397  0.7775  0.38889  1.0000
  O   O81       1.0  0.74117  0.72236  0.3685100000000001  1.0000
  O   O82       1.0  0.75501  0.83321  0.37286000000000014  1.0000
  C   C195      1.0  0.57009  0.4951  0.6986700000000002  1.0000
  C   C196      1.0  0.5814  0.563  0.7109600000000003  1.0000
  C   C197      1.0  0.62076  0.5775  0.7372200000000002  1.0000
  H   H133      1.0  0.6266  0.6236  0.7459  1.0000
  C   C198      1.0  0.65214  0.5254  0.75116  1.0000
  C   C199      1.0  0.6424  0.45819999999999994  0.7381800000000002  1.0000
  H   H134      1.0  0.6638  0.42219999999999996  0.7468000000000002  1.0000
  C   C200      1.0  0.6024  0.4433  0.7129400000000002  1.0000
  H   H135      1.0  0.5964  0.3969  0.7049000000000002  1.0000
  O   O83       1.0  0.55138  0.6143  0.69655  1.0000
  H   H136      1.0  0.5631  0.6526  0.7035000000000002  1.0000
  C   C201      1.0  0.6951  0.542  0.7788600000000002  1.0000
  O   O84       1.0  0.70496  0.60458  0.78691  1.0000
  O   O85       1.0  0.72039  0.49299  0.7936700000000002  1.0000
  C   C202      1.0  0.52597  0.4772  0.67267  1.0000
  C   C203      1.0  0.53053  0.436  0.6358700000000003  1.0000
  C   C204      1.0  0.48821  0.4153  0.61347  1.0000
  H   H137      1.0  0.4917  0.3876  0.5885000000000002  1.0000
  C   C205      1.0  0.44187  0.43409999999999993  0.62679  1.0000
  C   C206      1.0  0.43739  0.4745  0.6633100000000002  1.0000
  H   H138      1.0  0.4059  0.4874  0.6733000000000002  1.0000
  C   C207      1.0  0.4792  0.4961999999999999  0.68533  1.0000
  H   H139      1.0  0.4755  0.5249  0.7098000000000002  1.0000
  O   O86       1.0  0.5761  0.41639999999999994  0.6215500000000003  1.0000
  H   H140      1.0  0.5977  0.4323  0.6380000000000002  1.0000
  C   C208      1.0  0.39732  0.4091  0.6022200000000002  1.0000
  O   O87       1.0  0.35677  0.40636  0.62132  1.0000
  O   O88       1.0  0.40485  0.3912  0.5640200000000002  1.0000
  C   C209      1.0  0.5247  0.9328  0.7600000000000002  1.0000
  C   C210      1.0  0.5562  0.8793999999999998  0.7501  1.0000
  C   C211      1.0  0.6016  0.8729  0.7709000000000001  1.0000
  H   H141      1.0  0.6226000000000002  0.8355  0.7641000000000002  1.0000
  C   C212      1.0  0.61588  0.9207  0.8012000000000002  1.0000
  C   C213      1.0  0.585  0.9753  0.8121000000000003  1.0000
  H   H142      1.0  0.5944  0.008  0.8332000000000003  1.0000
  C   C214      1.0  0.5395  0.9806  0.7910000000000003  1.0000
  H   H143      1.0  0.5183  0.0176  0.7981  1.0000
  O   O89       1.0  0.54185  0.8354  0.7185000000000002  1.0000
  H   H144      1.0  0.5595  0.8  0.719  1.0000
  C   C215      1.0  0.66564  0.9131  0.8214300000000002  1.0000
  O   O90       1.0  0.68962  0.85833  0.8140200000000002  1.0000
  O   O91       1.0  0.68292  0.96134  0.8431700000000002  1.0000
  C   C216      1.0  0.973  0.7482999999999999  0.7557000000000003  1.0000
  C   C217      1.0  0.9422  0.6933  0.7456000000000003  1.0000
  C   C218      1.0  0.8934  0.6951999999999999  0.7566000000000003  1.0000
  H   H145      1.0  0.8736  0.6559  0.7512000000000002  1.0000
  C   C219      1.0  0.8721  0.7531  0.7755100000000003  1.0000
  C   C220      1.0  0.90303  0.8082  0.7853000000000002  1.0000
  H   H146      1.0  0.8899  0.8481999999999998  0.7986000000000002  1.0000
  C   C221      1.0  0.9529999999999998  0.8052  0.77577  1.0000
  H   H147      1.0  0.9736  0.8427999999999999  0.7832000000000002  1.0000
  O   O92       1.0  0.96  0.6362  0.7244000000000003  1.0000
  H   H148      1.0  0.9753  0.6112  0.7417  1.0000
  C   C222      1.0  0.8182  0.7555  0.7849700000000002  1.0000
  O   O93       1.0  0.79718  0.69733  0.7879600000000002  1.0000
  O   O94       1.0  0.79713  0.81131  0.7883900000000003  1.0000
  O   O95       1.0  0.77479  0.02191  0.8850400000000003  1.0000
  C   C223      1.0  0.8127000000000001  0.05319999999999999  0.8937300000000002  1.0000
  H   H149      1.0  0.8272000000000002  0.0801  0.8717000000000003  1.0000
  N   N5        1.0  0.83498  0.052199999999999996  0.9315700000000002  1.0000
  C   C224      1.0  0.8151  0.011  0.9663000000000003  1.0000
  H   H150      1.0  0.8412  0.9827  0.9787000000000002  1.0000
  H   H151      1.0  0.8016  0.0413  0.9884000000000002  1.0000
  H   H152      1.0  0.7892  0.9811  0.9552000000000003  1.0000
  C   C225      1.0  0.8819  0.0896  0.9386000000000002  1.0000
  H   H153      1.0  0.8885  0.1196  0.9139000000000003  1.0000
  H   H154      1.0  0.8794  0.1176  0.9646000000000002  1.0000
  H   H155      1.0  0.9086  0.0564  0.9417000000000002  1.0000
  Sr  Sr16      1.0  0.71153  0.9200199999999998  0.32608000000000004  1.0000
  Sr  Sr17      1.0  0.79088  0.76572  0.30131000000000013  1.0000
  Sr  Sr18      1.0  0.7280500000000001  0.59955  0.3505200000000001  1.0000
  C   C226      1.0  0.8247  0.7424  0.06519000000000003  1.0000
  C   C227      1.0  0.8716  0.7508  0.08090000000000003  1.0000
  C   C228      1.0  0.8803  0.7555  0.12412000000000002  1.0000
  H   H156      1.0  0.913  0.7611  0.13390000000000005  1.0000
  C   C229      1.0  0.8430999999999998  0.7524  0.15384  1.0000
  C   C230      1.0  0.7957  0.7464999999999999  0.1389  1.0000
  H   H157      1.0  0.7692  0.7456  0.1586  1.0000
  C   C231      1.0  0.7866  0.7417  0.09570000000000002  1.0000
  H   H158      1.0  0.7537  0.7379  0.086  1.0000
  O   O96       1.0  0.9112600000000001  0.7556999999999999  0.05413000000000001  1.0000
  H   H159      1.0  0.9147  0.7186  0.04060000000000001  1.0000
  C   C232      1.0  0.8536  0.7578  0.20123  1.0000
  O   O97       1.0  0.897  0.76758  0.21261000000000005  1.0000
  O   O98       1.0  0.81834  0.7517  0.22650000000000006  1.0000
  C   C233      1.0  0.8125  0.7351999999999999  0.01817  1.0000
  C   C234      1.0  0.8291  0.7799999999999999  0.9867700000000003  1.0000
  C   C235      1.0  0.8127000000000001  0.7752999999999999  0.9452300000000002  1.0000
  H   H160      1.0  0.8235  0.8077  0.9245000000000002  1.0000
  C   C236      1.0  0.7803000000000001  0.7232  0.9333100000000002  1.0000
  C   C237      1.0  0.765  0.6764  0.9640000000000002  1.0000
  H   H161      1.0  0.7441  0.6396  0.9560000000000002  1.0000
  C   C238      1.0  0.7799  0.683  0.005700000000000002  1.0000
  H   H162      1.0  0.7679  0.6516999999999998  0.026600000000000006  1.0000
  O   O99       1.0  0.86201  0.8301  0.9985300000000003  1.0000
  H   H163      1.0  0.8688  0.8546  0.9771000000000002  1.0000
  C   C239      1.0  0.7603  0.7225  0.8888900000000002  1.0000
  O   O100      1.0  0.75883  0.77764  0.8685100000000002  1.0000
  O   O101      1.0  0.74499  0.66679  0.8728600000000002  1.0000
  C   C240      1.0  0.92991  0.0049  0.19867000000000007  1.0000
  C   C241      1.0  0.9185999999999999  0.9369999999999999  0.21096000000000006  1.0000
  C   C242      1.0  0.87924  0.9225  0.23722000000000004  1.0000
  H   H164      1.0  0.8734  0.8764  0.24590000000000006  1.0000
  C   C243      1.0  0.84786  0.9746  0.25116  1.0000
  C   C244      1.0  0.8575999999999999  0.0418  0.23818000000000006  1.0000
  H   H165      1.0  0.8362  0.07779999999999998  0.24680000000000005  1.0000
  C   C245      1.0  0.8976000000000001  0.05669999999999999  0.21294000000000005  1.0000
  H   H166      1.0  0.9036  0.1031  0.20490000000000005  1.0000
  O   O102      1.0  0.94862  0.8857  0.19655000000000006  1.0000
  H   H167      1.0  0.9369000000000001  0.8474  0.20350000000000004  1.0000
  C   C246      1.0  0.8049000000000001  0.9579999999999999  0.2788600000000001  1.0000
  O   O103      1.0  0.79504  0.8954199999999999  0.2869100000000001  1.0000
  O   O104      1.0  0.77961  0.007009999999999999  0.29367  1.0000
  C   C247      1.0  0.97403  0.0228  0.17267  1.0000
  C   C248      1.0  0.96947  0.064  0.13587000000000005  1.0000
  C   C249      1.0  0.01179  0.0847  0.11347000000000003  1.0000
  H   H168      1.0  0.0083  0.1124  0.08850000000000002  1.0000
  C   C250      1.0  0.05813000000000001  0.0659  0.12679  1.0000
  C   C251      1.0  0.06261  0.0255  0.16331000000000007  1.0000
  H   H169      1.0  0.0941  0.0126  0.17330000000000004  1.0000
  C   C252      1.0  0.0208  0.0037999999999999996  0.18533000000000005  1.0000
  H   H170      1.0  0.0245  0.9751  0.20980000000000001  1.0000
  O   O105      1.0  0.9239  0.0836  0.12155000000000003  1.0000
  H   H171      1.0  0.9023  0.0677  0.13800000000000007  1.0000
  C   C253      1.0  0.10268  0.0909  0.10222000000000003  1.0000
  O   O106      1.0  0.14323  0.09364  0.12132000000000003  1.0000
  O   O107      1.0  0.09515  0.1088  0.06402000000000002  1.0000
  C   C254      1.0  0.9753  0.5671999999999999  0.2600000000000001  1.0000
  C   C255      1.0  0.9438  0.6205999999999999  0.2501000000000001  1.0000
  C   C256      1.0  0.8984  0.6270999999999999  0.2709  1.0000
  H   H172      1.0  0.8774  0.6645  0.2641  1.0000
  C   C257      1.0  0.88412  0.5793  0.3012  1.0000
  C   C258      1.0  0.9149999999999999  0.5247  0.3121000000000001  1.0000
  H   H173      1.0  0.9056  0.492  0.3332  1.0000
  C   C259      1.0  0.9605  0.5194  0.2910000000000001  1.0000
  H   H174      1.0  0.9817  0.4824  0.2981000000000001  1.0000
  O   O108      1.0  0.95815  0.6646  0.21850000000000006  1.0000
  H   H175      1.0  0.9405  0.7  0.21900000000000006  1.0000
  C   C260      1.0  0.83436  0.5869  0.32143  1.0000
  O   O109      1.0  0.8103800000000001  0.64167  0.31402  1.0000
  O   O110      1.0  0.8170799999999999  0.53866  0.3431700000000001  1.0000
  C   C261      1.0  0.527  0.7517  0.2557000000000001  1.0000
  C   C262      1.0  0.5578  0.8066999999999999  0.24560000000000004  1.0000
  C   C263      1.0  0.6066  0.8048  0.2566  1.0000
  H   H176      1.0  0.6264  0.8440999999999999  0.2512  1.0000
  C   C264      1.0  0.6279  0.7469  0.2755100000000001  1.0000
  C   C265      1.0  0.59697  0.6918  0.2853  1.0000
  H   H177      1.0  0.6101  0.6518  0.2986000000000001  1.0000
  C   C266      1.0  0.547  0.6948  0.2757700000000001  1.0000
  H   H178      1.0  0.5264  0.6572  0.2832  1.0000
  O   O111      1.0  0.54  0.8638  0.22440000000000004  1.0000
  H   H179      1.0  0.5247  0.8887999999999999  0.24170000000000005  1.0000
  C   C267      1.0  0.6818  0.7445  0.28497  1.0000
  O   O112      1.0  0.70282  0.80267  0.28796000000000005  1.0000
  O   O113      1.0  0.70287  0.68869  0.28839  1.0000
  O   O114      1.0  0.72521  0.47809  0.38504  1.0000
  C   C268      1.0  0.6873  0.4467999999999999  0.39373000000000014  1.0000
  H   H180      1.0  0.6728  0.41989999999999994  0.3717  1.0000
  N   N6        1.0  0.66502  0.4477999999999999  0.4315700000000001  1.0000
  C   C269      1.0  0.6849  0.489  0.4663  1.0000
  H   H181      1.0  0.6587999999999999  0.5173  0.4787000000000001  1.0000
  H   H182      1.0  0.6984  0.4587  0.4884000000000001  1.0000
  H   H183      1.0  0.7108  0.5189  0.4552000000000001  1.0000
  C   C270      1.0  0.6181  0.4103999999999999  0.4386  1.0000
  H   H184      1.0  0.6115  0.3804  0.4139000000000001  1.0000
  H   H185      1.0  0.6206000000000002  0.3824  0.4646000000000001  1.0000
  H   H186      1.0  0.5914  0.44359999999999994  0.4417000000000001  1.0000
  Sr  Sr19      1.0  0.21153  0.57998  0.67392  1.0000
  Sr  Sr20      1.0  0.29088  0.73428  0.6986900000000003  1.0000
  Sr  Sr21      1.0  0.22805  0.90045  0.6494800000000002  1.0000
  C   C271      1.0  0.3247  0.7576  0.9348100000000003  1.0000
  C   C272      1.0  0.3716  0.7492  0.9191000000000003  1.0000
  C   C273      1.0  0.3803  0.7445  0.8758800000000002  1.0000
  H   H187      1.0  0.413  0.7388999999999999  0.8661000000000002  1.0000
  C   C274      1.0  0.3431  0.7476  0.8461600000000002  1.0000
  C   C275      1.0  0.2957  0.7535  0.8611000000000002  1.0000
  H   H188      1.0  0.2692  0.7544  0.8414000000000003  1.0000
  C   C276      1.0  0.2866  0.7583  0.9043000000000002  1.0000
  H   H189      1.0  0.2537  0.7621  0.9140000000000003  1.0000
  O   O115      1.0  0.41126  0.7443  0.9458700000000002  1.0000
  H   H190      1.0  0.4147  0.7814  0.9594000000000001  1.0000
  C   C277      1.0  0.3536  0.7422  0.79877  1.0000
  O   O116      1.0  0.397  0.7324199999999998  0.78739  1.0000
  O   O117      1.0  0.31834  0.7482999999999999  0.7735000000000002  1.0000
  C   C278      1.0  0.3125  0.7648  0.9818300000000002  1.0000
  C   C279      1.0  0.3291  0.72  0.01323  1.0000
  C   C280      1.0  0.3127  0.7247  0.05477  1.0000
  H   H191      1.0  0.3235  0.6922999999999999  0.07550000000000001  1.0000
  C   C281      1.0  0.2803  0.7768  0.06669  1.0000
  C   C282      1.0  0.265  0.8235999999999999  0.03600000000000001  1.0000
  H   H192      1.0  0.24410000000000004  0.8604  0.04400000000000001  1.0000
  C   C283      1.0  0.2799  0.817  0.9943000000000002  1.0000
  H   H193      1.0  0.2679  0.8483  0.9734000000000003  1.0000
  O   O118      1.0  0.36201  0.6699  0.0014700000000000004  1.0000
  H   H194      1.0  0.3688  0.6454  0.022900000000000007  1.0000
  C   C284      1.0  0.2603  0.7775  0.11111000000000001  1.0000
  O   O119      1.0  0.25883  0.72236  0.13149000000000005  1.0000
  O   O120      1.0  0.24499  0.83321  0.12714  1.0000
  C   C285      1.0  0.42991  0.4951  0.80133  1.0000
  C   C286      1.0  0.4186  0.563  0.78904  1.0000
  C   C287      1.0  0.37924  0.5775  0.76278  1.0000
  H   H195      1.0  0.37340000000000007  0.6236  0.7541000000000002  1.0000
  C   C288      1.0  0.34786  0.5254  0.7488400000000002  1.0000
  C   C289      1.0  0.3576  0.45819999999999994  0.7618200000000003  1.0000
  H   H196      1.0  0.3362  0.42219999999999996  0.7532  1.0000
  C   C290      1.0  0.3976  0.4433  0.78706  1.0000
  H   H197      1.0  0.4036  0.3969  0.7951000000000003  1.0000
  O   O121      1.0  0.44862  0.6143  0.8034500000000002  1.0000
  H   H198      1.0  0.4369  0.6526  0.7965000000000002  1.0000
  C   C291      1.0  0.3049  0.542  0.7211400000000002  1.0000
  O   O122      1.0  0.29504  0.60458  0.7130900000000002  1.0000
  O   O123      1.0  0.27961  0.49299  0.7063300000000002  1.0000
  C   C292      1.0  0.47403  0.4772  0.8273300000000002  1.0000
  C   C293      1.0  0.46947  0.436  0.8641300000000002  1.0000
  C   C294      1.0  0.51179  0.4153  0.8865300000000003  1.0000
  H   H199      1.0  0.5083  0.3876  0.9115000000000002  1.0000
  C   C295      1.0  0.55813  0.43409999999999993  0.8732100000000003  1.0000
  C   C296      1.0  0.56261  0.4745  0.8366900000000003  1.0000
  H   H200      1.0  0.5941  0.4874  0.8267  1.0000
  C   C297      1.0  0.5208  0.4961999999999999  0.8146700000000002  1.0000
  H   H201      1.0  0.5245  0.5249  0.7902000000000002  1.0000
  O   O124      1.0  0.4239  0.41639999999999994  0.87845  1.0000
  H   H202      1.0  0.4023  0.4323  0.8620000000000002  1.0000
  C   C298      1.0  0.60268  0.4091  0.8977800000000002  1.0000
  O   O125      1.0  0.64323  0.40636  0.8786800000000002  1.0000
  O   O126      1.0  0.5951500000000001  0.3912  0.9359800000000003  1.0000
  C   C299      1.0  0.4753  0.9328  0.74  1.0000
  C   C300      1.0  0.4438  0.8793999999999998  0.7499000000000002  1.0000
  C   C301      1.0  0.3984  0.8729  0.7291  1.0000
  H   H203      1.0  0.3774  0.8355  0.7359000000000002  1.0000
  C   C302      1.0  0.38412  0.9207  0.6988  1.0000
  C   C303      1.0  0.415  0.9753  0.6879000000000002  1.0000
  H   H204      1.0  0.4056  0.008  0.6668  1.0000
  C   C304      1.0  0.4605  0.9806  0.709  1.0000
  H   H205      1.0  0.4817  0.0176  0.7019000000000002  1.0000
  O   O127      1.0  0.45815  0.8354  0.7815000000000002  1.0000
  H   H206      1.0  0.4405  0.8  0.7810000000000001  1.0000
  C   C305      1.0  0.33436000000000005  0.9131  0.67857  1.0000
  O   O128      1.0  0.31038  0.85833  0.6859800000000003  1.0000
  O   O129      1.0  0.31708  0.96134  0.6568300000000002  1.0000
  C   C306      1.0  0.027  0.7482999999999999  0.7443000000000002  1.0000
  C   C307      1.0  0.0578  0.6933  0.7544000000000002  1.0000
  C   C308      1.0  0.1066  0.6951999999999999  0.7434  1.0000
  H   H207      1.0  0.1264  0.6559  0.7488000000000002  1.0000
  C   C309      1.0  0.1279  0.7531  0.7244900000000002  1.0000
  C   C310      1.0  0.09697  0.8082  0.7147000000000002  1.0000
  H   H208      1.0  0.1101  0.8481999999999998  0.7014000000000002  1.0000
  C   C311      1.0  0.047  0.8052  0.7242300000000003  1.0000
  H   H209      1.0  0.0264  0.8427999999999999  0.7168000000000002  1.0000
  O   O130      1.0  0.04  0.6362  0.7756000000000002  1.0000
  H   H210      1.0  0.0247  0.6112  0.7583000000000002  1.0000
  C   C312      1.0  0.1818  0.7555  0.7150300000000003  1.0000
  O   O131      1.0  0.20281999999999997  0.69733  0.71204  1.0000
  O   O132      1.0  0.20287  0.81131  0.71161  1.0000
  O   O133      1.0  0.22521  0.02191  0.61496  1.0000
  C   C313      1.0  0.1873  0.05319999999999999  0.6062700000000002  1.0000
  H   H211      1.0  0.1728  0.0801  0.6283000000000002  1.0000
  N   N7        1.0  0.16502  0.052199999999999996  0.5684300000000002  1.0000
  C   C314      1.0  0.1849  0.011  0.5337  1.0000
  H   H212      1.0  0.1588  0.9827  0.5213000000000002  1.0000
  H   H213      1.0  0.1984  0.0413  0.5116  1.0000
  H   H214      1.0  0.2108  0.9811  0.5448  1.0000
  C   C315      1.0  0.1181  0.0896  0.5614000000000002  1.0000
  H   H215      1.0  0.11149999999999999  0.1196  0.5861000000000002  1.0000
  H   H216      1.0  0.12060000000000001  0.1176  0.5354  1.0000
  H   H217      1.0  0.09139999999999998  0.0564  0.5583000000000002  1.0000
  Sr  Sr22      1.0  0.28847  0.9200199999999998  0.17392000000000005  1.0000
  Sr  Sr23      1.0  0.20912  0.76572  0.19869000000000006  1.0000
  Sr  Sr24      1.0  0.27195  0.59955  0.14948  1.0000
  C   C316      1.0  0.1753  0.7424  0.4348100000000001  1.0000
  C   C317      1.0  0.1284  0.7508  0.4191  1.0000
  C   C318      1.0  0.1197  0.7555  0.3758800000000001  1.0000
  H   H218      1.0  0.087  0.7611  0.3661000000000001  1.0000
  C   C319      1.0  0.1569  0.7524  0.34616  1.0000
  C   C320      1.0  0.2043  0.7464999999999999  0.3611  1.0000
  H   H219      1.0  0.2308  0.7456  0.3414  1.0000
  C   C321      1.0  0.2134  0.7417  0.4043  1.0000
  H   H220      1.0  0.2463  0.7379  0.4140000000000001  1.0000
  O   O134      1.0  0.08874  0.7556999999999999  0.44587000000000004  1.0000
  H   H221      1.0  0.0853  0.7186  0.4594000000000001  1.0000
  C   C322      1.0  0.1464  0.7578  0.2987700000000001  1.0000
  O   O135      1.0  0.103  0.76758  0.2873900000000001  1.0000
  O   O136      1.0  0.18166  0.7517  0.2735  1.0000
  C   C323      1.0  0.1875  0.7351999999999999  0.48183000000000004  1.0000
  C   C324      1.0  0.17090000000000002  0.7799999999999999  0.51323  1.0000
  C   C325      1.0  0.1873  0.7752999999999999  0.5547700000000002  1.0000
  H   H222      1.0  0.1765  0.8077  0.5755  1.0000
  C   C326      1.0  0.21970000000000003  0.7232  0.5666900000000002  1.0000
  C   C327      1.0  0.235  0.6764  0.5360000000000003  1.0000
  H   H223      1.0  0.2559  0.6396  0.5440000000000003  1.0000
  C   C328      1.0  0.22010000000000002  0.683  0.49430000000000013  1.0000
  H   H224      1.0  0.23210000000000003  0.6516999999999998  0.4734000000000001  1.0000
  O   O137      1.0  0.13799  0.8301  0.50147  1.0000
  H   H225      1.0  0.1312  0.8546  0.5229  1.0000
  C   C329      1.0  0.23969999999999997  0.7225  0.6111100000000003  1.0000
  O   O138      1.0  0.24117  0.77764  0.6314900000000002  1.0000
  O   O139      1.0  0.25501  0.66679  0.6271400000000003  1.0000
  C   C330      1.0  0.07009  0.0049  0.3013300000000001  1.0000
  C   C331      1.0  0.08140000000000001  0.9369999999999999  0.2890400000000001  1.0000
  C   C332      1.0  0.12076  0.9225  0.2627800000000001  1.0000
  H   H226      1.0  0.1266  0.8764  0.2541000000000001  1.0000
  C   C333      1.0  0.15214  0.9746  0.24884000000000003  1.0000
  C   C334      1.0  0.1424  0.0418  0.2618200000000001  1.0000
  H   H227      1.0  0.1638  0.07779999999999998  0.2532  1.0000
  C   C335      1.0  0.1024  0.05669999999999999  0.2870600000000001  1.0000
  H   H228      1.0  0.0964  0.1031  0.2951  1.0000
  O   O140      1.0  0.05138  0.8857  0.30345  1.0000
  H   H229      1.0  0.0631  0.8474  0.2965  1.0000
  C   C336      1.0  0.1951  0.9579999999999999  0.22114000000000003  1.0000
  O   O141      1.0  0.20496  0.8954199999999999  0.21309000000000006  1.0000
  O   O142      1.0  0.22039  0.007009999999999999  0.20633000000000007  1.0000
  C   C337      1.0  0.02597  0.0228  0.32733  1.0000
  C   C338      1.0  0.03053  0.064  0.3641300000000001  1.0000
  C   C339      1.0  0.98821  0.0847  0.38653000000000004  1.0000
  H   H230      1.0  0.9917  0.1124  0.4115000000000001  1.0000
  C   C340      1.0  0.94187  0.0659  0.3732100000000001  1.0000
  C   C341      1.0  0.93739  0.0255  0.3366900000000001  1.0000
  H   H231      1.0  0.9059  0.0126  0.3267000000000001  1.0000
  C   C342      1.0  0.9792  0.0037999999999999996  0.3146700000000001  1.0000
  H   H232      1.0  0.9755  0.9751  0.2902  1.0000
  O   O143      1.0  0.0761  0.0836  0.3784500000000001  1.0000
  H   H233      1.0  0.0977  0.0677  0.3620000000000001  1.0000
  C   C343      1.0  0.89732  0.0909  0.39778000000000013  1.0000
  O   O144      1.0  0.8567700000000001  0.09364  0.3786800000000001  1.0000
  O   O145      1.0  0.90485  0.1088  0.4359800000000001  1.0000
  C   C344      1.0  0.0247  0.5671999999999999  0.24000000000000005  1.0000
  C   C345      1.0  0.0562  0.6205999999999999  0.24990000000000007  1.0000
  C   C346      1.0  0.1016  0.6270999999999999  0.22910000000000005  1.0000
  H   H234      1.0  0.1226  0.6645  0.23590000000000005  1.0000
  C   C347      1.0  0.11587999999999998  0.5793  0.19880000000000006  1.0000
  C   C348      1.0  0.08500000000000002  0.5247  0.18790000000000007  1.0000
  H   H235      1.0  0.0944  0.492  0.16680000000000006  1.0000
  C   C349      1.0  0.03950000000000001  0.5194  0.20900000000000005  1.0000
  H   H236      1.0  0.0183  0.4824  0.20190000000000005  1.0000
  O   O146      1.0  0.04185  0.6646  0.2815  1.0000
  H   H237      1.0  0.0595  0.7  0.281  1.0000
  C   C350      1.0  0.16564  0.5869  0.17857000000000006  1.0000
  O   O147      1.0  0.18962  0.64167  0.18598  1.0000
  O   O148      1.0  0.18292  0.53866  0.15683000000000005  1.0000
  C   C351      1.0  0.473  0.7517  0.2443  1.0000
  C   C352      1.0  0.44220000000000004  0.8066999999999999  0.2544  1.0000
  C   C353      1.0  0.3934  0.8048  0.24340000000000006  1.0000
  H   H238      1.0  0.3736  0.8440999999999999  0.24880000000000005  1.0000
  C   C354      1.0  0.3721  0.7469  0.22449000000000005  1.0000
  C   C355      1.0  0.40302999999999994  0.6918  0.21470000000000006  1.0000
  H   H239      1.0  0.3899  0.6518  0.20140000000000005  1.0000
  C   C356      1.0  0.453  0.6948  0.22423000000000007  1.0000
  H   H240      1.0  0.4736  0.6572  0.21680000000000005  1.0000
  O   O149      1.0  0.46  0.8638  0.2756  1.0000
  H   H241      1.0  0.4753  0.8887999999999999  0.2583  1.0000
  C   C357      1.0  0.3182  0.7445  0.21503000000000005  1.0000
  O   O150      1.0  0.29718  0.80267  0.21204000000000006  1.0000
  O   O151      1.0  0.29713  0.68869  0.21161000000000002  1.0000
  O   O152      1.0  0.27479  0.47809  0.11496000000000003  1.0000
  C   C358      1.0  0.3127  0.4467999999999999  0.10627000000000003  1.0000
  H   H242      1.0  0.3272  0.41989999999999994  0.1283  1.0000
  N   N8        1.0  0.33498  0.4477999999999999  0.06843000000000003  1.0000
  C   C359      1.0  0.3151  0.489  0.0337  1.0000
  H   H243      1.0  0.3412  0.5173  0.021300000000000006  1.0000
  H   H244      1.0  0.30160000000000003  0.4587  0.0116  1.0000
  H   H245      1.0  0.2892  0.5189  0.04480000000000001  1.0000
  C   C360      1.0  0.3819  0.4103999999999999  0.06140000000000001  1.0000
  H   H246      1.0  0.3885  0.3804  0.08610000000000002  1.0000
  H   H247      1.0  0.3794  0.3824  0.0354  1.0000
  H   H248      1.0  0.4086  0.44359999999999994  0.05830000000000001  1.0000
