data_image0
_chemical_formula_structural       TbC7HC14O6Cl12CTbC7HC14O6Cl12CTbC7HC14O6Cl12CTbC7HC14O6Cl12CTbC7HC14O6Cl12CTbC7HC14O6Cl12CTbC7HC14O6Cl12CTbC7HC14O6Cl12CTbC7HC14O6Cl12CTbC7HC14O6Cl12CTbC7HC14O6Cl12CTbC7HC14O6Cl12CTbC7HC14O6Cl12CTbC7HC14O6Cl12CTbC7HC14O6Cl12CTbC7HC14O6Cl12C
_chemical_formula_sum              "Tb16 C352 H16 O96 Cl192"
_cell_length_a       28.486
_cell_length_b       28.486
_cell_length_c       46.678
_cell_angle_alpha    90.0
_cell_angle_beta     90.0
_cell_angle_gamma    90.0

_symmetry_space_group_name_H-M    'P 1'
_symmetry_Int_Tables_number       1

loop_
  _symmetry_equiv_pos_as_xyz
  'x,y,z'

loop_
  _atom_site_type_symbol
  _atom_site_label
  _atom_site_symmetry_multiplicity
  _atom_site_fract_x
  _atom_site_fract_y
  _atom_site_fract_z
  _atom_site_occupancy
  Tb  Tb1       1.0  0.79547  0.16387  0.25416  1.0000
  C   C1        1.0  0.6781000000000003  0.09340000000000002  0.302  1.0000
  C   C2        1.0  0.6425  0.0684  0.2881  1.0000
  C   C3        1.0  0.6  0.061  0.3007  1.0000
  C   C4        1.0  0.5903  0.0758  0.3281  1.0000
  C   C5        1.0  0.6269  0.0969  0.3424  1.0000
  C   C6        1.0  0.6709000000000003  0.1051  0.3298  1.0000
  C   C7        1.0  0.5424  0.0697  0.3405  1.0000
  H   H1        1.0  0.5392  0.0378  0.333  1.0000
  C   C8        1.0  0.3732000000000001  0.1365  0.2789  1.0000
  C   C9        1.0  0.4177  0.11880000000000003  0.2957  1.0000
  C   C10       1.0  0.4198000000000001  0.0749  0.3074  1.0000
  C   C11       1.0  0.4600000000000001  0.06000000000000001  0.3218  1.0000
  C   C12       1.0  0.5004  0.08710000000000001  0.32483  1.0000
  C   C13       1.0  0.49860000000000004  0.1318  0.3121  1.0000
  C   C14       1.0  0.4579  0.1472  0.2976  1.0000
  C   C15       1.0  0.5051  0.0041  0.4565  1.0000
  C   C16       1.0  0.515  0.0214  0.427  1.0000
  C   C17       1.0  0.5006  0.0644  0.4180000000000001  1.0000
  C   C18       1.0  0.5111  0.0812  0.39080000000000004  1.0000
  C   C19       1.0  0.5353  0.0546  0.371  1.0000
  C   C20       1.0  0.5511  0.011500000000000003  0.38  1.0000
  C   C21       1.0  0.54  0.995  0.4084  1.0000
  O   O1        1.0  0.7281000000000001  0.1295  0.2742  1.0000
  O   O2        1.0  0.7493  0.0811  0.2962  1.0000
  O   O3        1.0  0.3476  0.1641  0.29144  1.0000
  O   O4        1.0  0.3658  0.1215  0.2555  1.0000
  O   O5        1.0  0.4662  0.9843000000000001  0.45928  1.0000
  O   O6        1.0  0.5354  0.009  0.4757  1.0000
  Cl  Cl1       1.0  0.65424  0.04925  0.25341  1.0000
  Cl  Cl2       1.0  0.55925  0.03083  0.28092  1.0000
  Cl  Cl3       1.0  0.6193700000000002  0.11727  0.37772  1.0000
  Cl  Cl4       1.0  0.7143000000000003  0.13292  0.34901  1.0000
  Cl  Cl5       1.0  0.3710700000000001  0.03974  0.30546  1.0000
  Cl  Cl6       1.0  0.45896  0.003130000000000001  0.33537  1.0000
  Cl  Cl7       1.0  0.54419  0.16999  0.31439  1.0000
  Cl  Cl8       1.0  0.45628  0.20219  0.28251  1.0000
  Cl  Cl9       1.0  0.46993  0.09915  0.44179  1.0000
  Cl  Cl10      1.0  0.49451  0.13807  0.38254  1.0000
  Cl  Cl11      1.0  0.58138  0.9740300000000001  0.35717  1.0000
  Cl  Cl12      1.0  0.55979  0.93952  0.41843  1.0000
  C   C22       1.0  0.7143000000000003  0.1033  0.289  1.0000
  Tb  Tb2       1.0  0.29547  0.66387  0.75416  1.0000
  C   C23       1.0  0.1781  0.5934  0.802  1.0000
  C   C24       1.0  0.1425  0.5684  0.7881  1.0000
  C   C25       1.0  0.1  0.561  0.8007000000000002  1.0000
  C   C26       1.0  0.09030000000000002  0.5758  0.8281000000000001  1.0000
  C   C27       1.0  0.1269  0.5969  0.8424  1.0000
  C   C28       1.0  0.1709  0.6051000000000002  0.8298  1.0000
  C   C29       1.0  0.0424  0.5697  0.8405  1.0000
  H   H2        1.0  0.0392  0.5378  0.8330000000000001  1.0000
  C   C30       1.0  0.8732  0.6365000000000001  0.7789  1.0000
  C   C31       1.0  0.9177000000000001  0.6188000000000001  0.7957000000000001  1.0000
  C   C32       1.0  0.9198  0.5749  0.8074  1.0000
  C   C33       1.0  0.9600000000000002  0.56  0.8218  1.0000
  C   C34       1.0  0.0004  0.5871  0.82483  1.0000
  C   C35       1.0  0.9986000000000003  0.6318  0.8121  1.0000
  C   C36       1.0  0.9579  0.6472  0.7976  1.0000
  C   C37       1.0  0.0051  0.5041  0.9565  1.0000
  C   C38       1.0  0.015000000000000003  0.5214  0.927  1.0000
  C   C39       1.0  0.0006  0.5644  0.918  1.0000
  C   C40       1.0  0.011100000000000002  0.5812  0.8908  1.0000
  C   C41       1.0  0.0353  0.5546  0.871  1.0000
  C   C42       1.0  0.0511  0.5115  0.88  1.0000
  C   C43       1.0  0.04  0.495  0.9084  1.0000
  O   O7        1.0  0.2281  0.6295  0.7742  1.0000
  O   O8        1.0  0.24930000000000002  0.5811000000000001  0.7962  1.0000
  O   O9        1.0  0.8476000000000002  0.6641  0.79144  1.0000
  O   O10       1.0  0.8658  0.6215  0.7555000000000001  1.0000
  O   O11       1.0  0.9662  0.4843  0.95928  1.0000
  O   O12       1.0  0.0354  0.509  0.9757  1.0000
  Cl  Cl13      1.0  0.15424  0.54925  0.7534100000000001  1.0000
  Cl  Cl14      1.0  0.05925000000000001  0.53083  0.7809200000000001  1.0000
  Cl  Cl15      1.0  0.11937  0.61727  0.8777200000000001  1.0000
  Cl  Cl16      1.0  0.2143  0.63292  0.8490100000000003  1.0000
  Cl  Cl17      1.0  0.87107  0.53974  0.8054600000000001  1.0000
  Cl  Cl18      1.0  0.95896  0.50313  0.83537  1.0000
  Cl  Cl19      1.0  0.04419  0.66999  0.81439  1.0000
  Cl  Cl20      1.0  0.9562800000000002  0.70219  0.7825100000000001  1.0000
  Cl  Cl21      1.0  0.9699300000000002  0.59915  0.9417900000000001  1.0000
  Cl  Cl22      1.0  0.99451  0.63807  0.88254  1.0000
  Cl  Cl23      1.0  0.08138  0.47403  0.85717  1.0000
  Cl  Cl24      1.0  0.05979000000000001  0.43952  0.91843  1.0000
  C   C44       1.0  0.2143  0.6033  0.789  1.0000
  Tb  Tb3       1.0  0.70453  0.83613  0.75416  1.0000
  C   C45       1.0  0.8219000000000002  0.9066  0.802  1.0000
  C   C46       1.0  0.8575  0.9316  0.7881  1.0000
  C   C47       1.0  0.9  0.939  0.8007000000000002  1.0000
  C   C48       1.0  0.9097  0.9242  0.8281000000000001  1.0000
  C   C49       1.0  0.8731  0.9031000000000002  0.8424  1.0000
  C   C50       1.0  0.8291  0.8949000000000003  0.8298  1.0000
  C   C51       1.0  0.9576000000000002  0.9303000000000002  0.8405  1.0000
  H   H3        1.0  0.9608000000000002  0.9622  0.8330000000000001  1.0000
  C   C52       1.0  0.1268  0.8635  0.7789  1.0000
  C   C53       1.0  0.0823  0.8812  0.7957000000000001  1.0000
  C   C54       1.0  0.0802  0.9251  0.8074  1.0000
  C   C55       1.0  0.04  0.9400000000000002  0.8218  1.0000
  C   C56       1.0  0.9996  0.9129  0.82483  1.0000
  C   C57       1.0  0.0014000000000000002  0.8682  0.8121  1.0000
  C   C58       1.0  0.0421  0.8528  0.7976  1.0000
  C   C59       1.0  0.9949  0.9959  0.9565  1.0000
  C   C60       1.0  0.9850000000000002  0.9786000000000002  0.927  1.0000
  C   C61       1.0  0.9994000000000002  0.9356  0.918  1.0000
  C   C62       1.0  0.9889000000000002  0.9188  0.8908  1.0000
  C   C63       1.0  0.9647  0.9454  0.871  1.0000
  C   C64       1.0  0.9489000000000002  0.9885  0.88  1.0000
  C   C65       1.0  0.9600000000000002  0.005  0.9084  1.0000
  O   O13       1.0  0.7719  0.8705  0.7742  1.0000
  O   O14       1.0  0.7507  0.9189  0.7962  1.0000
  O   O15       1.0  0.1524  0.8359  0.79144  1.0000
  O   O16       1.0  0.1342  0.8785  0.7555000000000001  1.0000
  O   O17       1.0  0.0338  0.0157  0.95928  1.0000
  O   O18       1.0  0.9646  0.991  0.9757  1.0000
  Cl  Cl25      1.0  0.84576  0.95075  0.7534100000000001  1.0000
  Cl  Cl26      1.0  0.9407500000000002  0.96917  0.7809200000000001  1.0000
  Cl  Cl27      1.0  0.8806300000000002  0.88273  0.8777200000000001  1.0000
  Cl  Cl28      1.0  0.7857  0.8670800000000002  0.8490100000000003  1.0000
  Cl  Cl29      1.0  0.12893  0.96026  0.8054600000000001  1.0000
  Cl  Cl30      1.0  0.04104  0.9968700000000003  0.83537  1.0000
  Cl  Cl31      1.0  0.95581  0.83001  0.81439  1.0000
  Cl  Cl32      1.0  0.04372  0.79781  0.7825100000000001  1.0000
  Cl  Cl33      1.0  0.030070000000000006  0.90085  0.9417900000000001  1.0000
  Cl  Cl34      1.0  0.00549  0.86193  0.88254  1.0000
  Cl  Cl35      1.0  0.91862  0.02597  0.85717  1.0000
  Cl  Cl36      1.0  0.94021  0.06048  0.91843  1.0000
  C   C66       1.0  0.7857  0.8967000000000002  0.789  1.0000
  Tb  Tb4       1.0  0.20453  0.33613  0.25416  1.0000
  C   C67       1.0  0.3219  0.4066000000000001  0.302  1.0000
  C   C68       1.0  0.3575  0.4316  0.2881  1.0000
  C   C69       1.0  0.4  0.439  0.3007  1.0000
  C   C70       1.0  0.4097  0.42420000000000013  0.3281  1.0000
  C   C71       1.0  0.3731  0.4031  0.3424  1.0000
  C   C72       1.0  0.32910000000000006  0.3949000000000001  0.3298  1.0000
  C   C73       1.0  0.45760000000000006  0.43030000000000007  0.3405  1.0000
  H   H4        1.0  0.4608000000000001  0.4622  0.333  1.0000
  C   C74       1.0  0.6268000000000002  0.3635  0.2789  1.0000
  C   C75       1.0  0.5823  0.3812  0.2957  1.0000
  C   C76       1.0  0.5802000000000002  0.42510000000000003  0.3074  1.0000
  C   C77       1.0  0.54  0.44  0.3218  1.0000
  C   C78       1.0  0.4996  0.4129  0.32483  1.0000
  C   C79       1.0  0.5014  0.3682  0.3121  1.0000
  C   C80       1.0  0.5421  0.35280000000000006  0.2976  1.0000
  C   C81       1.0  0.4949000000000001  0.4959  0.4565  1.0000
  C   C82       1.0  0.485  0.4786  0.427  1.0000
  C   C83       1.0  0.4994  0.4356  0.4180000000000001  1.0000
  C   C84       1.0  0.4889000000000001  0.4188  0.39080000000000004  1.0000
  C   C85       1.0  0.4647  0.4454  0.371  1.0000
  C   C86       1.0  0.4489  0.4885000000000001  0.38  1.0000
  C   C87       1.0  0.4600000000000001  0.505  0.4084  1.0000
  O   O19       1.0  0.2719  0.3705  0.2742  1.0000
  O   O20       1.0  0.2507  0.4189  0.2962  1.0000
  O   O21       1.0  0.6524  0.3359000000000001  0.29144  1.0000
  O   O22       1.0  0.6342  0.37850000000000006  0.2555  1.0000
  O   O23       1.0  0.5338  0.5157  0.45928  1.0000
  O   O24       1.0  0.4646  0.491  0.4757  1.0000
  Cl  Cl37      1.0  0.34576  0.4507500000000001  0.25341  1.0000
  Cl  Cl38      1.0  0.44075000000000003  0.46917  0.28092  1.0000
  Cl  Cl39      1.0  0.3806300000000001  0.38273  0.37772  1.0000
  Cl  Cl40      1.0  0.28570000000000007  0.36708  0.34901  1.0000
  Cl  Cl41      1.0  0.62893  0.4602600000000001  0.30546  1.0000
  Cl  Cl42      1.0  0.54104  0.49687  0.33537  1.0000
  Cl  Cl43      1.0  0.45581  0.33001  0.31439  1.0000
  Cl  Cl44      1.0  0.54372  0.29781  0.28251  1.0000
  Cl  Cl45      1.0  0.53007  0.40085  0.44179  1.0000
  Cl  Cl46      1.0  0.50549  0.36193  0.38254  1.0000
  Cl  Cl47      1.0  0.41862  0.52597  0.35717  1.0000
  Cl  Cl48      1.0  0.4402100000000001  0.56048  0.41843  1.0000
  C   C88       1.0  0.28570000000000007  0.3967  0.289  1.0000
  Tb  Tb5       1.0  0.58613  0.04547  0.50416  1.0000
  C   C89       1.0  0.6566000000000001  0.9281  0.552  1.0000
  C   C90       1.0  0.6816  0.8925  0.5381  1.0000
  C   C91       1.0  0.689  0.8500000000000002  0.5507  1.0000
  C   C92       1.0  0.6742000000000001  0.8403000000000003  0.5781  1.0000
  C   C93       1.0  0.6531  0.8769  0.5924  1.0000
  C   C94       1.0  0.6449  0.9209  0.5798  1.0000
  C   C95       1.0  0.6803  0.7924  0.5905  1.0000
  H   H5        1.0  0.7122  0.7892  0.583  1.0000
  C   C96       1.0  0.6135  0.6232  0.5289  1.0000
  C   C97       1.0  0.6312  0.6677000000000002  0.5457  1.0000
  C   C98       1.0  0.6751  0.6698  0.5574  1.0000
  C   C99       1.0  0.69  0.71  0.5718  1.0000
  C   C100      1.0  0.6629000000000003  0.7504  0.57483  1.0000
  C   C101      1.0  0.6182  0.7486  0.5621  1.0000
  C   C102      1.0  0.6028000000000001  0.7079000000000002  0.5476  1.0000
  C   C103      1.0  0.7459  0.7551  0.7065  1.0000
  C   C104      1.0  0.7286  0.7650000000000001  0.677  1.0000
  C   C105      1.0  0.6856  0.7506  0.6680000000000001  1.0000
  C   C106      1.0  0.6688  0.7611  0.6408  1.0000
  C   C107      1.0  0.6954  0.7853  0.621  1.0000
  C   C108      1.0  0.7385000000000002  0.8011000000000001  0.63  1.0000
  C   C109      1.0  0.755  0.79  0.6584  1.0000
  O   O25       1.0  0.6205  0.9781  0.5242  1.0000
  O   O26       1.0  0.6689  0.9993  0.5462  1.0000
  O   O27       1.0  0.5859000000000001  0.5976  0.54144  1.0000
  O   O28       1.0  0.6285000000000001  0.6158  0.5055  1.0000
  O   O29       1.0  0.7657000000000003  0.7162  0.70928  1.0000
  O   O30       1.0  0.741  0.7854  0.7257  1.0000
  Cl  Cl49      1.0  0.7007500000000001  0.9042400000000003  0.50341  1.0000
  Cl  Cl50      1.0  0.71917  0.80925  0.53092  1.0000
  Cl  Cl51      1.0  0.63273  0.86937  0.62772  1.0000
  Cl  Cl52      1.0  0.61708  0.9643  0.59901  1.0000
  Cl  Cl53      1.0  0.71026  0.6210700000000001  0.55546  1.0000
  Cl  Cl54      1.0  0.74687  0.7089600000000003  0.58537  1.0000
  Cl  Cl55      1.0  0.58001  0.79419  0.56439  1.0000
  Cl  Cl56      1.0  0.54781  0.70628  0.53251  1.0000
  Cl  Cl57      1.0  0.6508500000000003  0.71993  0.6917900000000001  1.0000
  Cl  Cl58      1.0  0.61193  0.74451  0.63254  1.0000
  Cl  Cl59      1.0  0.7759700000000003  0.83138  0.60717  1.0000
  Cl  Cl60      1.0  0.81048  0.80979  0.66843  1.0000
  C   C110      1.0  0.6467  0.9643  0.539  1.0000
  Tb  Tb6       1.0  0.08613000000000003  0.54547  0.00416  1.0000
  C   C111      1.0  0.1566  0.4281  0.052000000000000005  1.0000
  C   C112      1.0  0.18160000000000004  0.3925000000000001  0.0381  1.0000
  C   C113      1.0  0.18900000000000006  0.35000000000000003  0.0507  1.0000
  C   C114      1.0  0.17420000000000002  0.3403000000000001  0.0781  1.0000
  C   C115      1.0  0.15310000000000004  0.3769  0.0924  1.0000
  C   C116      1.0  0.1449  0.4209  0.0798  1.0000
  C   C117      1.0  0.1803  0.2924  0.0905  1.0000
  H   H6        1.0  0.2122  0.2892  0.083  1.0000
  C   C118      1.0  0.11350000000000002  0.1232  0.028900000000000002  1.0000
  C   C119      1.0  0.1312  0.1677  0.045700000000000005  1.0000
  C   C120      1.0  0.1751  0.1698  0.0574  1.0000
  C   C121      1.0  0.19  0.21  0.0718  1.0000
  C   C122      1.0  0.1629  0.2504  0.07483  1.0000
  C   C123      1.0  0.11820000000000003  0.2486  0.0621  1.0000
  C   C124      1.0  0.1028  0.20790000000000006  0.0476  1.0000
  C   C125      1.0  0.2459  0.2551  0.20650000000000002  1.0000
  C   C126      1.0  0.22860000000000003  0.265  0.17700000000000002  1.0000
  C   C127      1.0  0.18560000000000004  0.2506  0.168  1.0000
  C   C128      1.0  0.1688  0.2611  0.1408  1.0000
  C   C129      1.0  0.1954  0.28530000000000005  0.12100000000000002  1.0000
  C   C130      1.0  0.2385  0.3011  0.13  1.0000
  C   C131      1.0  0.255  0.29  0.1584  1.0000
  O   O31       1.0  0.1205  0.4781  0.0242  1.0000
  O   O32       1.0  0.1689  0.49930000000000013  0.0462  1.0000
  O   O33       1.0  0.0859  0.0976  0.041440000000000005  1.0000
  O   O34       1.0  0.1285  0.11580000000000003  0.0055000000000000005  1.0000
  O   O35       1.0  0.2657  0.2162  0.20928  1.0000
  O   O36       1.0  0.241  0.2854  0.2257  1.0000
  Cl  Cl61      1.0  0.20075  0.4042400000000001  0.0034100000000000003  1.0000
  Cl  Cl62      1.0  0.21917000000000006  0.30925  0.03092  1.0000
  Cl  Cl63      1.0  0.13273  0.36937  0.12772  1.0000
  Cl  Cl64      1.0  0.11708  0.4643  0.09901  1.0000
  Cl  Cl65      1.0  0.21026  0.12107000000000001  0.05546  1.0000
  Cl  Cl66      1.0  0.24687000000000006  0.20896  0.08537  1.0000
  Cl  Cl67      1.0  0.08001  0.2941900000000001  0.06439  1.0000
  Cl  Cl68      1.0  0.04781  0.20628000000000002  0.03251  1.0000
  Cl  Cl69      1.0  0.15085000000000007  0.21993000000000001  0.19179000000000002  1.0000
  Cl  Cl70      1.0  0.11193000000000003  0.24451  0.13254  1.0000
  Cl  Cl71      1.0  0.27597  0.33138  0.10717  1.0000
  Cl  Cl72      1.0  0.31048  0.30979  0.16843  1.0000
  C   C132      1.0  0.1467  0.4643  0.039  1.0000
  Tb  Tb7       1.0  0.91387  0.9545300000000002  0.00416  1.0000
  C   C133      1.0  0.8434  0.0719  0.052000000000000005  1.0000
  C   C134      1.0  0.8184  0.1075  0.0381  1.0000
  C   C135      1.0  0.811  0.15  0.0507  1.0000
  C   C136      1.0  0.8258  0.15970000000000006  0.0781  1.0000
  C   C137      1.0  0.8469000000000002  0.1231  0.0924  1.0000
  C   C138      1.0  0.8551  0.0791  0.0798  1.0000
  C   C139      1.0  0.8197  0.2076  0.0905  1.0000
  H   H7        1.0  0.7878  0.2108  0.083  1.0000
  C   C140      1.0  0.8865  0.37680000000000013  0.028900000000000002  1.0000
  C   C141      1.0  0.8688  0.33230000000000004  0.045700000000000005  1.0000
  C   C142      1.0  0.8249  0.3302  0.0574  1.0000
  C   C143      1.0  0.81  0.29  0.0718  1.0000
  C   C144      1.0  0.8371  0.2496  0.07483  1.0000
  C   C145      1.0  0.8818  0.2514  0.0621  1.0000
  C   C146      1.0  0.8972  0.29210000000000014  0.0476  1.0000
  C   C147      1.0  0.7541  0.2449  0.20650000000000002  1.0000
  C   C148      1.0  0.7714000000000002  0.23500000000000004  0.17700000000000002  1.0000
  C   C149      1.0  0.8144  0.2494  0.168  1.0000
  C   C150      1.0  0.8312  0.2389  0.1408  1.0000
  C   C151      1.0  0.8046  0.21470000000000006  0.12100000000000002  1.0000
  C   C152      1.0  0.7615  0.19890000000000002  0.13  1.0000
  C   C153      1.0  0.745  0.21  0.1584  1.0000
  O   O37       1.0  0.8795  0.021900000000000003  0.0242  1.0000
  O   O38       1.0  0.8311  0.0007000000000000001  0.0462  1.0000
  O   O39       1.0  0.9141  0.4024  0.041440000000000005  1.0000
  O   O40       1.0  0.8715  0.3842  0.0055000000000000005  1.0000
  O   O41       1.0  0.7343  0.2838  0.20928  1.0000
  O   O42       1.0  0.759  0.2146  0.2257  1.0000
  Cl  Cl73      1.0  0.79925  0.09576  0.0034100000000000003  1.0000
  Cl  Cl74      1.0  0.78083  0.19075  0.03092  1.0000
  Cl  Cl75      1.0  0.86727  0.13063  0.12772  1.0000
  Cl  Cl76      1.0  0.8829200000000001  0.0357  0.09901  1.0000
  Cl  Cl77      1.0  0.78974  0.37893  0.05546  1.0000
  Cl  Cl78      1.0  0.7531300000000001  0.29104  0.08537  1.0000
  Cl  Cl79      1.0  0.91999  0.20581000000000005  0.06439  1.0000
  Cl  Cl80      1.0  0.95219  0.29372  0.03251  1.0000
  Cl  Cl81      1.0  0.84915  0.28007  0.19179000000000002  1.0000
  Cl  Cl82      1.0  0.88807  0.25549  0.13254  1.0000
  Cl  Cl83      1.0  0.72403  0.16862000000000002  0.10717  1.0000
  Cl  Cl84      1.0  0.68952  0.19021  0.16843  1.0000
  C   C154      1.0  0.8533000000000002  0.0357  0.039  1.0000
  Tb  Tb8       1.0  0.41387  0.4545300000000001  0.50416  1.0000
  C   C155      1.0  0.3434  0.5719  0.552  1.0000
  C   C156      1.0  0.3184  0.6075000000000003  0.5381  1.0000
  C   C157      1.0  0.3110000000000001  0.6500000000000002  0.5507  1.0000
  C   C158      1.0  0.3258  0.6597000000000002  0.5781  1.0000
  C   C159      1.0  0.3469  0.6231  0.5924  1.0000
  C   C160      1.0  0.35510000000000014  0.5791  0.5798  1.0000
  C   C161      1.0  0.3197  0.7076  0.5905  1.0000
  H   H8        1.0  0.2878  0.7108  0.583  1.0000
  C   C162      1.0  0.38650000000000007  0.8768  0.5289  1.0000
  C   C163      1.0  0.3688000000000001  0.8323000000000003  0.5457  1.0000
  C   C164      1.0  0.3249  0.8302  0.5574  1.0000
  C   C165      1.0  0.31  0.79  0.5718  1.0000
  C   C166      1.0  0.33710000000000007  0.7496000000000003  0.57483  1.0000
  C   C167      1.0  0.3818  0.7514000000000001  0.5621  1.0000
  C   C168      1.0  0.3972  0.7921  0.5476  1.0000
  C   C169      1.0  0.2541  0.7449000000000001  0.7065  1.0000
  C   C170      1.0  0.2714  0.735  0.677  1.0000
  C   C171      1.0  0.3144  0.7494  0.6680000000000001  1.0000
  C   C172      1.0  0.3312  0.7389  0.6408  1.0000
  C   C173      1.0  0.30460000000000004  0.7147  0.621  1.0000
  C   C174      1.0  0.2615  0.6989  0.63  1.0000
  C   C175      1.0  0.245  0.71  0.6584  1.0000
  O   O43       1.0  0.3795  0.5219  0.5242  1.0000
  O   O44       1.0  0.33110000000000006  0.5007  0.5462  1.0000
  O   O45       1.0  0.4141  0.9024000000000001  0.54144  1.0000
  O   O46       1.0  0.3715  0.8842  0.5055  1.0000
  O   O47       1.0  0.2343  0.7838  0.70928  1.0000
  O   O48       1.0  0.259  0.7146  0.7257  1.0000
  Cl  Cl85      1.0  0.29925  0.5957600000000002  0.50341  1.0000
  Cl  Cl86      1.0  0.28083  0.69075  0.53092  1.0000
  Cl  Cl87      1.0  0.36727  0.63063  0.62772  1.0000
  Cl  Cl88      1.0  0.38292  0.5357  0.59901  1.0000
  Cl  Cl89      1.0  0.28974  0.87893  0.55546  1.0000
  Cl  Cl90      1.0  0.25313  0.7910400000000002  0.58537  1.0000
  Cl  Cl91      1.0  0.41999  0.7058100000000003  0.56439  1.0000
  Cl  Cl92      1.0  0.45219  0.7937200000000002  0.53251  1.0000
  Cl  Cl93      1.0  0.34915000000000007  0.7800700000000002  0.6917900000000001  1.0000
  Cl  Cl94      1.0  0.38807  0.75549  0.63254  1.0000
  Cl  Cl95      1.0  0.22403  0.66862  0.60717  1.0000
  Cl  Cl96      1.0  0.18952  0.69021  0.66843  1.0000
  C   C176      1.0  0.3533  0.5357  0.539  1.0000
  Tb  Tb9       1.0  0.20453  0.83613  0.7458400000000001  1.0000
  C   C177      1.0  0.3219  0.9066  0.6980000000000001  1.0000
  C   C178      1.0  0.3575  0.9316  0.7119  1.0000
  C   C179      1.0  0.4  0.939  0.6993  1.0000
  C   C180      1.0  0.4097  0.9242  0.6719  1.0000
  C   C181      1.0  0.3731  0.9031000000000002  0.6576000000000001  1.0000
  C   C182      1.0  0.32910000000000006  0.8949000000000003  0.6702  1.0000
  C   C183      1.0  0.45760000000000006  0.9303000000000002  0.6595  1.0000
  H   H9        1.0  0.4608000000000001  0.9622  0.667  1.0000
  C   C184      1.0  0.6268000000000002  0.8635  0.7211000000000001  1.0000
  C   C185      1.0  0.5823  0.8812  0.7043  1.0000
  C   C186      1.0  0.5802000000000002  0.9251  0.6926  1.0000
  C   C187      1.0  0.54  0.9400000000000002  0.6782  1.0000
  C   C188      1.0  0.4996  0.9129  0.67517  1.0000
  C   C189      1.0  0.5014  0.8682  0.6879000000000001  1.0000
  C   C190      1.0  0.5421  0.8528  0.7024  1.0000
  C   C191      1.0  0.4949000000000001  0.9959  0.5435  1.0000
  C   C192      1.0  0.485  0.9786000000000002  0.573  1.0000
  C   C193      1.0  0.4994  0.9356  0.582  1.0000
  C   C194      1.0  0.4889000000000001  0.9188  0.6092  1.0000
  C   C195      1.0  0.4647  0.9454  0.629  1.0000
  C   C196      1.0  0.4489  0.9885  0.62  1.0000
  C   C197      1.0  0.4600000000000001  0.005  0.5916  1.0000
  O   O49       1.0  0.2719  0.8705  0.7258  1.0000
  O   O50       1.0  0.2507  0.9189  0.7038  1.0000
  O   O51       1.0  0.6524  0.8359  0.70856  1.0000
  O   O52       1.0  0.6342  0.8785  0.7445  1.0000
  O   O53       1.0  0.5338  0.0157  0.54072  1.0000
  O   O54       1.0  0.4646  0.991  0.5243  1.0000
  Cl  Cl97      1.0  0.34576  0.95075  0.74659  1.0000
  Cl  Cl98      1.0  0.44075000000000003  0.96917  0.71908  1.0000
  Cl  Cl99      1.0  0.3806300000000001  0.88273  0.62228  1.0000
  Cl  Cl100     1.0  0.28570000000000007  0.8670800000000002  0.65099  1.0000
  Cl  Cl101     1.0  0.62893  0.96026  0.69454  1.0000
  Cl  Cl102     1.0  0.54104  0.9968700000000003  0.66463  1.0000
  Cl  Cl103     1.0  0.45581  0.83001  0.68561  1.0000
  Cl  Cl104     1.0  0.54372  0.79781  0.71749  1.0000
  Cl  Cl105     1.0  0.53007  0.90085  0.55821  1.0000
  Cl  Cl106     1.0  0.50549  0.86193  0.61746  1.0000
  Cl  Cl107     1.0  0.41862  0.02597  0.64283  1.0000
  Cl  Cl108     1.0  0.4402100000000001  0.06048  0.58157  1.0000
  C   C198      1.0  0.28570000000000007  0.8967000000000002  0.711  1.0000
  Tb  Tb10      1.0  0.70453  0.33613  0.24584  1.0000
  C   C199      1.0  0.8219000000000002  0.4066000000000001  0.198  1.0000
  C   C200      1.0  0.8575  0.4316  0.2119  1.0000
  C   C201      1.0  0.9  0.439  0.1993  1.0000
  C   C202      1.0  0.9097  0.42420000000000013  0.1719  1.0000
  C   C203      1.0  0.8731  0.4031  0.1576  1.0000
  C   C204      1.0  0.8291  0.3949000000000001  0.1702  1.0000
  C   C205      1.0  0.9576000000000002  0.43030000000000007  0.1595  1.0000
  H   H10       1.0  0.9608000000000002  0.4622  0.16700000000000004  1.0000
  C   C206      1.0  0.1268  0.3635  0.22110000000000002  1.0000
  C   C207      1.0  0.0823  0.3812  0.2043  1.0000
  C   C208      1.0  0.0802  0.42510000000000003  0.1926  1.0000
  C   C209      1.0  0.04  0.44  0.1782  1.0000
  C   C210      1.0  0.9996  0.4129  0.17517  1.0000
  C   C211      1.0  0.0014000000000000002  0.3682  0.1879  1.0000
  C   C212      1.0  0.0421  0.35280000000000006  0.2024  1.0000
  C   C213      1.0  0.9949  0.4959  0.043500000000000004  1.0000
  C   C214      1.0  0.9850000000000002  0.4786  0.073  1.0000
  C   C215      1.0  0.9994000000000002  0.4356  0.082  1.0000
  C   C216      1.0  0.9889000000000002  0.4188  0.1092  1.0000
  C   C217      1.0  0.9647  0.4454  0.129  1.0000
  C   C218      1.0  0.9489000000000002  0.4885000000000001  0.12000000000000001  1.0000
  C   C219      1.0  0.9600000000000002  0.505  0.0916  1.0000
  O   O55       1.0  0.7719  0.3705  0.2258  1.0000
  O   O56       1.0  0.7507  0.4189  0.2038  1.0000
  O   O57       1.0  0.1524  0.3359000000000001  0.20856  1.0000
  O   O58       1.0  0.1342  0.37850000000000006  0.2445  1.0000
  O   O59       1.0  0.0338  0.5157  0.04072  1.0000
  O   O60       1.0  0.9646  0.491  0.024300000000000002  1.0000
  Cl  Cl109     1.0  0.84576  0.4507500000000001  0.24659  1.0000
  Cl  Cl110     1.0  0.9407500000000002  0.46917  0.21908  1.0000
  Cl  Cl111     1.0  0.8806300000000002  0.38273  0.12228  1.0000
  Cl  Cl112     1.0  0.7857  0.36708  0.15099  1.0000
  Cl  Cl113     1.0  0.12893  0.4602600000000001  0.19454000000000002  1.0000
  Cl  Cl114     1.0  0.04104  0.49687  0.16463  1.0000
  Cl  Cl115     1.0  0.95581  0.33001  0.18561  1.0000
  Cl  Cl116     1.0  0.04372  0.29781  0.21749000000000002  1.0000
  Cl  Cl117     1.0  0.030070000000000006  0.40085  0.05821000000000001  1.0000
  Cl  Cl118     1.0  0.00549  0.36193  0.11746000000000001  1.0000
  Cl  Cl119     1.0  0.91862  0.52597  0.14283  1.0000
  Cl  Cl120     1.0  0.94021  0.56048  0.08157  1.0000
  C   C220      1.0  0.7857  0.3967  0.211  1.0000
  Tb  Tb11      1.0  0.29547  0.16387  0.24584  1.0000
  C   C221      1.0  0.1781  0.09340000000000002  0.198  1.0000
  C   C222      1.0  0.1425  0.0684  0.2119  1.0000
  C   C223      1.0  0.1  0.061  0.1993  1.0000
  C   C224      1.0  0.09030000000000002  0.0758  0.1719  1.0000
  C   C225      1.0  0.1269  0.0969  0.1576  1.0000
  C   C226      1.0  0.1709  0.1051  0.1702  1.0000
  C   C227      1.0  0.0424  0.0697  0.1595  1.0000
  H   H11       1.0  0.0392  0.0378  0.16700000000000004  1.0000
  C   C228      1.0  0.8732  0.1365  0.22110000000000002  1.0000
  C   C229      1.0  0.9177000000000001  0.11880000000000003  0.2043  1.0000
  C   C230      1.0  0.9198  0.0749  0.1926  1.0000
  C   C231      1.0  0.9600000000000002  0.06000000000000001  0.1782  1.0000
  C   C232      1.0  0.0004  0.08710000000000001  0.17517  1.0000
  C   C233      1.0  0.9986000000000003  0.1318  0.1879  1.0000
  C   C234      1.0  0.9579  0.1472  0.2024  1.0000
  C   C235      1.0  0.0051  0.0041  0.043500000000000004  1.0000
  C   C236      1.0  0.015000000000000003  0.0214  0.073  1.0000
  C   C237      1.0  0.0006  0.0644  0.082  1.0000
  C   C238      1.0  0.011100000000000002  0.0812  0.1092  1.0000
  C   C239      1.0  0.0353  0.0546  0.129  1.0000
  C   C240      1.0  0.0511  0.011500000000000003  0.12000000000000001  1.0000
  C   C241      1.0  0.04  0.995  0.0916  1.0000
  O   O61       1.0  0.2281  0.1295  0.2258  1.0000
  O   O62       1.0  0.24930000000000002  0.0811  0.2038  1.0000
  O   O63       1.0  0.8476000000000002  0.1641  0.20856  1.0000
  O   O64       1.0  0.8658  0.1215  0.2445  1.0000
  O   O65       1.0  0.9662  0.9843000000000001  0.04072  1.0000
  O   O66       1.0  0.0354  0.009  0.024300000000000002  1.0000
  Cl  Cl121     1.0  0.15424  0.04925  0.24659  1.0000
  Cl  Cl122     1.0  0.05925000000000001  0.03083  0.21908  1.0000
  Cl  Cl123     1.0  0.11937  0.11727  0.12228  1.0000
  Cl  Cl124     1.0  0.2143  0.13292  0.15099  1.0000
  Cl  Cl125     1.0  0.87107  0.03974  0.19454000000000002  1.0000
  Cl  Cl126     1.0  0.95896  0.003130000000000001  0.16463  1.0000
  Cl  Cl127     1.0  0.04419  0.16999  0.18561  1.0000
  Cl  Cl128     1.0  0.9562800000000002  0.20219  0.21749000000000002  1.0000
  Cl  Cl129     1.0  0.9699300000000002  0.09915  0.05821000000000001  1.0000
  Cl  Cl130     1.0  0.99451  0.13807  0.11746000000000001  1.0000
  Cl  Cl131     1.0  0.08138  0.9740300000000001  0.14283  1.0000
  Cl  Cl132     1.0  0.05979000000000001  0.93952  0.08157  1.0000
  C   C242      1.0  0.2143  0.1033  0.211  1.0000
  Tb  Tb12      1.0  0.79547  0.66387  0.7458400000000001  1.0000
  C   C243      1.0  0.6781000000000003  0.5934  0.6980000000000001  1.0000
  C   C244      1.0  0.6425  0.5684  0.7119  1.0000
  C   C245      1.0  0.6  0.561  0.6993  1.0000
  C   C246      1.0  0.5903  0.5758  0.6719  1.0000
  C   C247      1.0  0.6269  0.5969  0.6576000000000001  1.0000
  C   C248      1.0  0.6709000000000003  0.6051000000000002  0.6702  1.0000
  C   C249      1.0  0.5424  0.5697  0.6595  1.0000
  H   H12       1.0  0.5392  0.5378  0.667  1.0000
  C   C250      1.0  0.3732000000000001  0.6365000000000001  0.7211000000000001  1.0000
  C   C251      1.0  0.4177  0.6188000000000001  0.7043  1.0000
  C   C252      1.0  0.4198000000000001  0.5749  0.6926  1.0000
  C   C253      1.0  0.4600000000000001  0.56  0.6782  1.0000
  C   C254      1.0  0.5004  0.5871  0.67517  1.0000
  C   C255      1.0  0.49860000000000004  0.6318  0.6879000000000001  1.0000
  C   C256      1.0  0.4579  0.6472  0.7024  1.0000
  C   C257      1.0  0.5051  0.5041  0.5435  1.0000
  C   C258      1.0  0.515  0.5214  0.573  1.0000
  C   C259      1.0  0.5006  0.5644  0.582  1.0000
  C   C260      1.0  0.5111  0.5812  0.6092  1.0000
  C   C261      1.0  0.5353  0.5546  0.629  1.0000
  C   C262      1.0  0.5511  0.5115  0.62  1.0000
  C   C263      1.0  0.54  0.495  0.5916  1.0000
  O   O67       1.0  0.7281000000000001  0.6295  0.7258  1.0000
  O   O68       1.0  0.7493  0.5811000000000001  0.7038  1.0000
  O   O69       1.0  0.3476  0.6641  0.70856  1.0000
  O   O70       1.0  0.3658  0.6215  0.7445  1.0000
  O   O71       1.0  0.4662  0.4843  0.54072  1.0000
  O   O72       1.0  0.5354  0.509  0.5243  1.0000
  Cl  Cl133     1.0  0.65424  0.54925  0.74659  1.0000
  Cl  Cl134     1.0  0.55925  0.53083  0.71908  1.0000
  Cl  Cl135     1.0  0.6193700000000002  0.61727  0.62228  1.0000
  Cl  Cl136     1.0  0.7143000000000003  0.63292  0.65099  1.0000
  Cl  Cl137     1.0  0.3710700000000001  0.53974  0.69454  1.0000
  Cl  Cl138     1.0  0.45896  0.50313  0.66463  1.0000
  Cl  Cl139     1.0  0.54419  0.66999  0.68561  1.0000
  Cl  Cl140     1.0  0.45628  0.70219  0.71749  1.0000
  Cl  Cl141     1.0  0.46993  0.59915  0.55821  1.0000
  Cl  Cl142     1.0  0.49451  0.63807  0.61746  1.0000
  Cl  Cl143     1.0  0.58138  0.47403  0.64283  1.0000
  Cl  Cl144     1.0  0.55979  0.43952  0.58157  1.0000
  C   C264      1.0  0.7143000000000003  0.6033  0.711  1.0000
  Tb  Tb13      1.0  0.41387  0.9545300000000002  0.49584  1.0000
  C   C265      1.0  0.3434  0.0719  0.448  1.0000
  C   C266      1.0  0.3184  0.1075  0.46190000000000003  1.0000
  C   C267      1.0  0.3110000000000001  0.15  0.44930000000000003  1.0000
  C   C268      1.0  0.3258  0.15970000000000006  0.4219  1.0000
  C   C269      1.0  0.3469  0.1231  0.4076  1.0000
  C   C270      1.0  0.35510000000000014  0.0791  0.4202  1.0000
  C   C271      1.0  0.3197  0.2076  0.40950000000000003  1.0000
  H   H13       1.0  0.2878  0.2108  0.41700000000000004  1.0000
  C   C272      1.0  0.38650000000000007  0.37680000000000013  0.4711  1.0000
  C   C273      1.0  0.3688000000000001  0.33230000000000004  0.45430000000000004  1.0000
  C   C274      1.0  0.3249  0.3302  0.4426  1.0000
  C   C275      1.0  0.31  0.29  0.4282  1.0000
  C   C276      1.0  0.33710000000000007  0.2496  0.42517  1.0000
  C   C277      1.0  0.3818  0.2514  0.4379  1.0000
  C   C278      1.0  0.3972  0.29210000000000014  0.4524  1.0000
  C   C279      1.0  0.2541  0.2449  0.2935  1.0000
  C   C280      1.0  0.2714  0.23500000000000004  0.323  1.0000
  C   C281      1.0  0.3144  0.2494  0.332  1.0000
  C   C282      1.0  0.3312  0.2389  0.3592  1.0000
  C   C283      1.0  0.30460000000000004  0.21470000000000006  0.379  1.0000
  C   C284      1.0  0.2615  0.19890000000000002  0.37  1.0000
  C   C285      1.0  0.245  0.21  0.3416  1.0000
  O   O73       1.0  0.3795  0.021900000000000003  0.4758  1.0000
  O   O74       1.0  0.33110000000000006  0.0007000000000000001  0.45380000000000004  1.0000
  O   O75       1.0  0.4141  0.4024  0.45856  1.0000
  O   O76       1.0  0.3715  0.3842  0.4945  1.0000
  O   O77       1.0  0.2343  0.2838  0.29072  1.0000
  O   O78       1.0  0.259  0.2146  0.2743  1.0000
  Cl  Cl145     1.0  0.29925  0.09576  0.49659000000000003  1.0000
  Cl  Cl146     1.0  0.28083  0.19075  0.46908  1.0000
  Cl  Cl147     1.0  0.36727  0.13063  0.37228  1.0000
  Cl  Cl148     1.0  0.38292  0.0357  0.40099  1.0000
  Cl  Cl149     1.0  0.28974  0.37893  0.44454  1.0000
  Cl  Cl150     1.0  0.25313  0.29104  0.41463  1.0000
  Cl  Cl151     1.0  0.41999  0.20581000000000005  0.43561  1.0000
  Cl  Cl152     1.0  0.45219  0.29372  0.46749  1.0000
  Cl  Cl153     1.0  0.34915000000000007  0.28007  0.30821  1.0000
  Cl  Cl154     1.0  0.38807  0.25549  0.36746  1.0000
  Cl  Cl155     1.0  0.22403  0.16862000000000002  0.39283  1.0000
  Cl  Cl156     1.0  0.18952  0.19021  0.33157  1.0000
  C   C286      1.0  0.3533  0.0357  0.461  1.0000
  Tb  Tb14      1.0  0.91387  0.4545300000000001  0.9958400000000001  1.0000
  C   C287      1.0  0.8434  0.5719  0.9480000000000001  1.0000
  C   C288      1.0  0.8184  0.6075000000000003  0.9619  1.0000
  C   C289      1.0  0.811  0.6500000000000002  0.9493  1.0000
  C   C290      1.0  0.8258  0.6597000000000002  0.9219  1.0000
  C   C291      1.0  0.8469000000000002  0.6231  0.9076000000000001  1.0000
  C   C292      1.0  0.8551  0.5791  0.9202  1.0000
  C   C293      1.0  0.8197  0.7076  0.9095  1.0000
  H   H14       1.0  0.7878  0.7108  0.917  1.0000
  C   C294      1.0  0.8865  0.8768  0.9711000000000001  1.0000
  C   C295      1.0  0.8688  0.8323000000000003  0.9543  1.0000
  C   C296      1.0  0.8249  0.8302  0.9426  1.0000
  C   C297      1.0  0.81  0.79  0.9282  1.0000
  C   C298      1.0  0.8371  0.7496000000000003  0.92517  1.0000
  C   C299      1.0  0.8818  0.7514000000000001  0.9379000000000001  1.0000
  C   C300      1.0  0.8972  0.7921  0.9524  1.0000
  C   C301      1.0  0.7541  0.7449000000000001  0.7935  1.0000
  C   C302      1.0  0.7714000000000002  0.735  0.8230000000000001  1.0000
  C   C303      1.0  0.8144  0.7494  0.8320000000000001  1.0000
  C   C304      1.0  0.8312  0.7389  0.8592000000000001  1.0000
  C   C305      1.0  0.8046  0.7147  0.879  1.0000
  C   C306      1.0  0.7615  0.6989  0.87  1.0000
  C   C307      1.0  0.745  0.71  0.8416  1.0000
  O   O79       1.0  0.8795  0.5219  0.9758  1.0000
  O   O80       1.0  0.8311  0.5007  0.9538  1.0000
  O   O81       1.0  0.9141  0.9024000000000001  0.9585600000000002  1.0000
  O   O82       1.0  0.8715  0.8842  0.9945  1.0000
  O   O83       1.0  0.7343  0.7838  0.79072  1.0000
  O   O84       1.0  0.759  0.7146  0.7743  1.0000
  Cl  Cl157     1.0  0.79925  0.5957600000000002  0.99659  1.0000
  Cl  Cl158     1.0  0.78083  0.69075  0.96908  1.0000
  Cl  Cl159     1.0  0.86727  0.63063  0.87228  1.0000
  Cl  Cl160     1.0  0.8829200000000001  0.5357  0.90099  1.0000
  Cl  Cl161     1.0  0.78974  0.87893  0.94454  1.0000
  Cl  Cl162     1.0  0.7531300000000001  0.7910400000000002  0.91463  1.0000
  Cl  Cl163     1.0  0.91999  0.7058100000000003  0.93561  1.0000
  Cl  Cl164     1.0  0.95219  0.7937200000000002  0.96749  1.0000
  Cl  Cl165     1.0  0.84915  0.7800700000000002  0.80821  1.0000
  Cl  Cl166     1.0  0.88807  0.75549  0.86746  1.0000
  Cl  Cl167     1.0  0.72403  0.66862  0.8928300000000001  1.0000
  Cl  Cl168     1.0  0.68952  0.69021  0.8315700000000001  1.0000
  C   C308      1.0  0.8533000000000002  0.5357  0.9610000000000002  1.0000
  Tb  Tb15      1.0  0.08613000000000003  0.04547  0.9958400000000001  1.0000
  C   C309      1.0  0.1566  0.9281  0.9480000000000001  1.0000
  C   C310      1.0  0.18160000000000004  0.8925  0.9619  1.0000
  C   C311      1.0  0.18900000000000006  0.8500000000000002  0.9493  1.0000
  C   C312      1.0  0.17420000000000002  0.8403000000000003  0.9219  1.0000
  C   C313      1.0  0.15310000000000004  0.8769  0.9076000000000001  1.0000
  C   C314      1.0  0.1449  0.9209  0.9202  1.0000
  C   C315      1.0  0.1803  0.7924  0.9095  1.0000
  H   H15       1.0  0.2122  0.7892  0.917  1.0000
  C   C316      1.0  0.11350000000000002  0.6232  0.9711000000000001  1.0000
  C   C317      1.0  0.1312  0.6677000000000002  0.9543  1.0000
  C   C318      1.0  0.1751  0.6698  0.9426  1.0000
  C   C319      1.0  0.19  0.71  0.9282  1.0000
  C   C320      1.0  0.1629  0.7504  0.92517  1.0000
  C   C321      1.0  0.11820000000000003  0.7486  0.9379000000000001  1.0000
  C   C322      1.0  0.1028  0.7079000000000002  0.9524  1.0000
  C   C323      1.0  0.2459  0.7551  0.7935  1.0000
  C   C324      1.0  0.22860000000000003  0.7650000000000001  0.8230000000000001  1.0000
  C   C325      1.0  0.18560000000000004  0.7506  0.8320000000000001  1.0000
  C   C326      1.0  0.1688  0.7611  0.8592000000000001  1.0000
  C   C327      1.0  0.1954  0.7853  0.879  1.0000
  C   C328      1.0  0.2385  0.8011000000000001  0.87  1.0000
  C   C329      1.0  0.255  0.79  0.8416  1.0000
  O   O85       1.0  0.1205  0.9781  0.9758  1.0000
  O   O86       1.0  0.1689  0.9993  0.9538  1.0000
  O   O87       1.0  0.0859  0.5976  0.9585600000000002  1.0000
  O   O88       1.0  0.1285  0.6158  0.9945  1.0000
  O   O89       1.0  0.2657  0.7162  0.79072  1.0000
  O   O90       1.0  0.241  0.7854  0.7743  1.0000
  Cl  Cl169     1.0  0.20075  0.9042400000000003  0.99659  1.0000
  Cl  Cl170     1.0  0.21917000000000006  0.80925  0.96908  1.0000
  Cl  Cl171     1.0  0.13273  0.86937  0.87228  1.0000
  Cl  Cl172     1.0  0.11708  0.9643  0.90099  1.0000
  Cl  Cl173     1.0  0.21026  0.6210700000000001  0.94454  1.0000
  Cl  Cl174     1.0  0.24687000000000006  0.7089600000000003  0.91463  1.0000
  Cl  Cl175     1.0  0.08001  0.79419  0.93561  1.0000
  Cl  Cl176     1.0  0.04781  0.70628  0.96749  1.0000
  Cl  Cl177     1.0  0.15085000000000007  0.71993  0.80821  1.0000
  Cl  Cl178     1.0  0.11193000000000003  0.74451  0.86746  1.0000
  Cl  Cl179     1.0  0.27597  0.83138  0.8928300000000001  1.0000
  Cl  Cl180     1.0  0.31048  0.80979  0.8315700000000001  1.0000
  C   C330      1.0  0.1467  0.9643  0.9610000000000002  1.0000
  Tb  Tb16      1.0  0.58613  0.54547  0.49584  1.0000
  C   C331      1.0  0.6566000000000001  0.4281  0.448  1.0000
  C   C332      1.0  0.6816  0.3925000000000001  0.46190000000000003  1.0000
  C   C333      1.0  0.689  0.35000000000000003  0.44930000000000003  1.0000
  C   C334      1.0  0.6742000000000001  0.3403000000000001  0.4219  1.0000
  C   C335      1.0  0.6531  0.3769  0.4076  1.0000
  C   C336      1.0  0.6449  0.4209  0.4202  1.0000
  C   C337      1.0  0.6803  0.2924  0.40950000000000003  1.0000
  H   H16       1.0  0.7122  0.2892  0.41700000000000004  1.0000
  C   C338      1.0  0.6135  0.1232  0.4711  1.0000
  C   C339      1.0  0.6312  0.1677  0.45430000000000004  1.0000
  C   C340      1.0  0.6751  0.1698  0.4426  1.0000
  C   C341      1.0  0.69  0.21  0.4282  1.0000
  C   C342      1.0  0.6629000000000003  0.2504  0.42517  1.0000
  C   C343      1.0  0.6182  0.2486  0.4379  1.0000
  C   C344      1.0  0.6028000000000001  0.20790000000000006  0.4524  1.0000
  C   C345      1.0  0.7459  0.2551  0.2935  1.0000
  C   C346      1.0  0.7286  0.265  0.323  1.0000
  C   C347      1.0  0.6856  0.2506  0.332  1.0000
  C   C348      1.0  0.6688  0.2611  0.3592  1.0000
  C   C349      1.0  0.6954  0.28530000000000005  0.379  1.0000
  C   C350      1.0  0.7385000000000002  0.3011  0.37  1.0000
  C   C351      1.0  0.755  0.29  0.3416  1.0000
  O   O91       1.0  0.6205  0.4781  0.4758  1.0000
  O   O92       1.0  0.6689  0.49930000000000013  0.45380000000000004  1.0000
  O   O93       1.0  0.5859000000000001  0.0976  0.45856  1.0000
  O   O94       1.0  0.6285000000000001  0.11580000000000003  0.4945  1.0000
  O   O95       1.0  0.7657000000000003  0.2162  0.29072  1.0000
  O   O96       1.0  0.741  0.2854  0.2743  1.0000
  Cl  Cl181     1.0  0.7007500000000001  0.4042400000000001  0.49659000000000003  1.0000
  Cl  Cl182     1.0  0.71917  0.30925  0.46908  1.0000
  Cl  Cl183     1.0  0.63273  0.36937  0.37228  1.0000
  Cl  Cl184     1.0  0.61708  0.4643  0.40099  1.0000
  Cl  Cl185     1.0  0.71026  0.12107000000000001  0.44454  1.0000
  Cl  Cl186     1.0  0.74687  0.20896  0.41463  1.0000
  Cl  Cl187     1.0  0.58001  0.2941900000000001  0.43561  1.0000
  Cl  Cl188     1.0  0.54781  0.20628000000000002  0.46749  1.0000
  Cl  Cl189     1.0  0.6508500000000003  0.21993000000000001  0.30821  1.0000
  Cl  Cl190     1.0  0.61193  0.24451  0.36746  1.0000
  Cl  Cl191     1.0  0.7759700000000003  0.33138  0.39283  1.0000
  Cl  Cl192     1.0  0.81048  0.30979  0.33157  1.0000
  C   C352      1.0  0.6467  0.4643  0.461  1.0000
