data_image0
_chemical_formula_structural       C6H3C6H3C6H3C6H3C6H3C6H3C6H3C6H3C6H3C6H3C6H3C6H3C6H3C6H3C6H3C6H3Zn4O13C6Zn4O13C6Zn4O13C6Zn4O13C6Zn4O13C6Zn4O13C6Zn4O13C6Zn4O13C12H4C6H4C6H4C6H4C6H4C6H4C6H4C6H4C6H4C6H4C6H4C6H4C6H4C6H4C6H4C6H4C6H4C6H4C6H4C6H4C6H4C6H4C6H4C6H4C6H4C6H4C6H4C6H4C6H4C6H4C6H4C6H4C6H4C6H4C6H4C6H4C6H4C6H4C6H4C6H4C6H4C6H4C6H4C6H4C6H4C6H4C6H4C6H4
_chemical_formula_sum              "C432 H240 Zn32 O104"
_cell_length_a       37.072
_cell_length_b       37.071999999999996
_cell_length_c       30.0333
_cell_angle_alpha    90.0
_cell_angle_beta     90.0
_cell_angle_gamma    119.99999999999999

_symmetry_space_group_name_H-M    'P 1'
_symmetry_Int_Tables_number       1

loop_
  _symmetry_equiv_pos_as_xyz
  'x,y,z'

loop_
  _atom_site_type_symbol
  _atom_site_label
  _atom_site_symmetry_multiplicity
  _atom_site_fract_x
  _atom_site_fract_y
  _atom_site_fract_z
  _atom_site_occupancy
  C   C1        1.0  0.022259999999999978  0.97844  0.24989  1.0000
  C   C2        1.0  0.97843  0.95713  0.25052  1.0000
  C   C3        1.0  0.95647  0.97901  0.25116  1.0000
  C   C4        1.0  0.979  0.02292000000000005  0.25149  1.0000
  C   C5        1.0  0.02317999999999998  0.04550999999999994  0.25053  1.0000
  C   C6        1.0  0.04421999999999993  0.022370000000000004  0.24957  1.0000
  H   H1        1.0  0.96134  0.92337  0.25052  1.0000
  H   H2        1.0  0.9615999999999999  0.0392300000000001  0.25105  1.0000
  H   H3        1.0  0.07790999999999992  0.03825999999999996  0.25  1.0000
  C   C7        1.0  0.04398999999999975  0.023560000000000025  0.75063  1.0000
  C   C8        1.0  0.020950000000000024  0.04469999999999996  0.7488  1.0000
  C   C9        1.0  0.97667  0.0233000000000001  0.75111  1.0000
  C   C10       1.0  0.95575  0.97916  0.75394  1.0000
  C   C11       1.0  0.97763  0.95717  0.75395  1.0000
  C   C12       1.0  0.02140999999999996  0.97955  0.75295  1.0000
  H   H4        1.0  0.037959999999999994  0.07833000000000001  0.74961  1.0000
  H   H5        1.0  0.92211  0.96109  0.75346  1.0000
  H   H6        1.0  0.0376700000000001  0.9621  0.7525  1.0000
  C   C13       1.0  0.31136  0.62241  0.24792  1.0000
  C   C14       1.0  0.28984  0.64481  0.24803  1.0000
  C   C15       1.0  0.3112500000000001  0.68872  0.24859999999999993  1.0000
  C   C16       1.0  0.35515999999999986  0.71024  0.24902  1.0000
  C   C17       1.0  0.37768  0.68884  0.2489  1.0000
  C   C18       1.0  0.35528  0.64493  0.24833  1.0000
  H   H7        1.0  0.25618  0.62793  0.24772  1.0000
  H   H8        1.0  0.37195  0.74391  0.24945  1.0000
  H   H9        1.0  0.37216000000000005  0.62814  0.24825  1.0000
  C   C19       1.0  0.62149  0.31152  0.74884  1.0000
  C   C20       1.0  0.64398  0.35551  0.7483099999999998  1.0000
  C   C21       1.0  0.68796  0.378  0.7476999999999999  1.0000
  C   C22       1.0  0.70936  0.35548  0.74712  1.0000
  C   C23       1.0  0.68781  0.31167  0.74809  1.0000
  C   C24       1.0  0.644  0.29011  0.74915  1.0000
  H   H10       1.0  0.6271499999999999  0.37234  0.74842  1.0000
  H   H11       1.0  0.74299  0.37198  0.7448299999999999  1.0000
  H   H12       1.0  0.6274899999999999  0.25647  0.7514  1.0000
  C   C25       1.0  0.36987999999999993  0.30344  0.10052999999999979  1.0000
  C   C26       1.0  0.40890999999999994  0.31325  0.11908000000000006  1.0000
  C   C27       1.0  0.43796999999999997  0.30523  0.0963999999999998  1.0000
  C   C28       1.0  0.42747000000000007  0.28902  0.05245000000000011  1.0000
  C   C29       1.0  0.38908000000000004  0.27938  0.032869999999999955  1.0000
  C   C30       1.0  0.36091  0.2865  0.05709999999999993  1.0000
  H   H13       1.0  0.4164  0.32685  0.1517900000000001  1.0000
  H   H14       1.0  0.4476899999999999  0.2814  0.03377999999999992  1.0000
  H   H15       1.0  0.33265999999999996  0.28066  0.04037000000000001  1.0000
  C   C31       1.0  0.38493  0.10801  0.46656  1.0000
  C   C32       1.0  0.42332  0.13771  0.44783  1.0000
  C   C33       1.0  0.4345  0.13285  0.40424  1.0000
  C   C34       1.0  0.40666  0.09724  0.3795399999999999  1.0000
  C   C35       1.0  0.36783  0.06728  0.3974  1.0000
  C   C36       1.0  0.35761  0.07313  0.4410599999999999  1.0000
  H   H16       1.0  0.44443  0.16484  0.46717  1.0000
  H   H17       1.0  0.41457  0.09378  0.3457  1.0000
  H   H18       1.0  0.3285199999999999  0.04992  0.45586  1.0000
  C   C37       1.0  0.71573  0.1077  0.03218999999999994  1.0000
  C   C38       1.0  0.7069  0.13695  0.05242999999999998  1.0000
  C   C39       1.0  0.69146  0.13179  0.09670000000000001  1.0000
  C   C40       1.0  0.6838799999999999  0.09502  0.11959000000000009  1.0000
  C   C41       1.0  0.6925799999999999  0.06554  0.10033000000000003  1.0000
  C   C42       1.0  0.7082499999999999  0.07225  0.056599999999999984  1.0000
  H   H19       1.0  0.71366  0.16446  0.03370000000000006  1.0000
  H   H20       1.0  0.67077  0.08851  0.15264999999999995  1.0000
  H   H21       1.0  0.7152999999999999  0.04993  0.04167999999999994  1.0000
  C   C43       1.0  0.3034899999999999  0.37019  0.59969  1.0000
  C   C44       1.0  0.31229  0.40864  0.61837  1.0000
  C   C45       1.0  0.30445  0.43714  0.59479  1.0000
  C   C46       1.0  0.2889  0.42683  0.5508  1.0000
  C   C47       1.0  0.28019999999999995  0.38865  0.53123  1.0000
  C   C48       1.0  0.28758999999999996  0.36081  0.556  1.0000
  H   H22       1.0  0.32467  0.41601  0.65182  1.0000
  H   H23       1.0  0.28195  0.44766  0.53223  1.0000
  H   H24       1.0  0.2816  0.3319  0.54064  1.0000
  C   C49       1.0  0.11004999999999997  0.72143  0.53408  1.0000
  C   C50       1.0  0.07468999999999999  0.71415  0.5585  1.0000
  C   C51       1.0  0.06700999999999999  0.69753  0.6022  1.0000
  C   C52       1.0  0.09645  0.68785  0.62059  1.0000
  C   C53       1.0  0.13311000000000006  0.69593  0.59739  1.0000
  C   C54       1.0  0.13904999999999998  0.71223  0.55374  1.0000
  H   H25       1.0  0.05210999999999997  0.71971  0.54174  1.0000
  H   H26       1.0  0.09183999999999998  0.67535  0.65387  1.0000
  H   H27       1.0  0.16695  0.71923  0.53542  1.0000
  C   C55       1.0  0.10776  0.38186  0.96313  1.0000
  C   C56       1.0  0.13806  0.41981  0.94426  1.0000
  C   C57       1.0  0.13421  0.43047  0.90018  1.0000
  C   C58       1.0  0.09926  0.40234  0.8748199999999998  1.0000
  C   C59       1.0  0.06778  0.36416  0.893  1.0000
  C   C60       1.0  0.07294  0.35458  0.93743  1.0000
  H   H28       1.0  0.16480000000000009  0.4411000000000001  0.9639699999999999  1.0000
  H   H29       1.0  0.09626000000000001  0.4111500000000001  0.84127  1.0000
  H   H30       1.0  0.050429999999999996  0.32518  0.9522  1.0000
  C   C61       1.0  0.89317  0.27983  0.46558  1.0000
  C   C62       1.0  0.92896  0.28824  0.44118  1.0000
  C   C63       1.0  0.93612  0.30461  0.39724  1.0000
  C   C64       1.0  0.9062  0.31359  0.37879  1.0000
  C   C65       1.0  0.86977  0.30496  0.40235  1.0000
  C   C66       1.0  0.86385  0.28837  0.44563  1.0000
  H   H31       1.0  0.9514999999999999  0.28228  0.4572499999999999  1.0000
  H   H32       1.0  0.90934  0.32461  0.3449  1.0000
  H   H33       1.0  0.83638  0.28265  0.46405  1.0000
  C   C67       1.0  0.69929  0.63249  0.39801  1.0000
  C   C68       1.0  0.69035  0.59367  0.38006  1.0000
  C   C69       1.0  0.69804  0.56574  0.40466  1.0000
  C   C70       1.0  0.71414  0.57683  0.44825  1.0000
  C   C71       1.0  0.72292  0.61522  0.4670699999999999  1.0000
  C   C72       1.0  0.71541  0.64262  0.44166  1.0000
  H   H34       1.0  0.67896  0.58584  0.34622  1.0000
  H   H35       1.0  0.7200899999999998  0.55564  0.46751  1.0000
  H   H36       1.0  0.72137  0.67172  0.45652  1.0000
  C   C73       1.0  0.8912899999999999  0.61035  0.032850000000000046  1.0000
  C   C74       1.0  0.86196  0.57203  0.05232999999999999  1.0000
  C   C75       1.0  0.8666899999999998  0.56159  0.09670999999999985  1.0000
  C   C76       1.0  0.9032799999999999  0.5907  0.12003000000000008  1.0000
  C   C77       1.0  0.9328499999999998  0.6291  0.10122999999999993  1.0000
  C   C78       1.0  0.92632  0.63837  0.057620000000000005  1.0000
  H   H37       1.0  0.8343999999999999  0.55189  0.03323000000000009  1.0000
  H   H38       1.0  0.90964  0.58383  0.15304000000000006  1.0000
  H   H39       1.0  0.94915  0.66734  0.042280000000000095  1.0000
  C   C79       1.0  0.61468  0.89063  0.53573  1.0000
  C   C80       1.0  0.5769  0.86042  0.55525  1.0000
  C   C81       1.0  0.5670199999999999  0.86435  0.59978  1.0000
  C   C82       1.0  0.59578  0.89984  0.6242799999999997  1.0000
  C   C83       1.0  0.63371  0.93103  0.60555  1.0000
  C   C84       1.0  0.64246  0.9256  0.56098  1.0000
  H   H40       1.0  0.55595  0.83315  0.53607  1.0000
  H   H41       1.0  0.5873400000000001  0.90427  0.65744  1.0000
  H   H42       1.0  0.67166  0.94796  0.54575  1.0000
  C   C85       1.0  0.27671  0.89112  0.966  1.0000
  C   C86       1.0  0.28396  0.92612  0.94096  1.0000
  C   C87       1.0  0.3004  0.9331  0.89712  1.0000
  C   C88       1.0  0.3100099999999999  0.90338  0.87928  1.0000
  C   C89       1.0  0.3022199999999999  0.86747  0.90353  1.0000
  C   C90       1.0  0.28587  0.86196  0.94697  1.0000
  H   H43       1.0  0.27855  0.94896  0.9573299999999999  1.0000
  H   H44       1.0  0.3211  0.90637  0.84543  1.0000
  H   H45       1.0  0.28002  0.83473  0.966  1.0000
  C   C91       1.0  0.63301  0.69916  0.89827  1.0000
  C   C92       1.0  0.59364  0.68932  0.8803799999999999  1.0000
  C   C93       1.0  0.56544  0.69791  0.90385  1.0000
  C   C94       1.0  0.57703  0.71524  0.94711  1.0000
  C   C95       1.0  0.61523  0.72419  0.96629  1.0000
  C   C96       1.0  0.6427  0.71629  0.94172  1.0000
  H   H46       1.0  0.58647  0.67851  0.84641  1.0000
  H   H47       1.0  0.55596  0.72091  0.96687  1.0000
  H   H48       1.0  0.67091  0.72171  0.9582  1.0000
  Zn  Zn1       1.0  0.6225199999999999  0.33842  0.2731  1.0000
  Zn  Zn2       1.0  0.66613  0.33349  0.18965  1.0000
  Zn  Zn3       1.0  0.71485  0.3776  0.2728199999999999  1.0000
  Zn  Zn4       1.0  0.66189  0.28533  0.27325  1.0000
  O   O1        1.0  0.66632  0.33368  0.25184  1.0000
  O   O2        1.0  0.58905  0.33619  0.22889  1.0000
  O   O3        1.0  0.71044  0.38162  0.16669  1.0000
  O   O4        1.0  0.70665  0.41227  0.30837  1.0000
  O   O5        1.0  0.61792  0.32964  0.16708  1.0000
  O   O6        1.0  0.6385299999999999  0.38644  0.30385  1.0000
  O   O7        1.0  0.74564  0.41091  0.2285  1.0000
  O   O8        1.0  0.70551  0.29385  0.30782  1.0000
  O   O9        1.0  0.6696499999999999  0.28892  0.16713  1.0000
  O   O10       1.0  0.74745  0.36199  0.30289  1.0000
  O   O11       1.0  0.66342  0.25378  0.22908999999999993  1.0000
  O   O12       1.0  0.6141500000000001  0.25344  0.30447  1.0000
  O   O13       1.0  0.58784  0.29535  0.30845  1.0000
  C   C97       1.0  0.58811  0.33101  0.18695  1.0000
  C   C98       1.0  0.74148  0.41164  0.18655  1.0000
  C   C99       1.0  0.67429  0.41457  0.31722999999999996  1.0000
  C   C100      1.0  0.74028  0.32634  0.31607  1.0000
  C   C101      1.0  0.6681699999999999  0.25772  0.18711  1.0000
  C   C102      1.0  0.58579  0.26085  0.31757  1.0000
  Zn  Zn5       1.0  0.28556999999999994  0.66125  0.77405  1.0000
  Zn  Zn6       1.0  0.339  0.62219  0.77301  1.0000
  Zn  Zn7       1.0  0.33412  0.66664  0.69055  1.0000
  Zn  Zn8       1.0  0.37793  0.7143  0.7745  1.0000
  O   O14       1.0  0.33411  0.66611  0.75266  1.0000
  O   O15       1.0  0.25351  0.61269  0.80417  1.0000
  O   O16       1.0  0.33583  0.58869  0.72847  1.0000
  O   O17       1.0  0.29016  0.67138  0.66815  1.0000
  O   O18       1.0  0.29629  0.58737  0.80851  1.0000
  O   O19       1.0  0.25446  0.66419  0.72998  1.0000
  O   O20       1.0  0.32949  0.61836  0.66719  1.0000
  O   O21       1.0  0.41243  0.74489  0.73063  1.0000
  O   O22       1.0  0.38744  0.63786  0.80283  1.0000
  O   O23       1.0  0.3829  0.71048  0.6683999999999999  1.0000
  O   O24       1.0  0.41184000000000004  0.70553  0.81089  1.0000
  O   O25       1.0  0.36197  0.74695  0.80416  1.0000
  O   O26       1.0  0.29395  0.70425  0.80967  1.0000
  C   C103      1.0  0.26138  0.58458  0.81717  1.0000
  C   C104      1.0  0.33033  0.5881  0.68665  1.0000
  C   C105      1.0  0.25899  0.67  0.68813  1.0000
  C   C106      1.0  0.41338  0.7407  0.6886899999999998  1.0000
  C   C107      1.0  0.41486  0.6732600000000002  0.8177899999999999  1.0000
  C   C108      1.0  0.32622  0.73927  0.81772  1.0000
  Zn  Zn9       1.0  0.16075  0.29989  0.20029  1.0000
  Zn  Zn10      1.0  0.22323999999999997  0.36678  0.26029  1.0000
  Zn  Zn11      1.0  0.14427  0.36627  0.23486  1.0000
  Zn  Zn12      1.0  0.14108  0.30098  0.29661999999999994  1.0000
  O   O27       1.0  0.16735  0.33353  0.24801  1.0000
  O   O28       1.0  0.20931999999999995  0.30512  0.18294999999999995  1.0000
  O   O29       1.0  0.24056999999999998  0.42126  0.2524  1.0000
  O   O30       1.0  0.12976999999999994  0.36251  0.17692999999999995  1.0000
  O   O31       1.0  0.25658  0.35389  0.22667  1.0000
  O   O32       1.0  0.14083  0.31292  0.15105  1.0000
  O   O33       1.0  0.18130000000000002  0.42107  0.2416  1.0000
  O   O34       1.0  0.0977  0.30623  0.3136  1.0000
  O   O35       1.0  0.2348  0.36461  0.31829  1.0000
  O   O36       1.0  0.09823999999999997  0.35381  0.2686999999999999  1.0000
  O   O37       1.0  0.17457999999999999  0.31558  0.3456  1.0000
  O   O38       1.0  0.11849  0.24561  0.28561  1.0000
  O   O39       1.0  0.12846  0.24482  0.21283  1.0000
  C   C109      1.0  0.24695999999999999  0.32738  0.19531999999999994  1.0000
  C   C110      1.0  0.22064  0.44065  0.24692  1.0000
  C   C111      1.0  0.13067  0.34069  0.14469  1.0000
  C   C112      1.0  0.08185  0.32792  0.30067  1.0000
  C   C113      1.0  0.21251000000000003  0.3437  0.35118  1.0000
  C   C114      1.0  0.11376  0.22569  0.24946999999999994  1.0000
  Zn  Zn13      1.0  0.29947999999999997  0.14021  0.79816  1.0000
  Zn  Zn14      1.0  0.36569  0.22243  0.762  1.0000
  Zn  Zn15      1.0  0.36524999999999996  0.14354  0.73727  1.0000
  Zn  Zn16      1.0  0.29904  0.16008  0.70181  1.0000
  O   O40       1.0  0.33237000000000005  0.16656000000000007  0.7498  1.0000
  O   O41       1.0  0.31456  0.17356  0.84735  1.0000
  O   O42       1.0  0.42016999999999993  0.23983  0.75393  1.0000
  O   O43       1.0  0.35201  0.09699  0.7705099999999998  1.0000
  O   O44       1.0  0.36371  0.23379  0.82008  1.0000
  O   O45       1.0  0.30395  0.0962  0.81481  1.0000
  O   O46       1.0  0.42005  0.18043  0.74486  1.0000
  O   O47       1.0  0.31279999999999997  0.1406  0.65268  1.0000
  O   O48       1.0  0.35283  0.25584  0.72847  1.0000
  O   O49       1.0  0.36227  0.1297  0.67934  1.0000
  O   O50       1.0  0.30409  0.20867  0.68464  1.0000
  O   O51       1.0  0.24382  0.12763  0.71389  1.0000
  O   O52       1.0  0.24413  0.1183  0.78686  1.0000
  C   C115      1.0  0.34293  0.21141  0.8529799999999998  1.0000
  C   C116      1.0  0.43961  0.21987  0.74937  1.0000
  C   C117      1.0  0.32556  0.08023  0.80194  1.0000
  C   C118      1.0  0.34087  0.13075  0.64678  1.0000
  C   C119      1.0  0.32629  0.24627  0.69716  1.0000
  C   C120      1.0  0.22442  0.11336  0.75049  1.0000
  Zn  Zn17      1.0  0.15952  0.85889  0.29813  1.0000
  Zn  Zn18      1.0  0.22196  0.85547  0.23721  1.0000
  Zn  Zn19      1.0  0.14363  0.77671  0.26242  1.0000
  Zn  Zn20      1.0  0.13945999999999997  0.83906  0.20190999999999998  1.0000
  O   O53       1.0  0.16616  0.8325  0.24991  1.0000
  O   O54       1.0  0.20786999999999992  0.90322  0.31434  1.0000
  O   O55       1.0  0.2399  0.81873  0.24495999999999996  1.0000
  O   O56       1.0  0.1304  0.76552  0.32066  1.0000
  O   O57       1.0  0.2551400000000001  0.90201  0.27033  1.0000
  O   O58       1.0  0.14148  0.82587  0.34754  1.0000
  O   O59       1.0  0.18068  0.75926  0.25419  1.0000
  O   O60       1.0  0.09552999999999999  0.79055  0.18523  1.0000
  O   O61       1.0  0.23290000000000002  0.86913  0.17916  1.0000
  O   O62       1.0  0.09722  0.74339  0.22904  1.0000
  O   O63       1.0  0.17243000000000003  0.85793  0.1526  1.0000
  O   O64       1.0  0.11757000000000005  0.8723  0.21367  1.0000
  O   O65       1.0  0.12585000000000002  0.88043  0.28681  1.0000
  C   C121      1.0  0.2454  0.91907  0.30139  1.0000
  C   C122      1.0  0.22007999999999997  0.77931  0.24947999999999995  1.0000
  C   C123      1.0  0.13200000000000003  0.78805  0.35343  1.0000
  C   C124      1.0  0.08010999999999999  0.75298  0.19787  1.0000
  C   C125      1.0  0.21032999999999988  0.86781  0.14659  1.0000
  C   C126      1.0  0.11192  0.88619  0.25027  1.0000
  Zn  Zn21      1.0  0.69978  0.84097  0.29848  1.0000
  Zn  Zn22      1.0  0.63386  0.7786  0.23753  1.0000
  Zn  Zn23      1.0  0.63329  0.85682  0.26332  1.0000
  Zn  Zn24      1.0  0.69982  0.86132  0.20237  1.0000
  O   O66       1.0  0.66662  0.83442  0.25041  1.0000
  O   O67       1.0  0.69556  0.79258  0.31482  1.0000
  O   O68       1.0  0.57914  0.76056  0.24503999999999995  1.0000
  O   O69       1.0  0.63604  0.87066  0.3215099999999999  1.0000
  O   O70       1.0  0.6471  0.74537  0.27075  1.0000
  O   O71       1.0  0.68538  0.85945  0.34786  1.0000
  O   O72       1.0  0.57872  0.81951  0.25584  1.0000
  O   O73       1.0  0.69461  0.90485  0.18553  1.0000
  O   O74       1.0  0.63681  0.76777  0.1795  1.0000
  O   O75       1.0  0.6456700000000001  0.9027900000000002  0.22949999999999995  1.0000
  O   O76       1.0  0.68598  0.82835  0.15305  1.0000
  O   O77       1.0  0.75505  0.88367  0.2141  1.0000
  O   O78       1.0  0.7549  0.87438  0.28704  1.0000
  C   C127      1.0  0.67382  0.75506  0.30188  1.0000
  C   C128      1.0  0.55945  0.7802  0.25039  1.0000
  C   C129      1.0  0.65733  0.86926  0.35404  1.0000
  C   C130      1.0  0.6721  0.9199  0.19809999999999997  1.0000
  C   C131      1.0  0.65809  0.79042  0.14698  1.0000
  C   C132      1.0  0.77459  0.88885  0.25063  1.0000
  Zn  Zn25      1.0  0.79617  0.16454  0.70658  1.0000
  Zn  Zn26      1.0  0.81114  0.11416  0.773  1.0000
  Zn  Zn27      1.0  0.8845  0.18705  0.72623  1.0000
  Zn  Zn28      1.0  0.83404  0.20283  0.79163  1.0000
  O   O79       1.0  0.83183  0.16674  0.74937  1.0000
  O   O80       1.0  0.7595299999999997  0.11247  0.68935  1.0000
  O   O81       1.0  0.85083  0.09865  0.77168  1.0000
  O   O82       1.0  0.8884699999999999  0.20596  0.66862  1.0000
  O   O83       1.0  0.76826  0.07409  0.73989  1.0000
  O   O84       1.0  0.82309  0.18993  0.65687  1.0000
  O   O85       1.0  0.8997999999999999  0.14738  0.72849  1.0000
  O   O86       1.0  0.8861  0.23939  0.80905  1.0000
  O   O87       1.0  0.7915499999999999  0.11071  0.83039  1.0000
  O   O88       1.0  0.9245  0.23016  0.75897  1.0000
  O   O89       1.0  0.80804  0.17634  0.8413  1.0000
  O   O90       1.0  0.80927  0.23199  0.77468  1.0000
  O   O91       1.0  0.7672  0.18976  0.72268  1.0000
  C   C133      1.0  0.7505799999999999  0.07706  0.70477  1.0000
  C   C134      1.0  0.8851499999999999  0.11321  0.7501999999999998  1.0000
  C   C135      1.0  0.8605  0.20589  0.6436  1.0000
  C   C136      1.0  0.92152  0.24814  0.7938  1.0000
  C   C137      1.0  0.79157  0.13898  0.8548899999999999  1.0000
  C   C138      1.0  0.77844  0.22076  0.74856  1.0000
  Zn  Zn29      1.0  0.8608899999999998  0.70074  0.7025  1.0000
  Zn  Zn30      1.0  0.77824  0.63443  0.73773  1.0000
  Zn  Zn31      1.0  0.8566399999999998  0.63362  0.76202  1.0000
  Zn  Zn32      1.0  0.84074  0.6996  0.79897  1.0000
  O   O92       1.0  0.83413  0.66708  0.75029  1.0000
  O   O93       1.0  0.82772  0.68701  0.65329  1.0000
  O   O94       1.0  0.7602099999999997  0.57964  0.74489  1.0000
  O   O95       1.0  0.9030999999999999  0.64693  0.72852  1.0000
  O   O96       1.0  0.7673  0.63762  0.67987  1.0000
  O   O97       1.0  0.9047099999999999  0.69602  0.6852099999999999  1.0000
  O   O98       1.0  0.8193599999999998  0.57913  0.75345  1.0000
  O   O99       1.0  0.85929  0.68445  0.84776  1.0000
  O   O100      1.0  0.7450099999999998  0.6475200000000002  0.77128  1.0000
  O   O101      1.0  0.8700999999999999  0.63527  0.82007  1.0000
  O   O102      1.0  0.79231  0.69503  0.816  1.0000
  O   O103      1.0  0.8740099999999998  0.75496  0.78812  1.0000
  O   O104      1.0  0.88288  0.75588  0.7150099999999998  1.0000
  C   C139      1.0  0.78979  0.65901  0.64733  1.0000
  C   C140      1.0  0.77993  0.55989  0.7489299999999998  1.0000
  C   C141      1.0  0.92015  0.67373  0.69742  1.0000
  C   C142      1.0  0.86881  0.65608  0.85311  1.0000
  C   C143      1.0  0.7547399999999999  0.67365  0.80303  1.0000
  C   C144      1.0  0.88815  0.77505  0.75184  1.0000
  C   C145      1.0  0.47935999999999995  0.31367  0.16489  1.0000
  C   C146      1.0  0.47580999999999996  0.31224  0.11787999999999997  1.0000
  C   C147      1.0  0.51101  0.31726  0.09368  1.0000
  C   C148      1.0  0.5475399999999999  0.32363  0.11548  1.0000
  C   C149      1.0  0.55043  0.32542  0.16219  1.0000
  C   C150      1.0  0.51571  0.32036  0.1863  1.0000
  H   H49       1.0  0.45354  0.30766  0.18627  1.0000
  H   H50       1.0  0.51141  0.31765  0.05772  1.0000
  H   H51       1.0  0.57362  0.32742  0.09567  1.0000
  H   H52       1.0  0.51607  0.32059  0.22235999999999995  1.0000
  C   C151      1.0  0.50061  0.15509  0.36022  1.0000
  C   C152      1.0  0.47448999999999997  0.16572  0.38393  1.0000
  C   C153      1.0  0.4863799999999999  0.2081  0.38722  1.0000
  C   C154      1.0  0.52276  0.2389  0.36643  1.0000
  C   C155      1.0  0.54877  0.22831  0.34241  1.0000
  C   C156      1.0  0.53747  0.18599  0.34011  1.0000
  H   H53       1.0  0.49250999999999995  0.12278  0.35727  1.0000
  H   H54       1.0  0.46685  0.21738  0.40489  1.0000
  H   H55       1.0  0.53035  0.27109  0.36885  1.0000
  H   H56       1.0  0.55653  0.17661  0.32167999999999997  1.0000
  C   C157      1.0  0.67988  0.19309  0.09396  1.0000
  C   C158      1.0  0.6848899999999998  0.1629  0.11817  1.0000
  C   C159      1.0  0.68392  0.1653  0.16518  1.0000
  C   C160      1.0  0.67794  0.19542  0.18658  1.0000
  C   C161      1.0  0.67308  0.2252  0.16241999999999995  1.0000
  C   C162      1.0  0.67422  0.22368  0.11572  1.0000
  H   H57       1.0  0.6789499999999999  0.19283  0.05802  1.0000
  H   H58       1.0  0.68972  0.14532  0.18651999999999994  1.0000
  H   H59       1.0  0.67807  0.1958  0.22264  1.0000
  H   H60       1.0  0.6704700000000001  0.24599  0.0959  1.0000
  C   C163      1.0  0.30427999999999994  0.47674  0.6633299999999999  1.0000
  C   C164      1.0  0.31084  0.47642  0.61718  1.0000
  C   C165      1.0  0.3231899999999999  0.51373  0.59337  1.0000
  C   C166      1.0  0.32921  0.55008  0.61525  1.0000
  C   C167      1.0  0.32363  0.55025  0.6616  1.0000
  C   C168      1.0  0.31092999999999993  0.51293  0.68508  1.0000
  H   H61       1.0  0.29333  0.44873  0.6829899999999999  1.0000
  H   H62       1.0  0.32885999999999993  0.51512  0.5579  1.0000
  H   H63       1.0  0.3388999999999999  0.57818  0.5960599999999998  1.0000
  H   H64       1.0  0.30546  0.51141  0.72064  1.0000
  C   C169      1.0  0.7944799999999999  0.28019  0.38402  1.0000
  C   C170      1.0  0.8367  0.31131  0.38117  1.0000
  C   C171      1.0  0.8468  0.34809  0.3578199999999999  1.0000
  C   C172      1.0  0.81551  0.35357  0.33791  1.0000
  C   C173      1.0  0.7733299999999997  0.32208  0.34011  1.0000
  C   C174      1.0  0.76333  0.28535  0.36351  1.0000
  H   H65       1.0  0.78559  0.25133  0.40139  1.0000
  H   H66       1.0  0.8789499999999999  0.37276  0.35519  1.0000
  H   H67       1.0  0.8244500000000001  0.38214  0.31991  1.0000
  H   H68       1.0  0.73131  0.26036  0.36582  1.0000
  C   C175      1.0  0.6540499999999999  0.49984999999999996  0.36034  1.0000
  C   C176      1.0  0.69078  0.52575  0.3842  1.0000
  C   C177      1.0  0.7211499999999998  0.5136900000000002  0.3874  1.0000
  C   C178      1.0  0.7154699999999998  0.47736  0.3663799999999999  1.0000
  C   C179      1.0  0.67889  0.45158  0.3422  1.0000
  C   C180      1.0  0.6479999999999999  0.46306  0.33998  1.0000
  H   H69       1.0  0.62993  0.50808  0.35744  1.0000
  H   H70       1.0  0.74993  0.53304  0.40518  1.0000
  H   H71       1.0  0.73997  0.46963  0.36876999999999993  1.0000
  H   H72       1.0  0.61958  0.44416  0.32146  1.0000
  C   C181      1.0  0.8328799999999998  0.52036  0.16491  1.0000
  C   C182      1.0  0.8355099999999999  0.52384  0.11793  1.0000
  C   C183      1.0  0.80556  0.48865  0.09353  1.0000
  C   C184      1.0  0.7751499999999999  0.45214  0.11515  1.0000
  C   C185      1.0  0.7735899999999999  0.44931  0.16185999999999995  1.0000
  C   C186      1.0  0.80299  0.48406  0.18614  1.0000
  H   H73       1.0  0.85254  0.54617  0.18636999999999998  1.0000
  H   H74       1.0  0.8059399999999997  0.48824  0.05757  1.0000
  H   H75       1.0  0.7530799999999999  0.42603  0.09523  1.0000
  H   H76       1.0  0.80252  0.48375  0.22219999999999995  1.0000
  C   C187      1.0  0.19112999999999994  0.67735  0.59561  1.0000
  C   C188      1.0  0.16579  0.68904  0.61976  1.0000
  C   C189      1.0  0.17242000000000005  0.69478  0.66604  1.0000
  C   C190      1.0  0.20218999999999995  0.68818  0.68748  1.0000
  C   C191      1.0  0.22732  0.67638  0.66358  1.0000
  C   C192      1.0  0.22167  0.67142  0.61717  1.0000
  H   H77       1.0  0.18708  0.67222  0.56005  1.0000
  H   H78       1.0  0.15508  0.70517  0.68604  1.0000
  H   H79       1.0  0.20597000000000004  0.69309  0.72313  1.0000
  H   H80       1.0  0.24039999999999997  0.66237  0.59762  1.0000
  C   C193      1.0  0.20937  0.4839  0.8848  1.0000
  C   C194      1.0  0.16681  0.47098  0.8805499999999998  1.0000
  C   C195      1.0  0.15576000000000004  0.4969000000000001  0.85704  1.0000
  C   C196      1.0  0.18641999999999997  0.53451  0.83798  1.0000
  C   C197      1.0  0.22895000000000001  0.54686  0.8411999999999997  1.0000
  C   C198      1.0  0.23994999999999997  0.52106  0.86506  1.0000
  H   H81       1.0  0.21897  0.46463  0.90248  1.0000
  H   H82       1.0  0.1233  0.48807  0.85349  1.0000
  H   H83       1.0  0.17673000000000003  0.55337  0.81963  1.0000
  H   H84       1.0  0.27232  0.52943  0.86816  1.0000
  C   C199      1.0  0.52619  0.82346  0.6673  1.0000
  C   C200      1.0  0.52718  0.83155  0.62137  1.0000
  C   C201      1.0  0.4898199999999999  0.80825  0.59706  1.0000
  C   C202      1.0  0.45279  0.77839  0.6182599999999998  1.0000
  C   C203      1.0  0.45196  0.7715  0.66443  1.0000
  C   C204      1.0  0.48932000000000003  0.79441  0.68841  1.0000
  H   H85       1.0  0.5541599999999999  0.8393  0.68728  1.0000
  H   H86       1.0  0.48889999999999995  0.81355  0.56176  1.0000
  H   H87       1.0  0.42468000000000006  0.76127  0.59869  1.0000
  H   H88       1.0  0.4903  0.78949  0.72384  1.0000
  C   C205      1.0  0.34615  0.84534  0.85912  1.0000
  C   C206      1.0  0.30941  0.83469  0.88288  1.0000
  C   C207      1.0  0.27907  0.79224  0.88633  1.0000
  C   C208      1.0  0.28484999999999994  0.76143  0.86588  1.0000
  C   C209      1.0  0.3215  0.77201  0.84196  1.0000
  C   C210      1.0  0.35229  0.81441  0.83929  1.0000
  H   H89       1.0  0.37026  0.87767  0.85601  1.0000
  H   H90       1.0  0.25025  0.78289  0.9040099999999998  1.0000
  H   H91       1.0  0.26038  0.72921  0.86858  1.0000
  H   H92       1.0  0.38076000000000004  0.8238  0.8208999999999997  1.0000
  C   C211      1.0  0.5059  0.65861  0.8520099999999998  1.0000
  C   C212      1.0  0.52705  0.69041  0.8840399999999998  1.0000
  C   C213      1.0  0.50901  0.71509  0.8951  1.0000
  C   C214      1.0  0.47259999999999996  0.70922  0.87406  1.0000
  C   C215      1.0  0.45194  0.67761  0.84229  1.0000
  C   C216      1.0  0.46872  0.65197  0.83208  1.0000
  H   H93       1.0  0.51719  0.63774  0.84302  1.0000
  H   H94       1.0  0.52408  0.74076  0.91825  1.0000
  H   H95       1.0  0.46071  0.72975  0.8824699999999999  1.0000
  H   H96       1.0  0.45366  0.62738  0.8076299999999998  1.0000
  C   C217      1.0  0.07515999999999992  0.96219  0.28286  1.0000
  C   C218      1.0  0.045200000000000067  0.95478  0.24999  1.0000
  C   C219      1.0  0.03723000000000007  0.9245  0.21731  1.0000
  C   C220      1.0  0.05915999999999993  0.90263  0.2171  1.0000
  C   C221      1.0  0.08879999999999998  0.90965  0.2503  1.0000
  C   C222      1.0  0.09628000000000007  0.93953  0.28337  1.0000
  H   H97       1.0  0.08182  0.98519  0.30855  1.0000
  H   H98       1.0  0.014399999999999986  0.9182  0.19151999999999997  1.0000
  H   H99       1.0  0.052530000000000035  0.87979  0.19124  1.0000
  H   H100      1.0  0.11899000000000003  0.94585  0.3092999999999999  1.0000
  C   C223      1.0  0.08471999999999999  0.11292  0.22881  1.0000
  C   C224      1.0  0.045729999999999986  0.09014  0.25047  1.0000
  C   C225      1.0  0.029939999999999994  0.11336  0.27198  1.0000
  C   C226      1.0  0.05243000000000001  0.15713  0.2725  1.0000
  C   C227      1.0  0.09058  0.17929  0.25  1.0000
  C   C228      1.0  0.10626  0.1567  0.22782  1.0000
  H   H101      1.0  0.09800999999999999  0.09712  0.21068  1.0000
  H   H102      1.0  0.0009200000000000017  0.09791  0.2902699999999999  1.0000
  H   H103      1.0  0.03964  0.17377  0.28998  1.0000
  H   H104      1.0  0.13558  0.17299  0.21009  1.0000
  C   C229      1.0  0.88765  0.9641  0.21844  1.0000
  C   C230      1.0  0.9098799999999999  0.95597  0.25108  1.0000
  C   C231      1.0  0.88725  0.92563  0.28358  1.0000
  C   C232      1.0  0.84347  0.90434  0.2838  1.0000
  C   C233      1.0  0.82116  0.91203  0.2508  1.0000
  C   C234      1.0  0.8438599999999998  0.94203  0.21794  1.0000
  H   H105      1.0  0.9042399999999999  0.98718  0.19289  1.0000
  H   H106      1.0  0.90352  0.91879  0.3092  1.0000
  H   H107      1.0  0.8270099999999999  0.88135  0.30946999999999997  1.0000
  H   H108      1.0  0.82772  0.94883  0.19214  1.0000
  C   C235      1.0  0.11175999999999998  0.08441  0.72806  1.0000
  C   C236      1.0  0.08868  0.04592  0.75058  1.0000
  C   C237      1.0  0.11166999999999999  0.03045  0.77324  1.0000
  C   C238      1.0  0.15545999999999996  0.05276  0.7740099999999999  1.0000
  C   C239      1.0  0.17794  0.0904  0.75069  1.0000
  C   C240      1.0  0.15559  0.10575  0.7273599999999998  1.0000
  H   H109      1.0  0.09616  0.09743  0.70911  1.0000
  H   H110      1.0  0.09602  0.00186  0.79224  1.0000
  H   H111      1.0  0.17184999999999997  0.0402  0.7923799999999998  1.0000
  H   H112      1.0  0.1721  0.13467  0.70896  1.0000
  C   C241      1.0  0.91346  0.02813  0.76935  1.0000
  C   C242      1.0  0.9539499999999999  0.04548  0.75079  1.0000
  C   C243      1.0  0.97095  0.08582  0.73198  1.0000
  C   C244      1.0  0.94871  0.10739  0.73166  1.0000
  C   C245      1.0  0.90868  0.08993  0.75043  1.0000
  C   C246      1.0  0.89148  0.049990000000000014  0.76934  1.0000
  H   H113      1.0  0.89884  0.9981900000000001  0.78577  1.0000
  H   H114      1.0  0.0009399999999999383  0.10063  0.7156299999999998  1.0000
  H   H115      1.0  0.96304  0.13797  0.71647  1.0000
  H   H116      1.0  0.86084  0.03546  0.78437  1.0000
  C   C247      1.0  0.96248  0.88858  0.72028  1.0000
  C   C248      1.0  0.9546599999999998  0.91049  0.75359  1.0000
  C   C249      1.0  0.92475  0.88748  0.78634  1.0000
  C   C250      1.0  0.90367  0.84365  0.78616  1.0000
  C   C251      1.0  0.91111  0.82168  0.7525  1.0000
  C   C252      1.0  0.9406199999999999  0.84479  0.7194  1.0000
  H   H117      1.0  0.9851799999999998  0.90543  0.69448  1.0000
  H   H118      1.0  0.9181199999999999  0.90346  0.81245  1.0000
  H   H119      1.0  0.88104  0.82691  0.8120399999999998  1.0000
  H   H120      1.0  0.94723  0.82897  0.69308  1.0000
  C   C253      1.0  0.35180999999999996  0.33986  0.15918  1.0000
  C   C254      1.0  0.34004999999999996  0.3098  0.12473999999999998  1.0000
  C   C255      1.0  0.297  0.2857  0.11521  1.0000
  C   C256      1.0  0.26753  0.2916  0.13817  1.0000
  C   C257      1.0  0.27944  0.32175  0.17185999999999998  1.0000
  C   C258      1.0  0.32201999999999986  0.34575  0.18219  1.0000
  H   H121      1.0  0.38415  0.36041  0.16755  1.0000
  H   H122      1.0  0.28515  0.26069  0.09114  1.0000
  H   H123      1.0  0.23502  0.27198  0.1295  1.0000
  H   H124      1.0  0.33243  0.36944  0.2078  1.0000
  C   C259      1.0  0.9888999999999999  0.33959  0.33681  1.0000
  C   C260      1.0  0.9717899999999999  0.31059  0.37232  1.0000
  C   C261      1.0  0.99142  0.28719  0.38222  1.0000
  C   C262      1.0  0.026530000000000005  0.29303  0.35887  1.0000
  C   C263      1.0  0.04383999999999999  0.32236  0.32431  1.0000
  C   C264      1.0  0.024419999999999987  0.34547  0.31338  1.0000
  H   H125      1.0  0.97618  0.35925  0.3279  1.0000
  H   H126      1.0  0.97902  0.26272  0.40691  1.0000
  H   H127      1.0  0.03998999999999997  0.274  0.3679699999999999  1.0000
  H   H128      1.0  0.03688  0.3684  0.28698  1.0000
  C   C265      1.0  0.29426  0.015609999999999902  0.3747  1.0000
  C   C266      1.0  0.33721  0.030319999999999903  0.37064999999999987  1.0000
  C   C267      1.0  0.35003999999999996  0.008879999999999999  0.34173  1.0000
  C   C268      1.0  0.3205999999999999  0.97316  0.31849999999999995  1.0000
  C   C269      1.0  0.2776299999999999  0.95794  0.32379  1.0000
  C   C270      1.0  0.2650500000000001  0.9800000000000002  0.35189  1.0000
  H   H129      1.0  0.28301  0.031730000000000036  0.39554  1.0000
  H   H130      1.0  0.3828  0.019079999999999986  0.33788  1.0000
  H   H131      1.0  0.33144  0.957  0.29713  1.0000
  H   H132      1.0  0.23233  0.96973  0.35642  1.0000
  C   C271      1.0  0.7161399999999998  0.014880000000000004  0.12237  1.0000
  C   C272      1.0  0.687  0.02845999999999993  0.12643  1.0000
  C   C273      1.0  0.65307  0.006429999999999936  0.15566  1.0000
  C   C274      1.0  0.64829  0.97162  0.1796  1.0000
  C   C275      1.0  0.6771699999999999  0.95778  0.1747  1.0000
  C   C276      1.0  0.7112199999999999  0.98011  0.14588  1.0000
  H   H133      1.0  0.74324  0.03143000000000007  0.10124  1.0000
  H   H134      1.0  0.62972  0.015589999999999993  0.15946  1.0000
  H   H135      1.0  0.62162  0.95514  0.20132  1.0000
  H   H136      1.0  0.7343999999999998  0.97078  0.14147  1.0000
  C   C277      1.0  0.34329  0.35142  0.65557  1.0000
  C   C278      1.0  0.30951999999999996  0.33906  0.62598  1.0000
  C   C279      1.0  0.28113  0.29618  0.62148  1.0000
  C   C280      1.0  0.28667  0.26664  0.64481  1.0000
  C   C281      1.0  0.32062  0.2788  0.67389  1.0000
  C   C282      1.0  0.34870999999999996  0.32167  0.6793  1.0000
  H   H137      1.0  0.36605  0.38407  0.65975  1.0000
  H   H138      1.0  0.25416  0.28526  0.60008  1.0000
  H   H139      1.0  0.26405  0.23401  0.64004  1.0000
  H   H140      1.0  0.37524  0.3322  0.7013  1.0000
  C   C283      1.0  0.28312999999999994  0.98849  0.88198  1.0000
  C   C284      1.0  0.30647  0.96878  0.87213  1.0000
  C   C285      1.0  0.33579  0.98609  0.83692  1.0000
  C   C286      1.0  0.3421899999999999  0.02203  0.8139499999999997  1.0000
  C   C287      1.0  0.31928  0.04166  0.82499  1.0000
  C   C288      1.0  0.28947  0.024  0.85907  1.0000
  H   H141      1.0  0.25846  0.97593  0.90645  1.0000
  H   H142      1.0  0.35534  0.97326  0.828  1.0000
  H   H143      1.0  0.36543  0.0347  0.78785  1.0000
  H   H144      1.0  0.27053999999999995  0.03756000000000002  0.8681799999999997  1.0000
  C   C289      1.0  0.9919999999999999  0.64789  0.15630999999999995  1.0000
  C   C290      1.0  0.9701499999999998  0.66023  0.12732  1.0000
  C   C291      1.0  0.9843499999999998  0.70307  0.1232  1.0000
  C   C292      1.0  0.01956999999999992  0.73262  0.14636  1.0000
  C   C293      1.0  0.04175000000000004  0.72047  0.17486999999999997  1.0000
  C   C294      1.0  0.027260000000000006  0.67763  0.17989  1.0000
  H   H145      1.0  0.9823899999999999  0.61527  0.16011999999999996  1.0000
  H   H146      1.0  0.968  0.71394  0.1022  1.0000
  H   H147      1.0  0.02938000000000001  0.76524  0.14189  1.0000
  H   H148      1.0  0.04359999999999992  0.66712  0.20141  1.0000
  C   C295      1.0  0.013339999999999937  0.6621  0.66189  1.0000
  C   C296      1.0  0.03099999999999989  0.69141  0.62669  1.0000
  C   C297      1.0  0.011500000000000041  0.71493  0.61664  1.0000
  C   C298      1.0  0.97615  0.70905  0.63967  1.0000
  C   C299      1.0  0.9584099999999999  0.67949  0.67399  1.0000
  C   C300      1.0  0.97761  0.65617  0.68493  1.0000
  H   H149      1.0  0.025719999999999944  0.64217  0.67086  1.0000
  H   H150      1.0  0.024170000000000046  0.73947  0.59202  1.0000
  H   H151      1.0  0.96281  0.72816  0.63051  1.0000
  H   H152      1.0  0.9648199999999999  0.633  0.71109  1.0000
  C   C301      1.0  0.99323  0.31024  0.88902  1.0000
  C   C302      1.0  0.03174999999999993  0.33617  0.86775  1.0000
  C   C303      1.0  0.03299000000000009  0.33302  0.82081  1.0000
  C   C304      1.0  0.99762  0.30426  0.79665  1.0000
  C   C305      1.0  0.95953  0.27897  0.81834  1.0000
  C   C306      1.0  0.95779  0.2827  0.8646999999999998  1.0000
  H   H153      1.0  0.9895799999999999  0.31216  0.92453  1.0000
  H   H154      1.0  0.06171999999999998  0.35126  0.80261  1.0000
  H   H155      1.0  0.99998  0.30203  0.76093  1.0000
  H   H156      1.0  0.9289  0.26372  0.8824799999999998  1.0000
  C   C307      1.0  0.6587399999999999  0.65037  0.34236  1.0000
  C   C308      1.0  0.69298  0.66316  0.37133  1.0000
  C   C309      1.0  0.72125  0.7061  0.37541  1.0000
  C   C310      1.0  0.71494  0.73534  0.35256  1.0000
  C   C311      1.0  0.6803499999999999  0.72279  0.32436999999999994  1.0000
  C   C312      1.0  0.6525399999999999  0.67984  0.31908  1.0000
  H   H157      1.0  0.63616  0.61763  0.33847999999999995  1.0000
  H   H158      1.0  0.74859  0.71731  0.39629  1.0000
  H   H159      1.0  0.73742  0.76805  0.35709  1.0000
  H   H160      1.0  0.62559  0.66904  0.29766  1.0000
  C   C313      1.0  0.66562  0.96568  0.6775699999999998  1.0000
  C   C314      1.0  0.66219  0.96699  0.6306499999999998  1.0000
  C   C315      1.0  0.68826  0.00548  0.6093899999999998  1.0000
  C   C316      1.0  0.716  0.04084  0.63374  1.0000
  C   C317      1.0  0.71981  0.03905  0.6801099999999998  1.0000
  C   C318      1.0  0.69452  0.00095  0.70174  1.0000
  H   H161      1.0  0.6473999999999999  0.93694  0.69577  1.0000
  H   H162      1.0  0.68628  0.00917  0.5739  1.0000
  H   H163      1.0  0.73502  0.06973  0.61598  1.0000
  H   H164      1.0  0.6968199999999998  0.9984999999999999  0.73744  1.0000
  C   C319      1.0  0.70565  0.71638  0.88299  1.0000
  C   C320      1.0  0.66254  0.69279  0.87349  1.0000
  C   C321      1.0  0.65041  0.66303  0.8387099999999998  1.0000
  C   C322      1.0  0.6799  0.65662  0.81567  1.0000
  C   C323      1.0  0.7225099999999999  0.67988  0.82627  1.0000
  C   C324      1.0  0.73477  0.70998  0.86005  1.0000
  H   H165      1.0  0.71785  0.74133  0.90715  1.0000
  H   H166      1.0  0.61798  0.64317  0.8301499999999998  1.0000
  H   H167      1.0  0.66924  0.63311  0.7898599999999998  1.0000
  H   H168      1.0  0.76732  0.72915  0.8688299999999998  1.0000
  C   C325      1.0  0.10789  0.33142  0.01976  1.0000
  C   C326      1.0  0.11230999999999998  0.37056  0.00982  1.0000
  C   C327      1.0  0.12103  0.39886  0.04488  1.0000
  C   C328      1.0  0.12537  0.3884  0.08869999999999997  1.0000
  C   C329      1.0  0.12193  0.34964  0.09862  1.0000
  C   C330      1.0  0.11311999999999998  0.32127  0.06351  1.0000
  H   H169      1.0  0.10133  0.30901  0.99343  1.0000
  H   H170      1.0  0.1243  0.42909  0.03839  1.0000
  H   H171      1.0  0.13256  0.41124  0.11472  1.0000
  H   H172      1.0  0.11050000000000001  0.29129  0.06982  1.0000
  C   C331      1.0  0.28125  0.40491  0.44942  1.0000
  C   C332      1.0  0.26279  0.37709  0.48509  1.0000
  C   C333      1.0  0.22817  0.33756  0.47616  1.0000
  C   C334      1.0  0.21204  0.32639  0.4328  1.0000
  C   C335      1.0  0.23072  0.3541  0.39701  1.0000
  C   C336      1.0  0.26571  0.39343  0.40593  1.0000
  H   H173      1.0  0.3081  0.43541  0.45511  1.0000
  H   H174      1.0  0.21315  0.31547  0.50296  1.0000
  H   H175      1.0  0.18494  0.29604  0.42728999999999995  1.0000
  H   H176      1.0  0.28063  0.41581  0.37935  1.0000
  C   C337      1.0  0.40489  0.28027  0.95091  1.0000
  C   C338      1.0  0.37757  0.26149  0.98689  1.0000
  C   C339      1.0  0.33822  0.22644  0.97832  1.0000
  C   C340      1.0  0.32667  0.21036  0.93501  1.0000
  C   C341      1.0  0.3538  0.22944000000000006  0.89888  1.0000
  C   C342      1.0  0.39304  0.26472  0.90747  1.0000
  H   H177      1.0  0.43521  0.30747  0.95631  1.0000
  H   H178      1.0  0.3164799999999999  0.2112  0.005360000000000031  1.0000
  H   H179      1.0  0.29643  0.18301  0.92978  1.0000
  H   H180      1.0  0.41500999999999993  0.27995  0.88062  1.0000
  C   C343      1.0  0.40103  0.12222  0.54834  1.0000
  C   C344      1.0  0.37315  0.11311  0.5128  1.0000
  C   C345      1.0  0.33372000000000007  0.10837  0.52188  1.0000
  C   C346      1.0  0.32280999999999993  0.11349  0.5653099999999998  1.0000
  C   C347      1.0  0.35071  0.12251  0.60093  1.0000
  C   C348      1.0  0.3898299999999999  0.12645  0.59183  1.0000
  H   H181      1.0  0.4314399999999999  0.12571  0.54251  1.0000
  H   H182      1.0  0.31159999999999993  0.10147  0.4951499999999999  1.0000
  H   H183      1.0  0.29259  0.1105  0.5709999999999997  1.0000
  H   H184      1.0  0.41232  0.13382  0.6182799999999998  1.0000
  C   C349      1.0  0.76422  0.15553  0.9725199999999998  1.0000
  C   C350      1.0  0.73481  0.11507  0.98641  1.0000
  C   C351      1.0  0.72496  0.08186  0.95662  1.0000
  C   C352      1.0  0.7438  0.08905  0.91432  1.0000
  C   C353      1.0  0.7726599999999999  0.12969  0.90046  1.0000
  C   C354      1.0  0.78257  0.16271  0.9303  1.0000
  H   H185      1.0  0.77371  0.18187  0.99454  1.0000
  H   H186      1.0  0.7021799999999999  0.05025  0.96569  1.0000
  H   H187      1.0  0.73515  0.06293  0.89217  1.0000
  H   H188      1.0  0.8049299999999999  0.19446  0.92111  1.0000
  C   C355      1.0  0.27881  0.87655  0.047739999999999984  1.0000
  C   C356      1.0  0.25979  0.88552  0.01232  1.0000
  C   C357      1.0  0.22494000000000014  0.8899200000000003  0.021629999999999993  1.0000
  C   C358      1.0  0.20906000000000008  0.88472  0.06513  1.0000
  C   C359      1.0  0.22821999999999987  0.87592  0.10064  1.0000
  C   C360      1.0  0.2635  0.87222  0.09134  1.0000
  H   H189      1.0  0.30587  0.87333  0.04176  1.0000
  H   H190      1.0  0.2095299999999999  0.89672  0.9950099999999998  1.0000
  H   H191      1.0  0.18175000000000008  0.88753  0.07096  1.0000
  H   H192      1.0  0.27883  0.86502  0.1177  1.0000
  C   C361      1.0  0.12522999999999995  0.72006  0.45223  1.0000
  C   C362      1.0  0.11617  0.73883  0.4878499999999999  1.0000
  C   C363      1.0  0.11141  0.77351  0.47872  1.0000
  C   C364      1.0  0.1160800000000001  0.7893100000000002  0.43523  1.0000
  C   C365      1.0  0.12471  0.77027  0.39947  1.0000
  C   C366      1.0  0.12902999999999998  0.7353  0.40861  1.0000
  H   H193      1.0  0.12872  0.69314  0.45804999999999996  1.0000
  H   H194      1.0  0.10453  0.78875  0.50545  1.0000
  H   H195      1.0  0.11286000000000002  0.81641  0.42959  1.0000
  H   H196      1.0  0.13618999999999998  0.72011  0.38207  1.0000
  C   C367      1.0  0.8451399999999999  0.23128  0.52485  1.0000
  C   C368      1.0  0.88569  0.26078  0.51131  1.0000
  C   C369      1.0  0.9186199999999999  0.27119  0.54164  1.0000
  C   C370      1.0  0.9110199999999999  0.25287  0.58424  1.0000
  C   C371      1.0  0.87026  0.22405  0.59778  1.0000
  C   C372      1.0  0.83755  0.21346  0.56733  1.0000
  H   H197      1.0  0.8190299999999999  0.22148  0.5024  1.0000
  H   H198      1.0  0.9502599999999999  0.29412  0.53287  1.0000
  H   H199      1.0  0.93689  0.26197  0.60689  1.0000
  H   H200      1.0  0.80574  0.19108  0.57628  1.0000
  C   C373      1.0  0.7210699999999999  0.59901  0.5488299999999999  1.0000
  C   C374      1.0  0.73986  0.62692  0.51331  1.0000
  C   C375      1.0  0.7745899999999999  0.66631  0.52244  1.0000
  C   C376      1.0  0.79063  0.67716  0.56587  1.0000
  C   C377      1.0  0.77173  0.64924  0.6014599999999998  1.0000
  C   C378      1.0  0.73651  0.61015  0.59233  1.0000
  H   H201      1.0  0.6941099999999999  0.56862  0.54297  1.0000
  H   H202      1.0  0.78983  0.68846  0.49573  1.0000
  H   H203      1.0  0.81789  0.70735  0.57159  1.0000
  H   H204      1.0  0.72137  0.58764  0.61875  1.0000
  C   C379      1.0  0.89001  0.66146  0.97812  1.0000
  C   C380      1.0  0.88539  0.62201  0.9867799999999998  1.0000
  C   C381      1.0  0.87636  0.59444  0.95093  1.0000
  C   C382      1.0  0.87236  0.60613  0.9075099999999998  1.0000
  C   C383      1.0  0.87647  0.6454  0.89886  1.0000
  C   C384      1.0  0.88517  0.67284  0.93484  1.0000
  H   H205      1.0  0.8968299999999999  0.68336  0.005069999999999908  1.0000
  H   H206      1.0  0.8729399999999999  0.56401  0.95642  1.0000
  H   H207      1.0  0.8651599999999999  0.58396  0.88076  1.0000
  H   H208      1.0  0.88824  0.70314  0.92955  1.0000
  C   C385      1.0  0.66569  0.77608  0.02194  1.0000
  C   C386      1.0  0.6265  0.74114  0.01261  1.0000
  C   C387      1.0  0.59857  0.72195  0.04804  1.0000
  C   C388      1.0  0.60951  0.7372  0.09165  1.0000
  C   C389      1.0  0.64841  0.77259  0.10098999999999997  1.0000
  C   C390      1.0  0.6763199999999999  0.7919  0.06547  1.0000
  H   H209      1.0  0.68787  0.79158  0.99532  1.0000
  H   H210      1.0  0.56836  0.69479  0.04204  1.0000
  H   H211      1.0  0.58701  0.72174  0.11801  1.0000
  H   H212      1.0  0.70639  0.8193  0.07133  1.0000
  C   C391      1.0  0.6651999999999999  0.89052  0.47923  1.0000
  C   C392      1.0  0.62585  0.88567  0.48906  1.0000
  C   C393      1.0  0.59764  0.87675  0.45386  1.0000
  C   C394      1.0  0.6085099999999999  0.87293  0.4099899999999999  1.0000
  C   C395      1.0  0.64761  0.87709  0.40019  1.0000
  C   C396      1.0  0.67577  0.88584  0.43549  1.0000
  H   H213      1.0  0.68758  0.89722  0.50563  1.0000
  H   H214      1.0  0.56724  0.87312  0.4602499999999999  1.0000
  H   H215      1.0  0.5858  0.86572  0.3838199999999999  1.0000
  H   H216      1.0  0.70598  0.88896  0.42931999999999987  1.0000
  C   C397      1.0  0.30386  0.55289  0.26958  1.0000
  C   C398      1.0  0.28802  0.57561  0.24749999999999997  1.0000
  C   C399      1.0  0.24959  0.55306  0.22512999999999994  1.0000
  C   C400      1.0  0.22758  0.50939  0.22528999999999993  1.0000
  C   C401      1.0  0.24376999999999996  0.48697  0.24697  1.0000
  C   C402      1.0  0.2822799999999999  0.50925  0.26889  1.0000
  H   H217      1.0  0.33272  0.56873  0.2881  1.0000
  H   H218      1.0  0.23658999999999997  0.56906  0.20686  1.0000
  H   H219      1.0  0.19815  0.49312  0.20776  1.0000
  H   H220      1.0  0.29539  0.49287  0.2862999999999999  1.0000
  C   C403      1.0  0.30382999999999993  0.75089  0.22726999999999994  1.0000
  C   C404      1.0  0.2877799999999999  0.71206  0.24882  1.0000
  C   C405      1.0  0.24905  0.6958  0.27061999999999997  1.0000
  C   C406      1.0  0.22694999999999999  0.71737  0.27041  1.0000
  C   C407      1.0  0.24334  0.75625  0.24928  1.0000
  C   C408      1.0  0.28213999999999995  0.77286  0.22792  1.0000
  H   H221      1.0  0.33296  0.76422  0.20921  1.0000
  H   H222      1.0  0.23588  0.6666  0.2885199999999999  1.0000
  H   H223      1.0  0.19731  0.70393  0.28754  1.0000
  H   H224      1.0  0.29541  0.80257  0.21096  1.0000
  C   C409      1.0  0.44737  0.69668  0.22726999999999994  1.0000
  C   C410      1.0  0.42447999999999997  0.71231  0.24938  1.0000
  C   C411      1.0  0.44686  0.75066  0.27194  1.0000
  C   C412      1.0  0.49053  0.7728  0.2719  1.0000
  C   C413      1.0  0.51313  0.75684  0.25017  1.0000
  C   C414      1.0  0.49103  0.7184  0.22808  1.0000
  H   H225      1.0  0.43166999999999994  0.66787  0.20863  1.0000
  H   H226      1.0  0.43073999999999996  0.76348  0.29028  1.0000
  H   H227      1.0  0.5066499999999999  0.80216  0.28957  1.0000
  H   H228      1.0  0.50756  0.70547  0.21065  1.0000
  C   C415      1.0  0.55211  0.24879  0.72805  1.0000
  C   C416      1.0  0.57466  0.2879  0.74916  1.0000
  C   C417      1.0  0.5519  0.30411  0.77044  1.0000
  C   C418      1.0  0.5082199999999999  0.28224  0.77012  1.0000
  C   C419      1.0  0.48595999999999995  0.24312  0.74938  1.0000
  C   C420      1.0  0.50844  0.22655  0.7286  1.0000
  H   H229      1.0  0.56812  0.23545  0.71042  1.0000
  H   H230      1.0  0.5677  0.3335  0.78799  1.0000
  H   H231      1.0  0.4918199999999999  0.29569  0.78682  1.0000
  H   H232      1.0  0.49221  0.19665  0.71196  1.0000
  C   C421      1.0  0.74723  0.30213  0.77407  1.0000
  C   C422      1.0  0.7110899999999999  0.28839  0.74812  1.0000
  C   C423      1.0  0.6973699999999997  0.2522  0.72225  1.0000
  C   C424      1.0  0.7192399999999997  0.2304  0.72225  1.0000
  C   C425      1.0  0.7553  0.24406  0.74834  1.0000
  C   C426      1.0  0.7689699999999999  0.28021  0.7742799999999997  1.0000
  H   H233      1.0  0.75841  0.32959  0.79477  1.0000
  H   H234      1.0  0.66994  0.241  0.70149  1.0000
  H   H235      1.0  0.7078  0.20275  0.70181  1.0000
  H   H236      1.0  0.79655  0.29164  0.79483  1.0000
  C   C427      1.0  0.7507000000000001  0.44716  0.7689299999999998  1.0000
  C   C428      1.0  0.7115999999999999  0.42484  0.74778  1.0000
  C   C429      1.0  0.69542  0.44783  0.72695  1.0000
  C   C430      1.0  0.71734  0.4915200000000001  0.7276999999999998  1.0000
  C   C431      1.0  0.75649  0.51354  0.74844  1.0000
  C   C432      1.0  0.7729899999999997  0.49082000000000003  0.76882  1.0000
  H   H237      1.0  0.76401  0.43098  0.78629  1.0000
  H   H238      1.0  0.6659999999999999  0.4322  0.70942  1.0000
  H   H239      1.0  0.70394  0.50812  0.71134  1.0000
  H   H240      1.0  0.8028899999999999  0.50685  0.78547  1.0000
