data_image0
_chemical_formula_structural       Co54H270C432N54O216
_chemical_formula_sum              "Co54 H270 C432 N54 O216"
_cell_length_a       31.98864
_cell_length_b       31.99761
_cell_length_c       23.383949999999995
_cell_angle_alpha    89.99301
_cell_angle_beta     90.00454
_cell_angle_gamma    119.97838

_symmetry_space_group_name_H-M    'P 1'
_symmetry_Int_Tables_number       1

loop_
  _symmetry_equiv_pos_as_xyz
  'x,y,z'

loop_
  _atom_site_type_symbol
  _atom_site_label
  _atom_site_symmetry_multiplicity
  _atom_site_fract_x
  _atom_site_fract_y
  _atom_site_fract_z
  _atom_site_occupancy
  Co  Co1       1.0  0.22362  0.04714  0.8871000000000001  1.0000
  Co  Co2       1.0  0.20903000000000005  0.16156000000000006  0.88897  1.0000
  Co  Co3       1.0  0.22082  0.1105  0.7652300000000002  1.0000
  Co  Co4       1.0  0.9529200000000001  0.7911900000000001  0.8886900000000001  1.0000
  Co  Co5       1.0  0.50484  0.12408  0.72208  1.0000
  Co  Co6       1.0  0.2862700000000001  0.8284100000000001  0.05518000000000001  1.0000
  Co  Co7       1.0  0.88956  0.78014  0.7647500000000002  1.0000
  Co  Co8       1.0  0.21949  0.11004000000000003  0.26504  1.0000
  Co  Co9       1.0  0.22285000000000005  0.7761  0.93148  1.0000
  Co  Co10      1.0  0.95313  0.17659000000000002  0.8868400000000002  1.0000
  Co  Co11      1.0  0.8381400000000001  0.04723  0.8889400000000001  1.0000
  Co  Co12      1.0  0.89056  0.11003  0.76513  1.0000
  Co  Co13      1.0  0.87579  0.3805400000000001  0.7220300000000001  1.0000
  Co  Co14      1.0  0.17160000000000006  0.4577500000000001  0.05508  1.0000
  Co  Co15      1.0  0.8896399999999998  0.11044000000000002  0.26523  1.0000
  Co  Co16      1.0  0.22391  0.4468  0.93139  1.0000
  Co  Co17      1.0  0.82355  0.7762900000000003  0.88705  1.0000
  Co  Co18      1.0  0.6195  0.49518000000000006  0.72201  1.0000
  Co  Co19      1.0  0.5427100000000001  0.7144300000000002  0.05528000000000002  1.0000
  Co  Co20      1.0  0.89064  0.78015  0.26484  1.0000
  Co  Co21      1.0  0.55283  0.77677  0.9314100000000002  1.0000
  Co  Co22      1.0  0.9527600000000002  0.77631  0.38704  1.0000
  Co  Co23      1.0  0.8382  0.7912  0.38864000000000004  1.0000
  Co  Co24      1.0  0.20929  0.04739  0.38878000000000007  1.0000
  Co  Co25      1.0  0.8758099999999998  0.49517  0.22216  1.0000
  Co  Co26      1.0  0.17159  0.71427  0.5554300000000001  1.0000
  Co  Co27      1.0  0.22395000000000007  0.77677  0.43154  1.0000
  Co  Co28      1.0  0.8235999999999998  0.04712  0.3871600000000001  1.0000
  Co  Co29      1.0  0.9527600000000003  0.16161000000000006  0.38909000000000005  1.0000
  Co  Co30      1.0  0.61962  0.12446  0.2218  1.0000
  Co  Co31      1.0  0.54255  0.82851  0.55531  1.0000
  Co  Co32      1.0  0.55285  0.77604  0.43154  1.0000
  Co  Co33      1.0  0.22358  0.17664  0.38683  1.0000
  Co  Co34      1.0  0.5048700000000002  0.3805500000000001  0.22216  1.0000
  Co  Co35      1.0  0.28596  0.45756  0.55541  1.0000
  Co  Co36      1.0  0.22323  0.44723  0.4314600000000001  1.0000
  Co  Co37      1.0  0.89033  0.38036  0.22075  1.0000
  Co  Co38      1.0  0.88618  0.4427700000000001  0.09854000000000003  1.0000
  Co  Co39      1.0  0.55621  0.11346  0.09823  1.0000
  Co  Co40      1.0  0.8861900000000001  0.4433500000000001  0.59853  1.0000
  Co  Co41      1.0  0.61971  0.51002  0.22078  1.0000
  Co  Co42      1.0  0.55711  0.44338  0.09859000000000001  1.0000
  Co  Co43      1.0  0.55661  0.4427300000000001  0.59857  1.0000
  Co  Co44      1.0  0.49019  0.10941000000000001  0.22092  1.0000
  Co  Co45      1.0  0.5573199999999998  0.11377000000000001  0.59859  1.0000
  Co  Co46      1.0  0.61961  0.1095  0.72079  1.0000
  Co  Co47      1.0  0.49002  0.38043000000000005  0.72079  1.0000
  Co  Co48      1.0  0.89052  0.51006  0.7207800000000001  1.0000
  Co  Co49      1.0  0.55708  0.71385  0.5538100000000001  1.0000
  Co  Co50      1.0  0.28617000000000004  0.8433000000000002  0.55386  1.0000
  Co  Co51      1.0  0.15677  0.44301  0.5538100000000001  1.0000
  Co  Co52      1.0  0.2861700000000001  0.4428800000000001  0.05419  1.0000
  Co  Co53      1.0  0.15673  0.71385  0.054230000000000014  1.0000
  Co  Co54      1.0  0.55704  0.8433500000000002  0.05375  1.0000
  H   H1        1.0  0.35221  0.053600000000000016  0.84112  1.0000
  H   H2        1.0  0.43459  0.06997  0.81007  1.0000
  H   H3        1.0  0.37414999999999987  0.17428  0.73825  1.0000
  H   H4        1.0  0.008290000000000046  0.92555  0.69104  1.0000
  H   H5        1.0  0.21621  0.95822  0.8383100000000001  1.0000
  H   H6        1.0  0.23455999999999994  0.89267  0.86606  1.0000
  H   H7        1.0  0.45651  0.18716  0.7122200000000001  1.0000
  H   H8        1.0  0.10226  0.003850000000000001  0.69209  1.0000
  H   H9        1.0  0.21369  0.0362  0.06504000000000001  1.0000
  H   H10       1.0  0.26523  0.95116  0.035960000000000006  1.0000
  H   H11       1.0  0.24798  0.01627  0.00148  1.0000
  H   H12       1.0  0.21763999999999994  0.04267  0.17190000000000003  1.0000
  H   H13       1.0  0.22706  0.17682  0.05966000000000001  1.0000
  H   H14       1.0  0.22757  0.17674  0.16712  1.0000
  H   H15       1.0  0.1743399999999999  0.0804  0.8518  1.0000
  H   H16       1.0  0.94637  0.29835  0.84107  1.0000
  H   H17       1.0  0.93001  0.36435  0.81007  1.0000
  H   H18       1.0  0.8256599999999997  0.19983  0.7381100000000003  1.0000
  H   H19       1.0  0.07433  0.08273  0.6909  1.0000
  H   H20       1.0  0.04186999999999997  0.25817  0.83835  1.0000
  H   H21       1.0  0.10734  0.34195  0.86614  1.0000
  H   H22       1.0  0.81277  0.26935  0.7122  1.0000
  H   H23       1.0  0.99606  0.09844000000000001  0.69212  1.0000
  H   H24       1.0  0.96381  0.17767  0.06484  1.0000
  H   H25       1.0  0.048770000000000056  0.3140000000000001  0.036070000000000005  1.0000
  H   H26       1.0  0.98375  0.23175  0.00147  1.0000
  H   H27       1.0  0.95764  0.17453  0.17191  1.0000
  H   H28       1.0  0.82321  0.05047  0.05941000000000001  1.0000
  H   H29       1.0  0.8237399999999998  0.05055  0.16699  1.0000
  H   H30       1.0  0.9200899999999997  0.09373  0.85149  1.0000
  H   H31       1.0  0.70135  0.64783  0.8411300000000003  1.0000
  H   H32       1.0  0.6354399999999998  0.56549  0.81002  1.0000
  H   H33       1.0  0.80011  0.62582  0.73824  1.0000
  H   H34       1.0  0.9172600000000001  0.9916400000000002  0.69109  1.0000
  H   H35       1.0  0.74186  0.78371  0.8382500000000002  1.0000
  H   H36       1.0  0.65802  0.7653400000000001  0.86618  1.0000
  H   H37       1.0  0.73066  0.5435  0.71212  1.0000
  H   H38       1.0  0.9015199999999999  0.8975800000000002  0.69217  1.0000
  H   H39       1.0  0.82238  0.7863100000000002  0.06497  1.0000
  H   H40       1.0  0.68617  0.73476  0.036000000000000004  1.0000
  H   H41       1.0  0.76849  0.7520400000000003  0.00134  1.0000
  H   H42       1.0  0.8250099999999998  0.78256  0.17188  1.0000
  H   H43       1.0  0.94962  0.77285  0.05961000000000002  1.0000
  H   H44       1.0  0.94923  0.77268  0.16696  1.0000
  H   H45       1.0  0.9057600000000001  0.8257500000000001  0.8512800000000001  1.0000
  H   H46       1.0  0.9465100000000002  0.6478900000000002  0.34107000000000004  1.0000
  H   H47       1.0  0.9301  0.56545  0.31016  1.0000
  H   H48       1.0  0.8257400000000001  0.62582  0.23820000000000005  1.0000
  H   H49       1.0  0.07441000000000003  0.9917300000000002  0.19107  1.0000
  H   H50       1.0  0.04173999999999999  0.78373  0.33823000000000003  1.0000
  H   H51       1.0  0.10725999999999997  0.76537  0.36616  1.0000
  H   H52       1.0  0.8129099999999999  0.54347  0.21221000000000007  1.0000
  H   H53       1.0  0.99625  0.8976800000000001  0.19229  1.0000
  H   H54       1.0  0.96391  0.78632  0.5650300000000001  1.0000
  H   H55       1.0  0.04858000000000005  0.73476  0.53596  1.0000
  H   H56       1.0  0.9835399999999999  0.75208  0.50134  1.0000
  H   H57       1.0  0.95757  0.7826  0.67192  1.0000
  H   H58       1.0  0.8232  0.77289  0.5597600000000001  1.0000
  H   H59       1.0  0.8235  0.7727000000000002  0.6671  1.0000
  H   H60       1.0  0.9199700000000001  0.8257200000000002  0.3513  1.0000
  H   H61       1.0  0.70143  0.05355  0.34113  1.0000
  H   H62       1.0  0.6354399999999998  0.07001  0.31006  1.0000
  H   H63       1.0  0.80012  0.17423  0.23827000000000007  1.0000
  H   H64       1.0  0.9172099999999997  0.92546  0.19104000000000002  1.0000
  H   H65       1.0  0.74192  0.95822  0.33835000000000004  1.0000
  H   H66       1.0  0.65809  0.8927300000000001  0.3662  1.0000
  H   H67       1.0  0.73066  0.18716  0.21222000000000002  1.0000
  H   H68       1.0  0.90159  0.003820000000000001  0.19216  1.0000
  H   H69       1.0  0.82245  0.03616  0.56507  1.0000
  H   H70       1.0  0.6860200000000002  0.9513400000000002  0.53606  1.0000
  H   H71       1.0  0.76835  0.01632  0.50148  1.0000
  H   H72       1.0  0.8249799999999998  0.04271  0.67193  1.0000
  H   H73       1.0  0.9496  0.17671  0.5595500000000001  1.0000
  H   H74       1.0  0.94909  0.17672  0.66705  1.0000
  H   H75       1.0  0.90591  0.08014000000000003  0.35172000000000003  1.0000
  H   H76       1.0  0.35202  0.29845  0.34108  1.0000
  H   H77       1.0  0.43441  0.3644  0.31018  1.0000
  H   H78       1.0  0.3742  0.19987000000000005  0.23807  1.0000
  H   H79       1.0  0.00833  0.0827  0.19086000000000006  1.0000
  H   H80       1.0  0.21632000000000004  0.25809000000000004  0.33834  1.0000
  H   H81       1.0  0.23463  0.34189000000000014  0.3662  1.0000
  H   H82       1.0  0.45658  0.26932  0.21224000000000004  1.0000
  H   H83       1.0  0.10234999999999997  0.09837  0.19203000000000003  1.0000
  H   H84       1.0  0.21382  0.17765  0.5647500000000001  1.0000
  H   H85       1.0  0.2652800000000001  0.3138900000000001  0.53606  1.0000
  H   H86       1.0  0.24798  0.23158  0.5015  1.0000
  H   H87       1.0  0.2169  0.17456  0.6718100000000001  1.0000
  H   H88       1.0  0.22728  0.050420000000000006  0.5594  1.0000
  H   H89       1.0  0.22683  0.05053  0.66696  1.0000
  H   H90       1.0  0.17394  0.09373  0.3513900000000001  1.0000
  H   H91       1.0  0.018790000000000005  0.38687  0.17439  1.0000
  H   H92       1.0  0.10121  0.40328  0.14335  1.0000
  H   H93       1.0  0.04074999999999997  0.50754  0.07145  1.0000
  H   H94       1.0  0.67508  0.25877  0.02436  1.0000
  H   H95       1.0  0.8830500000000001  0.29137  0.17167  1.0000
  H   H96       1.0  0.9013799999999997  0.22593  0.19961000000000004  1.0000
  H   H97       1.0  0.12319999999999996  0.52052  0.04559000000000001  1.0000
  H   H98       1.0  0.76886  0.33695  0.025260000000000008  1.0000
  H   H99       1.0  0.88037  0.36955000000000005  0.3983100000000001  1.0000
  H   H100      1.0  0.93188  0.28464  0.36946  1.0000
  H   H101      1.0  0.9147399999999999  0.34973  0.33466  1.0000
  H   H102      1.0  0.88442  0.37603  0.5051500000000001  1.0000
  H   H103      1.0  0.8937599999999997  0.51015  0.3929000000000001  1.0000
  H   H104      1.0  0.89434  0.5101  0.50046  1.0000
  H   H105      1.0  0.84001  0.4132  0.18541  1.0000
  H   H106      1.0  0.61309  0.6318200000000002  0.17448  1.0000
  H   H107      1.0  0.5966899999999998  0.69778  0.14339  1.0000
  H   H108      1.0  0.49246  0.53324  0.07155  1.0000
  H   H109      1.0  0.74122  0.41623  0.0246  1.0000
  H   H110      1.0  0.7086000000000001  0.5915700000000002  0.17164  1.0000
  H   H111      1.0  0.7741  0.67532  0.1995  1.0000
  H   H112      1.0  0.4794300000000001  0.60268  0.045610000000000005  1.0000
  H   H113      1.0  0.66297  0.43183000000000005  0.02525  1.0000
  H   H114      1.0  0.63042  0.5106900000000001  0.39826  1.0000
  H   H115      1.0  0.7155  0.6473300000000001  0.36938  1.0000
  H   H116      1.0  0.65042  0.56511  0.33478  1.0000
  H   H117      1.0  0.62397  0.50829  0.50513  1.0000
  H   H118      1.0  0.48986  0.38354  0.39292  1.0000
  H   H119      1.0  0.48994000000000004  0.38418000000000013  0.50048  1.0000
  H   H120      1.0  0.58669  0.4267700000000001  0.18534  1.0000
  H   H121      1.0  0.36802  0.98124  0.17453  1.0000
  H   H122      1.0  0.30205  0.89885  0.14352  1.0000
  H   H123      1.0  0.4667400000000001  0.9592200000000002  0.07162  1.0000
  H   H124      1.0  0.58379  0.32496  0.024680000000000007  1.0000
  H   H125      1.0  0.40847  0.11702  0.17163000000000003  1.0000
  H   H126      1.0  0.32463000000000003  0.09864000000000002  0.19967  1.0000
  H   H127      1.0  0.3972899999999999  0.87681  0.0456  1.0000
  H   H128      1.0  0.56807  0.23108  0.0255  1.0000
  H   H129      1.0  0.4892600000000001  0.11960000000000003  0.39826  1.0000
  H   H130      1.0  0.35286  0.06803  0.36941000000000007  1.0000
  H   H131      1.0  0.43519  0.08537  0.33470000000000005  1.0000
  H   H132      1.0  0.49172  0.11561000000000002  0.5051  1.0000
  H   H133      1.0  0.61654  0.10622  0.39291  1.0000
  H   H134      1.0  0.6159  0.10569  0.50045  1.0000
  H   H135      1.0  0.57232  0.15913000000000005  0.185  1.0000
  H   H136      1.0  0.6130599999999998  0.98121  0.6744600000000001  1.0000
  H   H137      1.0  0.5966899999999998  0.89885  0.64348  1.0000
  H   H138      1.0  0.49239  0.95926  0.5714800000000001  1.0000
  H   H139      1.0  0.74111  0.32478  0.52439  1.0000
  H   H140      1.0  0.70855  0.11694  0.6717400000000001  1.0000
  H   H141      1.0  0.77408  0.09869  0.6996400000000002  1.0000
  H   H142      1.0  0.47944  0.87684  0.54562  1.0000
  H   H143      1.0  0.66294  0.23097  0.5254  1.0000
  H   H144      1.0  0.6306  0.11964000000000002  0.89824  1.0000
  H   H145      1.0  0.71537  0.06799  0.86948  1.0000
  H   H146      1.0  0.65035  0.08532  0.8348200000000001  1.0000
  H   H147      1.0  0.62427  0.11584000000000003  0.005150000000000001  1.0000
  H   H148      1.0  0.4899  0.10613  0.89295  1.0000
  H   H149      1.0  0.49018  0.10599  0.00036  1.0000
  H   H150      1.0  0.58662  0.15938  0.6849600000000001  1.0000
  H   H151      1.0  0.36818  0.38692  0.6745100000000002  1.0000
  H   H152      1.0  0.30218  0.40330000000000005  0.64343  1.0000
  H   H153      1.0  0.4668  0.50753  0.5715500000000001  1.0000
  H   H154      1.0  0.58383  0.2589  0.52443  1.0000
  H   H155      1.0  0.40843  0.29134  0.67166  1.0000
  H   H156      1.0  0.32469  0.22596  0.6995300000000001  1.0000
  H   H157      1.0  0.39734  0.5205000000000001  0.54558  1.0000
  H   H158      1.0  0.56814  0.33711  0.52535  1.0000
  H   H159      1.0  0.4893  0.36957  0.8980400000000001  1.0000
  H   H160      1.0  0.35287  0.28463  0.8694200000000001  1.0000
  H   H161      1.0  0.43505  0.34971  0.83466  1.0000
  H   H162      1.0  0.4915999999999999  0.37605  0.00485  1.0000
  H   H163      1.0  0.61642  0.51004  0.8927000000000003  1.0000
  H   H164      1.0  0.61571  0.51005  0.00022000000000000003  1.0000
  H   H165      1.0  0.57289  0.4134400000000001  0.68497  1.0000
  H   H166      1.0  0.018779999999999956  0.63181  0.6745300000000001  1.0000
  H   H167      1.0  0.10103000000000015  0.6977900000000002  0.64337  1.0000
  H   H168      1.0  0.04091000000000001  0.53322  0.5715  1.0000
  H   H169      1.0  0.67513  0.4162200000000001  0.52462  1.0000
  H   H170      1.0  0.8830199999999999  0.59151  0.6716700000000001  1.0000
  H   H171      1.0  0.9013  0.6753  0.6995000000000001  1.0000
  H   H172      1.0  0.12323999999999999  0.60271  0.54549  1.0000
  H   H173      1.0  0.7690100000000002  0.4319000000000001  0.52541  1.0000
  H   H174      1.0  0.88039  0.51083  0.89808  1.0000
  H   H175      1.0  0.9319000000000002  0.6473000000000002  0.8693800000000003  1.0000
  H   H176      1.0  0.9147099999999999  0.56501  0.8348200000000001  1.0000
  H   H177      1.0  0.8845  0.50844  0.00496  1.0000
  H   H178      1.0  0.89377  0.3836  0.8927000000000003  1.0000
  H   H179      1.0  0.8944099999999998  0.38424  0.00028  1.0000
  H   H180      1.0  0.84068  0.4271400000000001  0.6851000000000002  1.0000
  H   H181      1.0  0.68539  0.72028  0.50779  1.0000
  H   H182      1.0  0.7678  0.73667  0.4768400000000001  1.0000
  H   H183      1.0  0.70743  0.841  0.4048700000000001  1.0000
  H   H184      1.0  0.34166  0.59222  0.35797  1.0000
  H   H185      1.0  0.54953  0.62496  0.5049800000000001  1.0000
  H   H186      1.0  0.56795  0.55947  0.53271  1.0000
  H   H187      1.0  0.78986  0.85389  0.37895  1.0000
  H   H188      1.0  0.43549  0.67045  0.35875  1.0000
  H   H189      1.0  0.54694  0.70288  0.73176  1.0000
  H   H190      1.0  0.59866  0.61799  0.7026100000000002  1.0000
  H   H191      1.0  0.58122  0.6829700000000002  0.66818  1.0000
  H   H192      1.0  0.55094  0.7094  0.8386200000000001  1.0000
  H   H193      1.0  0.5603800000000001  0.8435200000000002  0.72626  1.0000
  H   H194      1.0  0.5608199999999998  0.84343  0.83375  1.0000
  H   H195      1.0  0.5072100000000002  0.7467800000000001  0.51814  1.0000
  H   H196      1.0  0.2796700000000001  0.9651200000000002  0.50781  1.0000
  H   H197      1.0  0.26334999999999986  0.03112  0.47671000000000013  1.0000
  H   H198      1.0  0.15897000000000003  0.86657  0.40485  1.0000
  H   H199      1.0  0.4077499999999999  0.74952  0.35801000000000005  1.0000
  H   H200      1.0  0.3750700000000001  0.9247000000000002  0.5049900000000002  1.0000
  H   H201      1.0  0.44055  0.00851  0.53271  1.0000
  H   H202      1.0  0.14608000000000004  0.9360800000000001  0.37884  1.0000
  H   H203      1.0  0.32949  0.76513  0.35867  1.0000
  H   H204      1.0  0.2970800000000001  0.8441800000000003  0.73161  1.0000
  H   H205      1.0  0.3820000000000002  0.9806800000000002  0.7026400000000002  1.0000
  H   H206      1.0  0.31703  0.89835  0.66816  1.0000
  H   H207      1.0  0.2908000000000001  0.8416500000000002  0.8385600000000002  1.0000
  H   H208      1.0  0.1565  0.71705  0.7263600000000001  1.0000
  H   H209      1.0  0.15679999999999988  0.71745  0.8337700000000001  1.0000
  H   H210      1.0  0.25318000000000007  0.7604400000000002  0.51849  1.0000
  H   H211      1.0  0.03476000000000003  0.31457  0.50774  1.0000
  H   H212      1.0  0.96889  0.23219000000000006  0.47690000000000005  1.0000
  H   H213      1.0  0.13343999999999998  0.29254  0.4047300000000001  1.0000
  H   H214      1.0  0.25052  0.65832  0.35791000000000006  1.0000
  H   H215      1.0  0.07530999999999999  0.45043  0.50493  1.0000
  H   H216      1.0  0.99143  0.4320600000000001  0.53267  1.0000
  H   H217      1.0  0.06406000000000002  0.21008000000000004  0.37898  1.0000
  H   H218      1.0  0.23484999999999995  0.56445  0.35862  1.0000
  H   H219      1.0  0.15573  0.45302  0.73164  1.0000
  H   H220      1.0  0.019319999999999983  0.40138  0.7025800000000002  1.0000
  H   H221      1.0  0.10171999999999998  0.41876  0.66811  1.0000
  H   H222      1.0  0.15833000000000005  0.44929000000000013  0.8386  1.0000
  H   H223      1.0  0.28297  0.43955  0.72634  1.0000
  H   H224      1.0  0.28258  0.4394600000000001  0.8337400000000001  1.0000
  H   H225      1.0  0.23947  0.49275000000000013  0.5183  1.0000
  H   H226      1.0  0.27982  0.31456  0.00782  1.0000
  H   H227      1.0  0.26339  0.23215000000000002  0.9768000000000002  1.0000
  H   H228      1.0  0.15912  0.29264  0.90499  1.0000
  H   H229      1.0  0.40772  0.65837  0.85796  1.0000
  H   H230      1.0  0.3751  0.45049  0.00488  1.0000
  H   H231      1.0  0.44068  0.4321700000000001  0.03248  1.0000
  H   H232      1.0  0.14617  0.21021000000000004  0.87892  1.0000
  H   H233      1.0  0.32967  0.56448  0.8589300000000002  1.0000
  H   H234      1.0  0.29702  0.45304  0.23167000000000004  1.0000
  H   H235      1.0  0.38223  0.40137  0.20244  1.0000
  H   H236      1.0  0.31718  0.4187700000000001  0.16815  1.0000
  H   H237      1.0  0.29061  0.44901000000000013  0.33852000000000004  1.0000
  H   H238      1.0  0.15636  0.4396  0.22631  1.0000
  H   H239      1.0  0.15648000000000006  0.4391500000000001  0.33378  1.0000
  H   H240      1.0  0.2535100000000001  0.49242000000000014  0.01785  1.0000
  H   H241      1.0  0.0346500000000001  0.7201400000000002  0.007770000000000002  1.0000
  H   H242      1.0  0.96869  0.73669  0.9767500000000001  1.0000
  H   H243      1.0  0.1334  0.84085  0.9050000000000002  1.0000
  H   H244      1.0  0.25047  0.59215  0.8579  1.0000
  H   H245      1.0  0.07537000000000012  0.6249700000000002  0.004810000000000001  1.0000
  H   H246      1.0  0.99153  0.55941  0.03241  1.0000
  H   H247      1.0  0.06389999999999997  0.85384  0.8789000000000002  1.0000
  H   H248      1.0  0.23472000000000012  0.6702900000000003  0.8590200000000001  1.0000
  H   H249      1.0  0.15592  0.703  0.23165000000000002  1.0000
  H   H250      1.0  0.019120000000000022  0.6178  0.20240000000000005  1.0000
  H   H251      1.0  0.10147000000000007  0.6828200000000002  0.16811  1.0000
  H   H252      1.0  0.15833000000000017  0.7094300000000002  0.33849000000000007  1.0000
  H   H253      1.0  0.2830900000000001  0.8435200000000002  0.22625000000000006  1.0000
  H   H254      1.0  0.2824900000000001  0.84346  0.33373  1.0000
  H   H255      1.0  0.23901000000000006  0.7466500000000003  0.0179  1.0000
  H   H256      1.0  0.68538  0.96523  0.007790000000000001  1.0000
  H   H257      1.0  0.76774  0.03113000000000001  0.9768100000000001  1.0000
  H   H258      1.0  0.7074300000000001  0.8665600000000002  0.90485  1.0000
  H   H259      1.0  0.3416099999999999  0.74959  0.8580200000000002  1.0000
  H   H260      1.0  0.54951  0.9246  0.00492  1.0000
  H   H261      1.0  0.56789  0.00849  0.03251  1.0000
  H   H262      1.0  0.78988  0.93594  0.87892  1.0000
  H   H263      1.0  0.4354499999999999  0.7651  0.85875  1.0000
  H   H264      1.0  0.5470100000000001  0.8441600000000002  0.23168  1.0000
  H   H265      1.0  0.59857  0.9807800000000002  0.20250000000000004  1.0000
  H   H266      1.0  0.58127  0.89838  0.16817  1.0000
  H   H267      1.0  0.5510200000000001  0.8416500000000002  0.3385  1.0000
  H   H268      1.0  0.5604  0.7169  0.22621000000000002  1.0000
  H   H269      1.0  0.5608700000000002  0.7174600000000002  0.33367  1.0000
  H   H270      1.0  0.50738  0.76048  0.01802  1.0000
  C   C1        1.0  0.35686000000000007  0.11216000000000002  0.79063  1.0000
  C   C2        1.0  0.21912000000000004  0.10496000000000003  0.9897800000000001  1.0000
  C   C3        1.0  0.30637  0.10073  0.8038200000000002  1.0000
  C   C4        1.0  0.22087999999999997  0.10662  0.05401  1.0000
  C   C5        1.0  0.25112000000000023  0.9174400000000003  0.95305  1.0000
  C   C6        1.0  0.26069000000000003  0.8778400000000001  0.9700000000000002  1.0000
  C   C7        1.0  0.15428  0.00418  0.7934000000000001  1.0000
  C   C8        1.0  0.37454000000000004  0.08322000000000003  0.8124000000000002  1.0000
  C   C9        1.0  0.10550000000000011  0.9712800000000003  0.7723100000000002  1.0000
  C   C10       1.0  0.41983  0.09221  0.79531  1.0000
  C   C11       1.0  0.98957  0.86536  0.7932500000000002  1.0000
  C   C12       1.0  0.38672  0.15068000000000006  0.7547500000000001  1.0000
  C   C13       1.0  0.03131999999999999  0.90965  0.7719800000000001  1.0000
  C   C14       1.0  0.03648000000000013  0.9353100000000002  0.72247  1.0000
  C   C15       1.0  0.2279900000000001  0.9560200000000001  0.88136  1.0000
  C   C16       1.0  0.23744000000000007  0.9196300000000002  0.8966500000000001  1.0000
  C   C17       1.0  0.4320100000000001  0.15788000000000005  0.74019  1.0000
  C   C18       1.0  0.08414000000000015  0.9749000000000002  0.7227000000000001  1.0000
  C   C19       1.0  0.21793  0.06836  0.08624000000000001  1.0000
  C   C20       1.0  0.25475  0.95234  0.99194  1.0000
  C   C21       1.0  0.24541000000000016  0.9881400000000002  0.9731100000000003  1.0000
  C   C22       1.0  0.21922  0.07145  0.14568  1.0000
  C   C23       1.0  0.22501000000000002  0.14663000000000007  0.08345  1.0000
  C   C24       1.0  0.22553000000000004  0.14676000000000006  0.14303000000000002  1.0000
  C   C25       1.0  0.8878599999999998  0.24451  0.79041  1.0000
  C   C26       1.0  0.89506  0.11438  0.98945  1.0000
  C   C27       1.0  0.89924  0.20522  0.8029100000000002  1.0000
  C   C28       1.0  0.89352  0.11440000000000003  0.05376  1.0000
  C   C29       1.0  0.08254999999999997  0.33369  0.95307  1.0000
  C   C30       1.0  0.12211  0.38286  0.96987  1.0000
  C   C31       1.0  0.99611  0.15015000000000006  0.79417  1.0000
  C   C32       1.0  0.91674  0.2910700000000001  0.8123500000000001  1.0000
  C   C33       1.0  0.028689999999999986  0.13419  0.77241  1.0000
  C   C34       1.0  0.9077299999999999  0.3273800000000001  0.79531  1.0000
  C   C35       1.0  0.13469  0.12411  0.79316  1.0000
  C   C36       1.0  0.8492600000000001  0.23595  0.7546600000000002  1.0000
  C   C37       1.0  0.09027  0.12154  0.77194  1.0000
  C   C38       1.0  0.06455  0.10109  0.7224  1.0000
  C   C39       1.0  0.04399999999999998  0.2721  0.88138  1.0000
  C   C40       1.0  0.08039  0.31788000000000005  0.89671  1.0000
  C   C41       1.0  0.84204  0.27404  0.74018  1.0000
  C   C42       1.0  0.02500000000000001  0.10927  0.72274  1.0000
  C   C43       1.0  0.93177  0.14961000000000002  0.08604  1.0000
  C   C44       1.0  0.04767  0.30244  0.9920200000000001  1.0000
  C   C45       1.0  0.011860000000000008  0.25735  0.9731200000000001  1.0000
  C   C46       1.0  0.92888  0.14748000000000006  0.14552  1.0000
  C   C47       1.0  0.85353  0.07844  0.08317  1.0000
  C   C48       1.0  0.85362  0.07852  0.14278  1.0000
  C   C49       1.0  0.7552999999999999  0.6430900000000003  0.7906200000000001  1.0000
  C   C50       1.0  0.88581  0.78094  0.9895800000000001  1.0000
  C   C51       1.0  0.79466  0.6935  0.8037100000000001  1.0000
  C   C52       1.0  0.88561  0.77913  0.05384  1.0000
  C   C53       1.0  0.66639  0.74878  0.9530900000000001  1.0000
  C   C54       1.0  0.61736  0.73951  0.9700900000000001  1.0000
  C   C55       1.0  0.84989  0.84584  0.79355  1.0000
  C   C56       1.0  0.7086800000000001  0.6255200000000001  0.8123700000000003  1.0000
  C   C57       1.0  0.86571  0.89451  0.77236  1.0000
  C   C58       1.0  0.67242  0.58025  0.79523  1.0000
  C   C59       1.0  0.87586  0.01051  0.79324  1.0000
  C   C60       1.0  0.76394  0.61324  0.7546900000000002  1.0000
  C   C61       1.0  0.87828  0.96866  0.7719700000000002  1.0000
  C   C62       1.0  0.89878  0.96344  0.72246  1.0000
  C   C63       1.0  0.7279600000000002  0.7718900000000001  0.8813  1.0000
  C   C64       1.0  0.68215  0.7624600000000001  0.89669  1.0000
  C   C65       1.0  0.72587  0.568  0.74008  1.0000
  C   C66       1.0  0.8906900000000001  0.9157700000000002  0.72272  1.0000
  C   C67       1.0  0.85035  0.7821200000000003  0.08613000000000001  1.0000
  C   C68       1.0  0.69773  0.7452000000000002  0.99195  1.0000
  C   C69       1.0  0.74284  0.75452  0.9730000000000002  1.0000
  C   C70       1.0  0.8521599999999998  0.78093  0.14561  1.0000
  C   C71       1.0  0.9214999999999998  0.7749900000000001  0.08333  1.0000
  C   C72       1.0  0.9211700000000002  0.7745900000000002  0.14292000000000002  1.0000
  C   C73       1.0  0.88783  0.6431  0.29059000000000007  1.0000
  C   C74       1.0  0.89515  0.7809700000000002  0.48961  1.0000
  C   C75       1.0  0.8989400000000001  0.6935300000000002  0.30369  1.0000
  C   C76       1.0  0.8934900000000002  0.7791700000000003  0.55389  1.0000
  C   C77       1.0  0.08237000000000012  0.7487700000000003  0.45307000000000003  1.0000
  C   C78       1.0  0.1221500000000001  0.7395400000000002  0.47024000000000005  1.0000
  C   C79       1.0  0.9961  0.84594  0.29351000000000005  1.0000
  C   C80       1.0  0.91687  0.6255  0.31238000000000005  1.0000
  C   C81       1.0  0.028980000000000155  0.8946200000000002  0.2724  1.0000
  C   C82       1.0  0.9078600000000001  0.5802200000000002  0.29533  1.0000
  C   C83       1.0  0.13459  0.01065  0.29329000000000005  1.0000
  C   C84       1.0  0.8493400000000001  0.6132600000000001  0.25472000000000006  1.0000
  C   C85       1.0  0.09041999999999999  0.96878  0.27203  1.0000
  C   C86       1.0  0.06474000000000012  0.9635700000000003  0.22251000000000004  1.0000
  C   C87       1.0  0.04385000000000003  0.7718900000000001  0.3812800000000001  1.0000
  C   C88       1.0  0.08023  0.76244  0.3966700000000001  1.0000
  C   C89       1.0  0.84216  0.56798  0.24017000000000005  1.0000
  C   C90       1.0  0.02525000000000007  0.9158900000000002  0.22280000000000005  1.0000
  C   C91       1.0  0.93176  0.7821500000000002  0.5861700000000001  1.0000
  C   C92       1.0  0.047430000000000035  0.7451800000000001  0.4919100000000001  1.0000
  C   C93       1.0  0.011640000000000143  0.7545300000000003  0.47299  1.0000
  C   C94       1.0  0.92878  0.78094  0.64564  1.0000
  C   C95       1.0  0.85348  0.77502  0.58342  1.0000
  C   C96       1.0  0.85344  0.7746  0.643  1.0000
  C   C97       1.0  0.75531  0.11213000000000001  0.29065  1.0000
  C   C98       1.0  0.8855700000000001  0.10495000000000003  0.48978  1.0000
  C   C99       1.0  0.79437  0.1007  0.30376  1.0000
  C   C100      1.0  0.8856100000000001  0.10656000000000003  0.554  1.0000
  C   C101      1.0  0.6663  0.9176  0.45311000000000007  1.0000
  C   C102      1.0  0.6172400000000001  0.8778900000000001  0.47012  1.0000
  C   C103      1.0  0.8498999999999998  0.00412  0.29344000000000003  1.0000
  C   C104      1.0  0.7087  0.08319000000000001  0.31242  1.0000
  C   C105      1.0  0.8657800000000001  0.9712300000000003  0.27232  1.0000
  C   C106      1.0  0.6724399999999999  0.09223000000000003  0.29535  1.0000
  C   C107      1.0  0.87585  0.86532  0.2932600000000001  1.0000
  C   C108      1.0  0.76398  0.15066  0.25477000000000005  1.0000
  C   C109      1.0  0.87831  0.90958  0.27198  1.0000
  C   C110      1.0  0.89879  0.93523  0.22246000000000005  1.0000
  C   C111      1.0  0.7279799999999998  0.9560900000000002  0.3814  1.0000
  C   C112      1.0  0.68215  0.91974  0.3967400000000001  1.0000
  C   C113      1.0  0.72593  0.15791  0.24022000000000002  1.0000
  C   C114      1.0  0.89075  0.97484  0.22272  1.0000
  C   C115      1.0  0.8503799999999998  0.0683  0.5862700000000001  1.0000
  C   C116      1.0  0.69759  0.95248  0.4920100000000001  1.0000
  C   C117      1.0  0.7427399999999997  0.9882200000000001  0.47312  1.0000
  C   C118      1.0  0.85221  0.07143  0.6457  1.0000
  C   C119      1.0  0.9215200000000001  0.14655000000000007  0.58341  1.0000
  C   C120      1.0  0.9211600000000001  0.14671000000000006  0.64299  1.0000
  C   C121      1.0  0.35673  0.24458000000000005  0.29040000000000005  1.0000
  C   C122      1.0  0.21916  0.11422  0.4894  1.0000
  C   C123      1.0  0.30609  0.20532  0.30295  1.0000
  C   C124      1.0  0.22087  0.11435  0.55372  1.0000
  C   C125      1.0  0.25128  0.33368  0.45313  1.0000
  C   C126      1.0  0.26061  0.3827300000000001  0.4701500000000001  1.0000
  C   C127      1.0  0.15409  0.15011  0.29397000000000006  1.0000
  C   C128      1.0  0.37438  0.29115  0.31237  1.0000
  C   C129      1.0  0.10548999999999997  0.13413  0.27232  1.0000
  C   C130      1.0  0.41968  0.32741  0.29538  1.0000
  C   C131      1.0  0.98951  0.12431  0.29307000000000005  1.0000
  C   C132      1.0  0.38672  0.23598  0.25467000000000006  1.0000
  C   C133      1.0  0.031279999999999995  0.12159  0.27186  1.0000
  C   C134      1.0  0.03651  0.10108000000000002  0.22233  1.0000
  C   C135      1.0  0.22815000000000002  0.27204  0.38139  1.0000
  C   C136      1.0  0.2376  0.31785  0.3967400000000001  1.0000
  C   C137      1.0  0.43206  0.27406  0.24019000000000004  1.0000
  C   C138      1.0  0.08422  0.10918  0.22266000000000002  1.0000
  C   C139      1.0  0.21783  0.1496  0.58595  1.0000
  C   C140      1.0  0.25488  0.30236  0.4920100000000001  1.0000
  C   C141      1.0  0.2455099999999999  0.25722  0.4731400000000001  1.0000
  C   C142      1.0  0.21862  0.14749  0.64544  1.0000
  C   C143      1.0  0.22492  0.0784  0.5831400000000001  1.0000
  C   C144      1.0  0.22493  0.07852  0.6427500000000002  1.0000
  C   C145      1.0  0.023570000000000053  0.4456000000000001  0.12398000000000003  1.0000
  C   C146      1.0  0.88561  0.43817  0.3232  1.0000
  C   C147      1.0  0.97288  0.43428  0.13714  1.0000
  C   C148      1.0  0.88756  0.43988000000000005  0.38740000000000013  1.0000
  C   C149      1.0  0.91782  0.25074  0.28667  1.0000
  C   C150      1.0  0.9275  0.21134  0.30413  1.0000
  C   C151      1.0  0.82056  0.3370400000000001  0.12779000000000001  1.0000
  C   C152      1.0  0.04112000000000002  0.41658000000000006  0.14576000000000003  1.0000
  C   C153      1.0  0.7721199999999998  0.30475  0.10592  1.0000
  C   C154      1.0  0.08645000000000004  0.4255400000000001  0.12865  1.0000
  C   C155      1.0  0.65619  0.19870000000000004  0.12666  1.0000
  C   C156      1.0  0.05338000000000005  0.4840500000000001  0.08810000000000001  1.0000
  C   C157      1.0  0.69794  0.24309000000000006  0.10546  1.0000
  C   C158      1.0  0.70322  0.26866  0.05586000000000001  1.0000
  C   C159      1.0  0.89484  0.28928  0.21477000000000002  1.0000
  C   C160      1.0  0.90422  0.25287  0.23021000000000005  1.0000
  C   C161      1.0  0.09870000000000007  0.49125000000000013  0.07355  1.0000
  C   C162      1.0  0.75086  0.30826  0.056170000000000005  1.0000
  C   C163      1.0  0.8846  0.40165000000000006  0.41961  1.0000
  C   C164      1.0  0.92144  0.28575  0.32541  1.0000
  C   C165      1.0  0.9122  0.32156000000000007  0.3064  1.0000
  C   C166      1.0  0.8859399999999998  0.4048000000000001  0.47901000000000005  1.0000
  C   C167      1.0  0.89169  0.47995  0.41670000000000007  1.0000
  C   C168      1.0  0.89228  0.48015000000000013  0.47627000000000014  1.0000
  C   C169      1.0  0.55442  0.57792  0.12396000000000001  1.0000
  C   C170      1.0  0.56182  0.44742  0.32319  1.0000
  C   C171      1.0  0.56593  0.5388  0.13708  1.0000
  C   C172      1.0  0.56013  0.44759  0.38737  1.0000
  C   C173      1.0  0.7493  0.66704  0.28657  1.0000
  C   C174      1.0  0.78893  0.71615  0.30362  1.0000
  C   C175      1.0  0.66303  0.48354  0.12794  1.0000
  C   C176      1.0  0.5834400000000001  0.6244600000000001  0.14579  1.0000
  C   C177      1.0  0.6950500000000001  0.46729000000000004  0.10592  1.0000
  C   C178      1.0  0.57447  0.66085  0.12859  1.0000
  C   C179      1.0  0.8012700000000001  0.4574900000000001  0.12655  1.0000
  C   C180      1.0  0.51598  0.56936  0.08811000000000002  1.0000
  C   C181      1.0  0.7568100000000001  0.4548300000000001  0.10563000000000003  1.0000
  C   C182      1.0  0.7312300000000002  0.4344500000000001  0.05603  1.0000
  C   C183      1.0  0.71073  0.60551  0.21472000000000002  1.0000
  C   C184      1.0  0.74715  0.65128  0.23011000000000006  1.0000
  C   C185      1.0  0.50877  0.60749  0.07348000000000002  1.0000
  C   C186      1.0  0.69164  0.4425100000000001  0.05623000000000001  1.0000
  C   C187      1.0  0.59834  0.48284  0.4195900000000001  1.0000
  C   C188      1.0  0.71434  0.63572  0.32535  1.0000
  C   C189      1.0  0.67853  0.59067  0.30638  1.0000
  C   C190      1.0  0.5952  0.48104  0.479  1.0000
  C   C191      1.0  0.52007  0.41167000000000004  0.41670000000000007  1.0000
  C   C192      1.0  0.51988  0.4120600000000001  0.47628  1.0000
  C   C193      1.0  0.4219400000000001  0.9764700000000002  0.12409000000000003  1.0000
  C   C194      1.0  0.55251  0.11422  0.3232  1.0000
  C   C195      1.0  0.46138  0.026820000000000007  0.13752  1.0000
  C   C196      1.0  0.55242  0.11242  0.3873600000000001  1.0000
  C   C197      1.0  0.33306  0.08212  0.28662  1.0000
  C   C198      1.0  0.28408  0.07296  0.30383  1.0000
  C   C199      1.0  0.51663  0.17918000000000006  0.12702  1.0000
  C   C200      1.0  0.37531  0.95888  0.1458  1.0000
  C   C201      1.0  0.53249  0.22783  0.10600000000000001  1.0000
  C   C202      1.0  0.33904  0.91359  0.12872000000000003  1.0000
  C   C203      1.0  0.5426  0.34387  0.12664  1.0000
  C   C204      1.0  0.43058  0.94663  0.08812000000000003  1.0000
  C   C205      1.0  0.5450700000000002  0.3020500000000001  0.10569000000000003  1.0000
  C   C206      1.0  0.56548  0.29682000000000003  0.05608  1.0000
  C   C207      1.0  0.39458000000000004  0.10519000000000003  0.2147  1.0000
  C   C208      1.0  0.34876  0.09573  0.23016000000000006  1.0000
  C   C209      1.0  0.39252  0.90135  0.07357  1.0000
  C   C210      1.0  0.55737  0.24916000000000002  0.05625  1.0000
  C   C211      1.0  0.51715  0.11540000000000003  0.41957  1.0000
  C   C212      1.0  0.36443  0.07848  0.32536  1.0000
  C   C213      1.0  0.40953  0.08783000000000002  0.30637  1.0000
  C   C214      1.0  0.51898  0.1141  0.4789800000000001  1.0000
  C   C215      1.0  0.58838  0.1083  0.41667  1.0000
  C   C216      1.0  0.58801  0.10776000000000002  0.47625  1.0000
  C   C217      1.0  0.55451  0.9765700000000003  0.62385  1.0000
  C   C218      1.0  0.56181  0.11417000000000002  0.8232300000000001  1.0000
  C   C219      1.0  0.56596  0.027190000000000006  0.63661  1.0000
  C   C220      1.0  0.56022  0.11240000000000003  0.88737  1.0000
  C   C221      1.0  0.74915  0.08206  0.7865900000000002  1.0000
  C   C222      1.0  0.78891  0.07276  0.80355  1.0000
  C   C223      1.0  0.66266  0.17918000000000006  0.6272700000000001  1.0000
  C   C224      1.0  0.58343  0.95888  0.6457  1.0000
  C   C225      1.0  0.69529  0.22782  0.60593  1.0000
  C   C226      1.0  0.5744300000000001  0.9135800000000002  0.62868  1.0000
  C   C227      1.0  0.80106  0.34383  0.62672  1.0000
  C   C228      1.0  0.51597  0.94667  0.5880100000000001  1.0000
  C   C229      1.0  0.75684  0.30197  0.60552  1.0000
  C   C230      1.0  0.73126  0.29666000000000003  0.55588  1.0000
  C   C231      1.0  0.7106399999999999  0.10511  0.71478  1.0000
  C   C232      1.0  0.74704  0.09572000000000001  0.73017  1.0000
  C   C233      1.0  0.50874  0.90136  0.57355  1.0000
  C   C234      1.0  0.69171  0.24901000000000006  0.55618  1.0000
  C   C235      1.0  0.59852  0.11544000000000003  0.9195400000000001  1.0000
  C   C236      1.0  0.71422  0.07843000000000001  0.82543  1.0000
  C   C237      1.0  0.67844  0.08777  0.8065  1.0000
  C   C238      1.0  0.59547  0.11424000000000002  0.97896  1.0000
  C   C239      1.0  0.52016  0.10827000000000003  0.91669  1.0000
  C   C240      1.0  0.52011  0.1079  0.9762300000000003  1.0000
  C   C241      1.0  0.42208  0.44547  0.62396  1.0000
  C   C242      1.0  0.55252  0.43809  0.82307  1.0000
  C   C243      1.0  0.4613  0.43412  0.63682  1.0000
  C   C244      1.0  0.5523800000000001  0.4399000000000001  0.8873000000000001  1.0000
  C   C245      1.0  0.3330299999999999  0.25071  0.7866500000000002  1.0000
  C   C246      1.0  0.28399  0.21135  0.80424  1.0000
  C   C247      1.0  0.5166  0.33738  0.6272300000000001  1.0000
  C   C248      1.0  0.37547  0.41655  0.64576  1.0000
  C   C249      1.0  0.5326100000000001  0.3047700000000001  0.60587  1.0000
  C   C250      1.0  0.33916  0.42553  0.62866  1.0000
  C   C251      1.0  0.54276  0.19883000000000006  0.6266200000000001  1.0000
  C   C252      1.0  0.43067  0.4839800000000001  0.5880700000000001  1.0000
  C   C253      1.0  0.54521  0.24316000000000002  0.6054700000000001  1.0000
  C   C254      1.0  0.56553  0.26877  0.55588  1.0000
  C   C255      1.0  0.39455  0.28923  0.7147400000000002  1.0000
  C   C256      1.0  0.34874  0.25284  0.7302  1.0000
  C   C257      1.0  0.39259  0.49121  0.57352  1.0000
  C   C258      1.0  0.5574300000000001  0.30834000000000006  0.55614  1.0000
  C   C259      1.0  0.5170199999999998  0.40162  0.91921  1.0000
  C   C260      1.0  0.36442  0.28572  0.8253900000000001  1.0000
  C   C261      1.0  0.40945  0.32152  0.80638  1.0000
  C   C262      1.0  0.5189099999999998  0.40488  0.97888  1.0000
  C   C263      1.0  0.5882799999999998  0.4799400000000001  0.91633  1.0000
  C   C264      1.0  0.58782  0.48008  0.9762  1.0000
  C   C265      1.0  0.023470000000000057  0.5779100000000001  0.62388  1.0000
  C   C266      1.0  0.88561  0.4474100000000001  0.8230000000000002  1.0000
  C   C267      1.0  0.9729  0.53867  0.63667  1.0000
  C   C268      1.0  0.8875799999999998  0.44765  0.8872900000000002  1.0000
  C   C269      1.0  0.91781  0.66701  0.78655  1.0000
  C   C270      1.0  0.92736  0.71619  0.8035900000000002  1.0000
  C   C271      1.0  0.8208899999999998  0.4834000000000001  0.6272000000000001  1.0000
  C   C272      1.0  0.04108000000000001  0.6245  0.64571  1.0000
  C   C273      1.0  0.77226  0.46744  0.60592  1.0000
  C   C274      1.0  0.08635  0.66083  0.62857  1.0000
  C   C275      1.0  0.65612  0.45721000000000006  0.62684  1.0000
  C   C276      1.0  0.05341999999999995  0.56936  0.58798  1.0000
  C   C277      1.0  0.69805  0.45484  0.6056400000000001  1.0000
  C   C278      1.0  0.70332  0.43453  0.55602  1.0000
  C   C279      1.0  0.8948  0.60544  0.7147400000000002  1.0000
  C   C280      1.0  0.9041999999999999  0.65125  0.73011  1.0000
  C   C281      1.0  0.09868999999999996  0.60748  0.57342  1.0000
  C   C282      1.0  0.75099  0.44264  0.55621  1.0000
  C   C283      1.0  0.88465  0.48299  0.9193  1.0000
  C   C284      1.0  0.92146  0.63569  0.8253500000000003  1.0000
  C   C285      1.0  0.91217  0.5906  0.80644  1.0000
  C   C286      1.0  0.88609  0.48108  0.9789200000000002  1.0000
  C   C287      1.0  0.89172  0.4117400000000001  0.91638  1.0000
  C   C288      1.0  0.89238  0.41225  0.9762  1.0000
  C   C289      1.0  0.69012  0.77889  0.4571900000000001  1.0000
  C   C290      1.0  0.55257  0.7716  0.65656  1.0000
  C   C291      1.0  0.63947  0.76745  0.4696400000000001  1.0000
  C   C292      1.0  0.55421  0.77333  0.72073  1.0000
  C   C293      1.0  0.58462  0.5842800000000002  0.61965  1.0000
  C   C294      1.0  0.59394  0.5445000000000001  0.6365  1.0000
  C   C295      1.0  0.48748  0.6707  0.4606900000000001  1.0000
  C   C296      1.0  0.70775  0.74994  0.4791200000000001  1.0000
  C   C297      1.0  0.43888  0.63803  0.4392100000000001  1.0000
  C   C298      1.0  0.75306  0.75893  0.46211  1.0000
  C   C299      1.0  0.32277  0.53226  0.46009  1.0000
  C   C300      1.0  0.7200499999999997  0.81746  0.4214200000000001  1.0000
  C   C301      1.0  0.36466  0.57651  0.43895  1.0000
  C   C302      1.0  0.36989  0.60206  0.38933000000000006  1.0000
  C   C303      1.0  0.56141  0.62284  0.54801  1.0000
  C   C304      1.0  0.5709  0.58646  0.56325  1.0000
  C   C305      1.0  0.76534  0.82465  0.4069400000000001  1.0000
  C   C306      1.0  0.41756999999999994  0.6415900000000002  0.38949  1.0000
  C   C307      1.0  0.55119  0.73503  0.7529600000000002  1.0000
  C   C308      1.0  0.58822  0.6191400000000002  0.65857  1.0000
  C   C309      1.0  0.57881  0.6549100000000001  0.6398  1.0000
  C   C310      1.0  0.55249  0.73815  0.8123800000000001  1.0000
  C   C311      1.0  0.55832  0.81335  0.7500800000000001  1.0000
  C   C312      1.0  0.55881  0.81348  0.80965  1.0000
  C   C313      1.0  0.2210800000000001  0.9112600000000002  0.4571600000000001  1.0000
  C   C314      1.0  0.22849  0.78096  0.65662  1.0000
  C   C315      1.0  0.23244000000000012  0.8719700000000002  0.46968  1.0000
  C   C316      1.0  0.22671000000000005  0.78101  0.7207500000000001  1.0000
  C   C317      1.0  0.41573  0.00037000000000000005  0.61964  1.0000
  C   C318      1.0  0.45544  0.049400000000000006  0.63658  1.0000
  C   C319      1.0  0.32919  0.81682  0.4606600000000001  1.0000
  C   C320      1.0  0.2500300000000001  0.95782  0.47907  1.0000
  C   C321      1.0  0.36188  0.80092  0.4391400000000001  1.0000
  C   C322      1.0  0.24108  0.99414  0.46197  1.0000
  C   C323      1.0  0.46774999999999983  0.7906  0.4600100000000001  1.0000
  C   C324      1.0  0.18253000000000008  0.9027000000000002  0.42138000000000003  1.0000
  C   C325      1.0  0.42345000000000005  0.7882600000000001  0.43890000000000007  1.0000
  C   C326      1.0  0.3978800000000001  0.7679200000000003  0.3893  1.0000
  C   C327      1.0  0.37717  0.9386600000000003  0.54801  1.0000
  C   C328      1.0  0.4135500000000001  0.9844700000000002  0.56327  1.0000
  C   C329      1.0  0.17535000000000003  0.94079  0.40680000000000005  1.0000
  C   C330      1.0  0.3583300000000001  0.7760700000000003  0.3894400000000001  1.0000
  C   C331      1.0  0.26501  0.81628  0.7529100000000001  1.0000
  C   C332      1.0  0.3808700000000001  0.9691100000000002  0.6586  1.0000
  C   C333      1.0  0.34509000000000006  0.92398  0.63978  1.0000
  C   C334      1.0  0.26204  0.81448  0.8123500000000001  1.0000
  C   C335      1.0  0.18671  0.74512  0.75015  1.0000
  C   C336      1.0  0.18671999999999994  0.74548  0.8097  1.0000
  C   C337      1.0  0.08871  0.30987  0.45715000000000006  1.0000
  C   C338      1.0  0.21899000000000005  0.4475200000000001  0.65656  1.0000
  C   C339      1.0  0.12795000000000006  0.3604900000000001  0.4695700000000001  1.0000
  C   C340      1.0  0.21896000000000002  0.44580000000000003  0.72076  1.0000
  C   C341      1.0  0.99963  0.41537000000000013  0.6196000000000002  1.0000
  C   C342      1.0  0.95055  0.4059800000000001  0.6365200000000001  1.0000
  C   C343      1.0  0.18318  0.51255  0.46073  1.0000
  C   C344      1.0  0.04215000000000006  0.2922400000000001  0.4791  1.0000
  C   C345      1.0  0.1991  0.5611  0.43912  1.0000
  C   C346      1.0  0.005880000000000007  0.24691  0.46215000000000006  1.0000
  C   C347      1.0  0.20946000000000012  0.6772600000000002  0.46007000000000003  1.0000
  C   C348      1.0  0.09732999999999999  0.27992  0.42137  1.0000
  C   C349      1.0  0.2118  0.6353400000000001  0.43887  1.0000
  C   C350      1.0  0.23210000000000008  0.6300700000000002  0.38924  1.0000
  C   C351      1.0  0.061349999999999995  0.43858  0.54797  1.0000
  C   C352      1.0  0.015489999999999988  0.4291  0.56321  1.0000
  C   C353      1.0  0.059290000000000016  0.23459  0.40697000000000005  1.0000
  C   C354      1.0  0.22394  0.58238  0.38939  1.0000
  C   C355      1.0  0.18367000000000003  0.4488400000000001  0.7529000000000002  1.0000
  C   C356      1.0  0.030910000000000045  0.4118000000000001  0.65854  1.0000
  C   C357      1.0  0.07608000000000001  0.4212  0.63973  1.0000
  C   C358      1.0  0.18548  0.44766  0.81234  1.0000
  C   C359      1.0  0.25487  0.44168  0.75012  1.0000
  C   C360      1.0  0.25452  0.4413300000000001  0.80968  1.0000
  C   C361      1.0  0.22112  0.3098  0.95738  1.0000
  C   C362      1.0  0.22836000000000006  0.4473100000000001  0.15646000000000002  1.0000
  C   C363      1.0  0.23220000000000002  0.36027000000000003  0.97038  1.0000
  C   C364      1.0  0.2266  0.44583  0.22068  1.0000
  C   C365      1.0  0.41589  0.41543  0.11944000000000002  1.0000
  C   C366      1.0  0.45554  0.40605  0.1364  1.0000
  C   C367      1.0  0.32938  0.51258  0.9606500000000002  1.0000
  C   C368      1.0  0.25015  0.29221  0.9791200000000002  1.0000
  C   C369      1.0  0.36225  0.56118  0.9392800000000002  1.0000
  C   C370      1.0  0.24118  0.24694  0.9620100000000001  1.0000
  C   C371      1.0  0.46779000000000004  0.67752  0.95998  1.0000
  C   C372      1.0  0.18264000000000002  0.27996  0.92146  1.0000
  C   C373      1.0  0.42363  0.63547  0.93893  1.0000
  C   C374      1.0  0.39799  0.63015  0.8893300000000002  1.0000
  C   C375      1.0  0.3773  0.43865  0.04789  1.0000
  C   C376      1.0  0.41367  0.42919  0.06311000000000001  1.0000
  C   C377      1.0  0.17548  0.23471  0.90685  1.0000
  C   C378      1.0  0.35859  0.58242  0.8895800000000003  1.0000
  C   C379      1.0  0.2649  0.4488400000000001  0.25292  1.0000
  C   C380      1.0  0.38101  0.41182  0.15845  1.0000
  C   C381      1.0  0.34524  0.42122000000000004  0.13969  1.0000
  C   C382      1.0  0.2618300000000001  0.4475200000000001  0.31234  1.0000
  C   C383      1.0  0.18659  0.44172  0.25007  1.0000
  C   C384      1.0  0.18647  0.4412  0.30966000000000005  1.0000
  C   C385      1.0  0.08856000000000001  0.77886  0.95737  1.0000
  C   C386      1.0  0.21909  0.77153  0.15647000000000003  1.0000
  C   C387      1.0  0.12794000000000003  0.76778  0.9704000000000002  1.0000
  C   C388      1.0  0.21914  0.77335  0.22066  1.0000
  C   C389      1.0  0.9995099999999999  0.58414  0.11941  1.0000
  C   C390      1.0  0.9505  0.54445  0.13637  1.0000
  C   C391      1.0  0.18322  0.6706400000000001  0.9608000000000001  1.0000
  C   C392      1.0  0.04194999999999998  0.74982  0.97911  1.0000
  C   C393      1.0  0.19900000000000007  0.63779  0.9394200000000003  1.0000
  C   C394      1.0  0.005689999999999985  0.75887  0.9620300000000003  1.0000
  C   C395      1.0  0.20924999999999996  0.53195  0.9599  1.0000
  C   C396      1.0  0.09722  0.81736  0.9214700000000001  1.0000
  C   C397      1.0  0.21178  0.57629  0.93893  1.0000
  C   C398      1.0  0.23204  0.6019  0.8893300000000002  1.0000
  C   C399      1.0  0.061340000000000054  0.6227600000000002  0.04785000000000001  1.0000
  C   C400      1.0  0.015509999999999975  0.58639  0.06305000000000001  1.0000
  C   C401      1.0  0.059149999999999966  0.82458  0.90688  1.0000
  C   C402      1.0  0.22383000000000014  0.6413900000000002  0.88968  1.0000
  C   C403      1.0  0.18384  0.7351  0.25289  1.0000
  C   C404      1.0  0.03076  0.61901  0.15839  1.0000
  C   C405      1.0  0.07591  0.65477  0.13964  1.0000
  C   C406      1.0  0.18558  0.73818  0.3123000000000001  1.0000
  C   C407      1.0  0.25500000000000017  0.8133400000000002  0.25005  1.0000
  C   C408      1.0  0.2545800000000001  0.8134900000000002  0.30962  1.0000
  C   C409      1.0  0.69012  0.91132  0.9571700000000001  1.0000
  C   C410      1.0  0.55239  0.78095  0.15648000000000004  1.0000
  C   C411      1.0  0.6395000000000002  0.8720500000000002  0.96965  1.0000
  C   C412      1.0  0.55417  0.7809  0.22067000000000003  1.0000
  C   C413      1.0  0.5844699999999998  0.00034  0.11950000000000002  1.0000
  C   C414      1.0  0.59403  0.04951  0.13637  1.0000
  C   C415      1.0  0.48749  0.81682  0.9606400000000003  1.0000
  C   C416      1.0  0.7077200000000002  0.9578600000000003  0.9791200000000002  1.0000
  C   C417      1.0  0.43886  0.80085  0.93924  1.0000
  C   C418      1.0  0.75302  0.99414  0.96208  1.0000
  C   C419      1.0  0.32284  0.7908  0.96007  1.0000
  C   C420      1.0  0.72009  0.90269  0.92143  1.0000
  C   C421      1.0  0.36466  0.78824  0.93899  1.0000
  C   C422      1.0  0.36986  0.76793  0.88937  1.0000
  C   C423      1.0  0.56133  0.9386  0.04794000000000001  1.0000
  C   C424      1.0  0.5707700000000002  0.9844200000000002  0.06313  1.0000
  C   C425      1.0  0.76538  0.94074  0.90692  1.0000
  C   C426      1.0  0.41754000000000013  0.7760200000000003  0.8895300000000002  1.0000
  C   C427      1.0  0.5512  0.81621  0.25286000000000003  1.0000
  C   C428      1.0  0.5881000000000001  0.9691100000000002  0.15848  1.0000
  C   C429      1.0  0.57876  0.92396  0.13976000000000002  1.0000
  C   C430      1.0  0.55251  0.81441  0.31229  1.0000
  C   C431      1.0  0.5582900000000002  0.7450000000000002  0.25  1.0000
  C   C432      1.0  0.55883  0.74539  0.30957  1.0000
  N   N1        1.0  0.22313000000000002  0.11004000000000003  0.17426  1.0000
  N   N2        1.0  0.23208000000000015  0.9902800000000003  0.9186600000000001  1.0000
  N   N3        1.0  0.4481  0.12836  0.7588900000000001  1.0000
  N   N4        1.0  0.22199  0.11252000000000002  0.67393  1.0000
  N   N5        1.0  0.20498  0.21861000000000003  0.92564  1.0000
  N   N6        1.0  0.89055  0.1125  0.174  1.0000
  N   N7        1.0  0.009700000000000023  0.24194000000000004  0.9186600000000001  1.0000
  N   N8        1.0  0.8716200000000001  0.31966  0.7588900000000001  1.0000
  N   N9        1.0  0.88689  0.11002  0.67429  1.0000
  N   N10       1.0  0.78136  0.9863000000000001  0.9257  1.0000
  N   N11       1.0  0.88691  0.77714  0.17420000000000005  1.0000
  N   N12       1.0  0.75821  0.76783  0.9185200000000001  1.0000
  N   N13       1.0  0.68026  0.55198  0.7588200000000003  1.0000
  N   N14       1.0  0.8902599999999998  0.77717  0.67424  1.0000
  N   N15       1.0  0.013589999999999994  0.79509  0.9257200000000001  1.0000
  N   N16       1.0  0.009559999999999983  0.76786  0.41851  1.0000
  N   N17       1.0  0.87168  0.55192  0.259  1.0000
  N   N18       1.0  0.78134  0.79508  0.42576  1.0000
  N   N19       1.0  0.75819  0.99035  0.4186700000000001  1.0000
  N   N20       1.0  0.68033  0.12842  0.25898  1.0000
  N   N21       1.0  0.013730000000000006  0.21854  0.4258500000000001  1.0000
  N   N22       1.0  0.23225000000000004  0.24184000000000005  0.41866000000000003  1.0000
  N   N23       1.0  0.44799000000000005  0.31962  0.25903  1.0000
  N   N24       1.0  0.20497  0.98638  0.4255100000000001  1.0000
  N   N25       1.0  0.8898300000000001  0.44341000000000014  0.50758  1.0000
  N   N26       1.0  0.8989799999999998  0.32367  0.25188000000000005  1.0000
  N   N27       1.0  0.11479000000000009  0.4617600000000001  0.09235000000000002  1.0000
  N   N28       1.0  0.8899199999999998  0.44648  0.007260000000000002  1.0000
  N   N29       1.0  0.5566  0.44636  0.5076  1.0000
  N   N30       1.0  0.67636  0.57529  0.25193000000000004  1.0000
  N   N31       1.0  0.53835  0.6530600000000002  0.09217  1.0000
  N   N32       1.0  0.55353  0.4434  0.00714  1.0000
  N   N33       1.0  0.55369  0.11019  0.50756  1.0000
  N   N34       1.0  0.42489  0.10114  0.25188000000000005  1.0000
  N   N35       1.0  0.3469400000000001  0.8852500000000001  0.09243  1.0000
  N   N36       1.0  0.55694  0.11047  0.00747  1.0000
  N   N37       1.0  0.67632  0.10102  0.75201  1.0000
  N   N38       1.0  0.53825  0.88526  0.5923000000000002  1.0000
  N   N39       1.0  0.4248  0.32361  0.7518900000000001  1.0000
  N   N40       1.0  0.34697  0.46169000000000004  0.59225  1.0000
  N   N41       1.0  0.8989399999999999  0.57521  0.75195  1.0000
  N   N42       1.0  0.11470000000000007  0.6530600000000002  0.59214  1.0000
  N   N43       1.0  0.5564100000000001  0.7767600000000002  0.8409100000000002  1.0000
  N   N44       1.0  0.56549  0.65704  0.58536  1.0000
  N   N45       1.0  0.55638  0.77967  0.34080000000000005  1.0000
  N   N46       1.0  0.22350999999999993  0.77972  0.8409  1.0000
  N   N47       1.0  0.3429600000000001  0.9085300000000002  0.58535  1.0000
  N   N48       1.0  0.22028000000000006  0.77675  0.34087000000000006  1.0000
  N   N49       1.0  0.22024  0.44387  0.8409  1.0000
  N   N50       1.0  0.09154000000000004  0.43450000000000005  0.58526  1.0000
  N   N51       1.0  0.22321000000000002  0.44362000000000007  0.3408900000000001  1.0000
  N   N52       1.0  0.34309000000000006  0.4345700000000001  0.08529000000000002  1.0000
  N   N53       1.0  0.0914700000000001  0.6570000000000003  0.08525  1.0000
  N   N54       1.0  0.5654400000000003  0.9084800000000002  0.08532  1.0000
  O   O1        1.0  0.20928000000000002  0.10099000000000002  0.8523900000000001  1.0000
  O   O2        1.0  0.2874799999999999  0.11676000000000003  0.7686500000000003  1.0000
  O   O3        1.0  0.263  0.8520400000000001  0.93015  1.0000
  O   O4        1.0  0.9532399999999999  0.8469  0.76  1.0000
  O   O5        1.0  0.18326  0.03407  0.75689  1.0000
  O   O6        1.0  0.21906  0.06896  0.96619  1.0000
  O   O7        1.0  0.26566  0.87305  0.023490000000000007  1.0000
  O   O8        1.0  0.2175  0.13985  0.9658  1.0000
  O   O9        1.0  0.99367  0.84993  0.8426900000000003  1.0000
  O   O10       1.0  0.16314  0.0009600000000000002  0.84653  1.0000
  O   O11       1.0  0.07337000000000002  0.9314800000000001  0.8032500000000002  1.0000
  O   O12       1.0  0.28713  0.07476  0.8482800000000001  1.0000
  O   O13       1.0  0.25522  0.18552000000000002  0.7647500000000002  1.0000
  O   O14       1.0  0.15324  0.10656000000000003  0.75975  1.0000
  O   O15       1.0  0.27483  0.20647  0.8577900000000003  1.0000
  O   O16       1.0  0.14993  0.14334  0.8428400000000001  1.0000
  O   O17       1.0  0.89913  0.10767  0.85175  1.0000
  O   O18       1.0  0.88358  0.17098  0.76732  1.0000
  O   O19       1.0  0.1479  0.41097  0.92998  1.0000
  O   O20       1.0  0.9657899999999999  0.14955  0.7583100000000003  1.0000
  O   O21       1.0  0.9313499999999998  0.15007000000000006  0.9658  1.0000
  O   O22       1.0  0.1268699999999999  0.39251  0.02338  1.0000
  O   O23       1.0  0.8598200000000001  0.07823000000000001  0.9655600000000001  1.0000
  O   O24       1.0  0.99988  0.16239  0.84725  1.0000
  O   O25       1.0  0.06848  0.14173  0.8032800000000002  1.0000
  O   O26       1.0  0.92498  0.21156  0.8478200000000002  1.0000
  O   O27       1.0  0.81464  0.0706  0.7636700000000002  1.0000
  O   O28       1.0  0.8943  0.04692  0.7600200000000001  1.0000
  O   O29       1.0  0.79379  0.06826  0.8573100000000002  1.0000
  O   O30       1.0  0.85627  0.006510000000000002  0.8425300000000001  1.0000
  O   O31       1.0  0.8918699999999998  0.7908700000000001  0.8516700000000003  1.0000
  O   O32       1.0  0.8294200000000002  0.7121900000000002  0.76847  1.0000
  O   O33       1.0  0.58915  0.73701  0.93026  1.0000
  O   O34       1.0  0.85049  0.81675  0.75689  1.0000
  O   O35       1.0  0.8498400000000002  0.7810400000000002  0.9659200000000002  1.0000
  O   O36       1.0  0.60803  0.73535  0.023710000000000002  1.0000
  O   O37       1.0  0.92223  0.78243  0.9655900000000001  1.0000
  O   O38       1.0  0.83818  0.83706  0.8467400000000003  1.0000
  O   O39       1.0  0.85807  0.92666  0.8032600000000001  1.0000
  O   O40       1.0  0.78819  0.71267  0.84852  1.0000
  O   O41       1.0  0.9297399999999999  0.74426  0.7638100000000002  1.0000
  O   O42       1.0  0.9321399999999997  0.7256600000000001  0.8572800000000003  1.0000
  O   O43       1.0  0.89903  0.79083  0.3517300000000001  1.0000
  O   O44       1.0  0.88282  0.7122  0.26845  1.0000
  O   O45       1.0  0.14798000000000006  0.7371500000000002  0.4303300000000001  1.0000
  O   O46       1.0  0.15269  0.04699  0.26  1.0000
  O   O47       1.0  0.9664200000000002  0.8168600000000003  0.25684  1.0000
  O   O48       1.0  0.9312  0.78108  0.46601  1.0000
  O   O49       1.0  0.12733  0.73535  0.52376  1.0000
  O   O50       1.0  0.8602  0.7825000000000001  0.4656200000000001  1.0000
  O   O51       1.0  0.15011  0.0066700000000000014  0.34267  1.0000
  O   O52       1.0  0.99897  0.83713  0.34671  1.0000
  O   O53       1.0  0.06869999999999996  0.92678  0.30334  1.0000
  O   O54       1.0  0.9246  0.71275  0.34846000000000005  1.0000
  O   O55       1.0  0.81459  0.74426  0.26391000000000003  1.0000
  O   O56       1.0  0.89369  0.8468  0.26004000000000005  1.0000
  O   O57       1.0  0.79365  0.7256300000000002  0.35742  1.0000
  O   O58       1.0  0.85633  0.84991  0.3426900000000001  1.0000
  O   O59       1.0  0.89191  0.10103  0.35258000000000006  1.0000
  O   O60       1.0  0.82923  0.1167  0.26865  1.0000
  O   O61       1.0  0.58919  0.85207  0.4301300000000001  1.0000
  O   O62       1.0  0.85084  0.03407  0.257  1.0000
  O   O63       1.0  0.8498999999999998  0.0686  0.46626000000000006  1.0000
  O   O64       1.0  0.60768  0.8728100000000002  0.52362  1.0000
  O   O65       1.0  0.92155  0.14027  0.46567  1.0000
  O   O66       1.0  0.83777  0.0007700000000000001  0.34657  1.0000
  O   O67       1.0  0.85812  0.9314300000000001  0.30327  1.0000
  O   O68       1.0  0.78763  0.07467  0.34826000000000007  1.0000
  O   O69       1.0  0.93013  0.18535  0.26464  1.0000
  O   O70       1.0  0.9533099999999998  0.1065  0.25973  1.0000
  O   O71       1.0  0.93218  0.20671  0.35767000000000004  1.0000
  O   O72       1.0  0.99362  0.14376  0.3425500000000001  1.0000
  O   O73       1.0  0.20886  0.10789  0.35184  1.0000
  O   O74       1.0  0.28747  0.17095  0.26747  1.0000
  O   O75       1.0  0.26283  0.41079  0.4301600000000001  1.0000
  O   O76       1.0  0.18369  0.14951000000000006  0.25803000000000004  1.0000
  O   O77       1.0  0.21875  0.15  0.46578  1.0000
  O   O78       1.0  0.26506  0.39226  0.52364  1.0000
  O   O79       1.0  0.2179  0.07787000000000001  0.4655900000000001  1.0000
  O   O80       1.0  0.16261  0.16239  0.34709  1.0000
  O   O81       1.0  0.07329  0.14177  0.30316  1.0000
  O   O82       1.0  0.2868  0.21182000000000006  0.34781  1.0000
  O   O83       1.0  0.25592  0.07045  0.26404  1.0000
  O   O84       1.0  0.27491  0.06888  0.3575800000000001  1.0000
  O   O85       1.0  0.8748200000000002  0.4338600000000001  0.18568  1.0000
  O   O86       1.0  0.95394  0.4493  0.10040000000000002  1.0000
  O   O87       1.0  0.61977  0.18021  0.09375  1.0000
  O   O88       1.0  0.8503  0.3676900000000001  0.09127  1.0000
  O   O89       1.0  0.88542  0.402  0.29972  1.0000
  O   O90       1.0  0.8840900000000002  0.4730600000000001  0.2995  1.0000
  O   O91       1.0  0.66063  0.18327  0.17598000000000003  1.0000
  O   O92       1.0  0.82948  0.3334100000000001  0.18028000000000002  1.0000
  O   O93       1.0  0.7399199999999998  0.26503  0.13696  1.0000
  O   O94       1.0  0.9541600000000001  0.40981000000000006  0.18214  1.0000
  O   O95       1.0  0.9226800000000001  0.51838  0.0963  1.0000
  O   O96       1.0  0.8193500000000001  0.4392600000000001  0.09378000000000002  1.0000
  O   O97       1.0  0.9404700000000001  0.5394400000000001  0.18976  1.0000
  O   O98       1.0  0.81685  0.4775  0.17604  1.0000
  O   O99       1.0  0.56619  0.44116000000000005  0.18575  1.0000
  O   O100      1.0  0.55076  0.5046  0.1001  1.0000
  O   O101      1.0  0.63202  0.4826000000000001  0.09102  1.0000
  O   O102      1.0  0.5980100000000002  0.4833600000000001  0.29964  1.0000
  O   O103      1.0  0.52682  0.41106  0.29947  1.0000
  O   O104      1.0  0.6665399999999998  0.4961000000000001  0.18007  1.0000
  O   O105      1.0  0.7348099999999997  0.47488000000000014  0.13700000000000004  1.0000
  O   O106      1.0  0.59039  0.54441  0.18196  1.0000
  O   O107      1.0  0.48163000000000006  0.40429  0.09633000000000003  1.0000
  O   O108      1.0  0.56083  0.38014  0.09395000000000002  1.0000
  O   O109      1.0  0.4605000000000001  0.4010200000000001  0.18984000000000006  1.0000
  O   O110      1.0  0.52258  0.33945  0.17618  1.0000
  O   O111      1.0  0.55863  0.12429000000000003  0.18558  1.0000
  O   O112      1.0  0.49609  0.0456  0.10235  1.0000
  O   O113      1.0  0.51751  0.15029  0.09029  1.0000
  O   O114      1.0  0.51636  0.11411  0.29974  1.0000
  O   O115      1.0  0.58902  0.1159  0.29933  1.0000
  O   O116      1.0  0.50458  0.17005  0.18018000000000003  1.0000
  O   O117      1.0  0.52498  0.26002  0.13705000000000003  1.0000
  O   O118      1.0  0.455  0.04571  0.18267  1.0000
  O   O119      1.0  0.59619  0.07754000000000003  0.09646  1.0000
  O   O120      1.0  0.59911  0.05936000000000002  0.18979  1.0000
  O   O121      1.0  0.5657299999999997  0.12452000000000003  0.6857200000000002  1.0000
  O   O122      1.0  0.55068  0.04607  0.60061  1.0000
  O   O123      1.0  0.81915  0.3802800000000001  0.5936500000000001  1.0000
  O   O124      1.0  0.63255  0.14988000000000007  0.59104  1.0000
  O   O125      1.0  0.59812  0.11465000000000002  0.79967  1.0000
  O   O126      1.0  0.52662  0.11521000000000002  0.7994300000000002  1.0000
  O   O127      1.0  0.81666  0.33962  0.67594  1.0000
  O   O128      1.0  0.66613  0.17032  0.6802500000000001  1.0000
  O   O129      1.0  0.73497  0.26001  0.63698  1.0000
  O   O130      1.0  0.5913200000000001  0.04615  0.68172  1.0000
  O   O131      1.0  0.4813399999999999  0.07736  0.59657  1.0000
  O   O132      1.0  0.56125  0.18079  0.59366  1.0000
  O   O133      1.0  0.4604700000000001  0.05902000000000002  0.69007  1.0000
  O   O134      1.0  0.52274  0.18311  0.67567  1.0000
  O   O135      1.0  0.5588300000000002  0.4342900000000001  0.6857300000000001  1.0000
  O   O136      1.0  0.49543  0.44931  0.6009  1.0000
  O   O137      1.0  0.51738  0.36756  0.59113  1.0000
  O   O138      1.0  0.51661  0.40205  0.79968  1.0000
  O   O139      1.0  0.58905  0.4730600000000001  0.79939  1.0000
  O   O140      1.0  0.50416  0.33381  0.6802400000000001  1.0000
  O   O141      1.0  0.5251  0.26505  0.63692  1.0000
  O   O142      1.0  0.45489  0.40882  0.6821  1.0000
  O   O143      1.0  0.59602  0.5187  0.59664  1.0000
  O   O144      1.0  0.61968  0.43886  0.5938  1.0000
  O   O145      1.0  0.59852  0.5394300000000001  0.69019  1.0000
  O   O146      1.0  0.66032  0.47702  0.67607  1.0000
  O   O147      1.0  0.87559  0.44121  0.68571  1.0000
  O   O148      1.0  0.95402  0.50454  0.6007  1.0000
  O   O149      1.0  0.8502399999999998  0.48263  0.59103  1.0000
  O   O150      1.0  0.88542  0.48332  0.79959  1.0000
  O   O151      1.0  0.8841  0.41097  0.7994100000000001  1.0000
  O   O152      1.0  0.8298  0.4957800000000001  0.6802500000000001  1.0000
  O   O153      1.0  0.74008  0.47497000000000006  0.6370000000000001  1.0000
  O   O154      1.0  0.95394  0.54504  0.6819000000000001  1.0000
  O   O155      1.0  0.92262  0.40394  0.5966  1.0000
  O   O156      1.0  0.9408100000000001  0.4012300000000001  0.6900900000000001  1.0000
  O   O157      1.0  0.5420799999999999  0.7675800000000002  0.51859  1.0000
  O   O158      1.0  0.6208199999999998  0.78317  0.43393000000000004  1.0000
  O   O159      1.0  0.28634  0.51434  0.42696000000000006  1.0000
  O   O160      1.0  0.51693  0.7008  0.4246  1.0000
  O   O161      1.0  0.55212  0.7352  0.63346  1.0000
  O   O162      1.0  0.55154  0.80661  0.63209  1.0000
  O   O163      1.0  0.32697  0.51658  0.5092300000000001  1.0000
  O   O164      1.0  0.49618  0.66725  0.51385  1.0000
  O   O165      1.0  0.4066699999999999  0.59837  0.47033  1.0000
  O   O166      1.0  0.62002  0.74167  0.5143100000000002  1.0000
  O   O167      1.0  0.4856800000000001  0.7720300000000002  0.4269700000000001  1.0000
  O   O168      1.0  0.48345000000000005  0.8105  0.5091300000000001  1.0000
  O   O169      1.0  0.23244000000000006  0.7745700000000002  0.51906  1.0000
  O   O170      1.0  0.21675  0.83764  0.43398  1.0000
  O   O171      1.0  0.29905  0.8162  0.42464  1.0000
  O   O172      1.0  0.26472  0.8169  0.63339  1.0000
  O   O173      1.0  0.19353  0.74465  0.63235  1.0000
  O   O174      1.0  0.33274000000000004  0.8290000000000001  0.51378  1.0000
  O   O175      1.0  0.40158  0.8084  0.47027  1.0000
  O   O176      1.0  0.25820000000000004  0.8783300000000002  0.51439  1.0000
  O   O177      1.0  0.22799000000000016  0.7137400000000003  0.4270300000000001  1.0000
  O   O178      1.0  0.18960000000000005  0.67309  0.50922  1.0000
  O   O179      1.0  0.22539000000000003  0.45785000000000003  0.5187  1.0000
  O   O180      1.0  0.1623  0.37914  0.43395  1.0000
  O   O181      1.0  0.18377  0.483  0.4247200000000001  1.0000
  O   O182      1.0  0.18306000000000003  0.44788000000000006  0.63336  1.0000
  O   O183      1.0  0.25522  0.44873  0.6322700000000001  1.0000
  O   O184      1.0  0.17103  0.5039  0.51385  1.0000
  O   O185      1.0  0.19166  0.59333  0.47023  1.0000
  O   O186      1.0  0.12156000000000006  0.37990000000000007  0.51434  1.0000
  O   O187      1.0  0.23251000000000005  0.4575900000000001  0.01843  1.0000
  O   O188      1.0  0.21573  0.37865  0.9352400000000001  1.0000
  O   O189      1.0  0.48568000000000006  0.7137700000000001  0.92664  1.0000
  O   O190      1.0  0.29962000000000005  0.48350000000000004  0.9239800000000002  1.0000
  O   O191      1.0  0.2649299999999999  0.44798  0.13359  1.0000
  O   O192      1.0  0.19316000000000005  0.4478400000000001  0.13171000000000002  1.0000
  O   O193      1.0  0.48342  0.67358  0.009330000000000001  1.0000
  O   O194      1.0  0.33249  0.50392  0.013930000000000001  1.0000
  O   O195      1.0  0.4018700000000001  0.5934900000000002  0.9704000000000002  1.0000
  O   O196      1.0  0.25823  0.37961  0.014810000000000004  1.0000
  O   O197      1.0  0.22725999999999996  0.5136  0.9267900000000002  1.0000
  O   O198      1.0  0.18942  0.51639  0.00919  1.0000
  O   O199      1.0  0.22506999999999988  0.76759  0.01852  1.0000
  O   O200      1.0  0.16283000000000006  0.78425  0.93536  1.0000
  O   O201      1.0  0.18381  0.70041  0.9241300000000001  1.0000
  O   O202      1.0  0.1829400000000001  0.7352300000000003  0.13352  1.0000
  O   O203      1.0  0.25523  0.80633  0.1319  1.0000
  O   O204      1.0  0.17153999999999994  0.66767  0.014  1.0000
  O   O205      1.0  0.19166  0.5981200000000001  0.9705  1.0000
  O   O206      1.0  0.12121000000000005  0.7417  0.014830000000000003  1.0000
  O   O207      1.0  0.2864  0.77268  0.9271400000000001  1.0000
  O   O208      1.0  0.32721  0.81071  0.009270000000000002  1.0000
  O   O209      1.0  0.5423  0.77475  0.0183  1.0000
  O   O210      1.0  0.6209  0.83764  0.93405  1.0000
  O   O211      1.0  0.51697  0.8162200000000002  0.9245000000000001  1.0000
  O   O212      1.0  0.55206  0.81685  0.13334000000000001  1.0000
  O   O213      1.0  0.55121  0.74472  0.13209  1.0000
  O   O214      1.0  0.49619  0.82901  0.01377  1.0000
  O   O215      1.0  0.40665  0.80831  0.97041  1.0000
  O   O216      1.0  0.62011  0.87851  0.014300000000000004  1.0000
