data_image0
_chemical_formula_structural       Zn16H144C240N24O76Zn16H144C240N24O76
_chemical_formula_sum              "Zn32 H288 C480 N48 O152"
_cell_length_a       27.033
_cell_length_b       36.13
_cell_length_c       34.291
_cell_angle_alpha    108.81
_cell_angle_beta     90.0
_cell_angle_gamma    90.0

_space_group_name_H-M_alt    "P 1"
_space_group_IT_number       1

loop_
  _space_group_symop_operation_xyz
  'x, y, z'

loop_
  _atom_site_type_symbol
  _atom_site_label
  _atom_site_symmetry_multiplicity
  _atom_site_fract_x
  _atom_site_fract_y
  _atom_site_fract_z
  _atom_site_occupancy
  Zn  Zn1       1.0  0.53312  0.59917  0.80317  1.0000
  Zn  Zn2       1.0  0.50176  0.60486  0.71691  1.0000
  Zn  Zn3       1.0  0.9869  0.6811900000000001  0.2910500000000001  1.0000
  Zn  Zn4       1.0  0.42368  0.62349  0.78972  1.0000
  Zn  Zn5       1.0  0.99568  0.12726  0.36434  1.0000
  Zn  Zn6       1.0  0.01122  0.049849999999999985  0.29092  1.0000
  Zn  Zn7       1.0  0.46836  0.13388  0.77991  1.0000
  Zn  Zn8       1.0  0.92285  0.10575000000000001  0.28838000000000014  1.0000
  Zn  Zn9       1.0  0.96688  0.59917  0.3031700000000001  1.0000
  Zn  Zn10      1.0  0.9982399999999999  0.60486  0.21691000000000005  1.0000
  Zn  Zn11      1.0  0.5131  0.68119  0.79105  1.0000
  Zn  Zn12      1.0  0.07632  0.62349  0.28972  1.0000
  Zn  Zn13      1.0  0.50432  0.1272600000000001  0.8643400000000002  1.0000
  Zn  Zn14      1.0  0.48878  0.049850000000000026  0.79092  1.0000
  Zn  Zn15      1.0  0.03164  0.13388000000000003  0.2799100000000001  1.0000
  Zn  Zn16      1.0  0.57715  0.10575000000000002  0.7883800000000002  1.0000
  H   H1        1.0  0.644  0.3763  0.6552  1.0000
  H   H2        1.0  0.7185  0.2213  0.4829  1.0000
  H   H3        1.0  0.5992999999999999  0.26560000000000006  0.6391000000000002  1.0000
  H   H4        1.0  0.8697  0.7781  0.1193  1.0000
  H   H5        1.0  0.74  0.7334  0.9782000000000002  1.0000
  H   H6        1.0  0.8943  0.8795  0.09600000000000003  1.0000
  H   H7        1.0  0.12449999999999997  0.8557  0.4702  1.0000
  H   H8        1.0  0.1548  0.9592  0.4512000000000001  1.0000
  H   H9        1.0  0.2911  0.9937999999999999  0.5837  1.0000
  H   H10       1.0  0.4041  0.4753  0.952  1.0000
  H   H11       1.0  0.3551  0.3545  0.9268  1.0000
  H   H12       1.0  0.2175  0.48719999999999997  0.057400000000000014  1.0000
  H   H13       1.0  0.5781  0.5088  0.6485  1.0000
  H   H14       1.0  0.5992  0.4472999999999999  0.6111  1.0000
  H   H15       1.0  0.6332999999999999  0.4263  0.7166  1.0000
  H   H16       1.0  0.6079  0.48940000000000006  0.7529000000000002  1.0000
  H   H17       1.0  0.7022  0.3390000000000001  0.5396000000000002  1.0000
  H   H18       1.0  0.7139  0.2324000000000001  0.5545000000000002  1.0000
  H   H19       1.0  0.6268  0.3153  0.6301000000000002  1.0000
  H   H20       1.0  0.8436  0.24279999999999996  0.4828  1.0000
  H   H21       1.0  0.8996  0.20650000000000002  0.4375000000000001  1.0000
  H   H22       1.0  0.7934  0.1393  0.3693  1.0000
  H   H23       1.0  0.7336  0.1741  0.4142  1.0000
  H   H24       1.0  0.6724  0.21149999999999997  0.6828  1.0000
  H   H25       1.0  0.6408999999999999  0.17350000000000007  0.7231000000000002  1.0000
  H   H26       1.0  0.5073  0.1991  0.7044  1.0000
  H   H27       1.0  0.5296  0.23769999999999997  0.6637  1.0000
  H   H28       1.0  0.9441  0.6503999999999999  0.12490000000000001  1.0000
  H   H29       1.0  0.9133999999999998  0.6818  0.08260000000000003  1.0000
  H   H30       1.0  0.8866  0.776  0.1808  1.0000
  H   H31       1.0  0.9264  0.7456  0.2238  1.0000
  H   H32       1.0  0.8112  0.7375  0.0013  1.0000
  H   H33       1.0  0.7785  0.8501999999999998  0.015000000000000003  1.0000
  H   H34       1.0  0.8676  0.825  0.0969  1.0000
  H   H35       1.0  0.7035  0.762  0.8934000000000002  1.0000
  H   H36       1.0  0.6471  0.7256  0.8422  1.0000
  H   H37       1.0  0.6293  0.6505999999999998  0.9062  1.0000
  H   H38       1.0  0.6785  0.6872000000000001  0.9570000000000002  1.0000
  H   H39       1.0  0.9526  0.9192999999999999  0.1289  1.0000
  H   H40       1.0  0.9792  0.9781999999999998  0.1797  1.0000
  H   H41       1.0  0.8394999999999999  0.013899999999999994  0.1951  1.0000
  H   H42       1.0  0.8145  0.9572  0.143  1.0000
  H   H43       1.0  0.0304  0.7747  0.3765  1.0000
  H   H44       1.0  0.0661  0.8287  0.4278  1.0000
  H   H45       1.0  0.18989999999999999  0.7659  0.4304  1.0000
  H   H46       1.0  0.1521  0.7136  0.383  1.0000
  H   H47       1.0  0.15159999999999998  0.9116000000000001  0.4702  1.0000
  H   H48       1.0  0.21699999999999994  0.9926  0.5655  1.0000
  H   H49       1.0  0.24939999999999996  0.8785  0.5416  1.0000
  H   H50       1.0  0.1224  0.9656  0.39090000000000014  1.0000
  H   H51       1.0  0.10629999999999999  0.012600000000000037  0.35770000000000013  1.0000
  H   H52       1.0  0.0569  0.08529999999999997  0.4621  1.0000
  H   H53       1.0  0.1011  0.0494  0.49760000000000004  1.0000
  H   H54       1.0  0.3286  0.05149999999999999  0.6168  1.0000
  H   H55       1.0  0.3759999999999999  0.08849999999999998  0.6732  1.0000
  H   H56       1.0  0.38199999999999995  0.9977  0.7174000000000003  1.0000
  H   H57       1.0  0.3279  0.962  0.6656  1.0000
  H   H58       1.0  0.4987999999999999  0.5352  0.8858  1.0000
  H   H59       1.0  0.4692  0.5010999999999999  0.9258  1.0000
  H   H60       1.0  0.3312  0.5308  0.9102  1.0000
  H   H61       1.0  0.3607  0.5630000000000001  0.8669000000000002  1.0000
  H   H62       1.0  0.3715  0.419  0.9506000000000002  1.0000
  H   H63       1.0  0.3071  0.3956  0.0478  1.0000
  H   H64       1.0  0.2869  0.501  0.0328  1.0000
  H   H65       1.0  0.3518  0.2991  0.8698  1.0000
  H   H66       1.0  0.38309999999999994  0.23759999999999998  0.8334  1.0000
  H   H67       1.0  0.4602  0.2374  0.9332  1.0000
  H   H68       1.0  0.4247  0.2991  0.9713  1.0000
  H   H69       1.0  0.1528  0.5267  0.0741  1.0000
  H   H70       1.0  0.0889  0.5511  0.12220000000000003  1.0000
  H   H71       1.0  0.1716  0.5311  0.21200000000000005  1.0000
  H   H72       1.0  0.2244  0.4938  0.15890000000000007  1.0000
  H   H73       1.0  0.856  0.3763  0.1552  1.0000
  H   H74       1.0  0.7814999999999999  0.22130000000000005  0.9829  1.0000
  H   H75       1.0  0.9007  0.2656  0.1391  1.0000
  H   H76       1.0  0.6303  0.7781  0.6193  1.0000
  H   H77       1.0  0.76  0.7334  0.4782  1.0000
  H   H78       1.0  0.6057  0.8794999999999998  0.596  1.0000
  H   H79       1.0  0.3755  0.8557000000000001  0.9702  1.0000
  H   H80       1.0  0.3452  0.9592  0.9512  1.0000
  H   H81       1.0  0.2089  0.9937999999999999  0.08370000000000002  1.0000
  H   H82       1.0  0.0959  0.4753  0.452  1.0000
  H   H83       1.0  0.1449  0.35450000000000004  0.4268  1.0000
  H   H84       1.0  0.2825  0.48719999999999997  0.5574  1.0000
  H   H85       1.0  0.9219  0.5088  0.1485  1.0000
  H   H86       1.0  0.9008  0.4472999999999999  0.11110000000000003  1.0000
  H   H87       1.0  0.8667  0.4263  0.21660000000000004  1.0000
  H   H88       1.0  0.8921  0.48939999999999995  0.2529  1.0000
  H   H89       1.0  0.7978  0.339  0.0396  1.0000
  H   H90       1.0  0.7861  0.2324  0.0545  1.0000
  H   H91       1.0  0.8732  0.3153  0.1301  1.0000
  H   H92       1.0  0.6564  0.24280000000000007  0.9828000000000002  1.0000
  H   H93       1.0  0.6003999999999999  0.20650000000000004  0.9375000000000002  1.0000
  H   H94       1.0  0.7065999999999998  0.1393000000000001  0.8693000000000002  1.0000
  H   H95       1.0  0.7664  0.17410000000000003  0.9142000000000002  1.0000
  H   H96       1.0  0.8276  0.21149999999999997  0.18280000000000005  1.0000
  H   H97       1.0  0.8591  0.1735  0.2231  1.0000
  H   H98       1.0  0.9926999999999998  0.1991  0.2044  1.0000
  H   H99       1.0  0.9704  0.23769999999999997  0.1637  1.0000
  H   H100      1.0  0.5559  0.6503999999999999  0.6249  1.0000
  H   H101      1.0  0.5866  0.6818  0.5826  1.0000
  H   H102      1.0  0.6134  0.776  0.6808  1.0000
  H   H103      1.0  0.5736  0.7456  0.7238  1.0000
  H   H104      1.0  0.6888  0.7375  0.5013  1.0000
  H   H105      1.0  0.7215  0.8501999999999998  0.515  1.0000
  H   H106      1.0  0.6324  0.825  0.5969  1.0000
  H   H107      1.0  0.7965  0.762  0.3934  1.0000
  H   H108      1.0  0.8529  0.7256  0.3422  1.0000
  H   H109      1.0  0.8706999999999998  0.6505999999999998  0.4062  1.0000
  H   H110      1.0  0.8215  0.6872000000000001  0.45700000000000013  1.0000
  H   H111      1.0  0.5474  0.9192999999999999  0.6289  1.0000
  H   H112      1.0  0.5208  0.9781999999999998  0.6797000000000001  1.0000
  H   H113      1.0  0.6605  0.013900000000000006  0.6951  1.0000
  H   H114      1.0  0.6855  0.9572  0.643  1.0000
  H   H115      1.0  0.4696  0.7747  0.8765000000000002  1.0000
  H   H116      1.0  0.4339  0.8287000000000001  0.9278000000000002  1.0000
  H   H117      1.0  0.3101  0.7659  0.9304  1.0000
  H   H118      1.0  0.3479  0.7136  0.883  1.0000
  H   H119      1.0  0.3484  0.9116000000000001  0.9702  1.0000
  H   H120      1.0  0.283  0.9926  0.0655  1.0000
  H   H121      1.0  0.2506  0.8785  0.0416  1.0000
  H   H122      1.0  0.3776  0.9656  0.8909  1.0000
  H   H123      1.0  0.3937  0.012600000000000085  0.8577000000000002  1.0000
  H   H124      1.0  0.4431  0.0853  0.9621  1.0000
  H   H125      1.0  0.3989  0.0494  0.9976000000000002  1.0000
  H   H126      1.0  0.1714  0.051500000000000004  0.11680000000000003  1.0000
  H   H127      1.0  0.124  0.08850000000000001  0.17320000000000005  1.0000
  H   H128      1.0  0.11799999999999998  0.9977  0.2174  1.0000
  H   H129      1.0  0.1721  0.962  0.1656  1.0000
  H   H130      1.0  0.0012  0.5352  0.3858  1.0000
  H   H131      1.0  0.0308  0.5010999999999999  0.4258  1.0000
  H   H132      1.0  0.1688  0.5308  0.4102000000000001  1.0000
  H   H133      1.0  0.1393  0.563  0.3669000000000001  1.0000
  H   H134      1.0  0.1285  0.419  0.4506  1.0000
  H   H135      1.0  0.1929  0.39560000000000006  0.5478  1.0000
  H   H136      1.0  0.2131  0.5010000000000001  0.5328000000000003  1.0000
  H   H137      1.0  0.14819999999999997  0.2991  0.3698  1.0000
  H   H138      1.0  0.11689999999999999  0.23759999999999998  0.3334  1.0000
  H   H139      1.0  0.0398  0.2374  0.4332000000000001  1.0000
  H   H140      1.0  0.0753  0.2991  0.4713  1.0000
  H   H141      1.0  0.3472  0.5267  0.5741  1.0000
  H   H142      1.0  0.4111  0.5511  0.6222  1.0000
  H   H143      1.0  0.3284  0.5311  0.712  1.0000
  H   H144      1.0  0.2756  0.4938  0.6589  1.0000
  C   C1        1.0  0.5674  0.5429  0.7270000000000002  1.0000
  C   C2        1.0  0.5875  0.50443  0.7041  1.0000
  C   C3        1.0  0.5881  0.4913  0.6626000000000001  1.0000
  C   C4        1.0  0.6014999999999999  0.4555  0.6403  1.0000
  C   C5        1.0  0.6192  0.42998  0.6601  1.0000
  C   C6        1.0  0.6213  0.44293  0.7022  1.0000
  C   C7        1.0  0.6057  0.48040000000000005  0.7237000000000002  1.0000
  C   C8        1.0  0.6444  0.37414  0.5986  1.0000
  C   C9        1.0  0.6618  0.33256  0.5866  1.0000
  C   C10       1.0  0.6932  0.32117  0.5535  1.0000
  C   C11       1.0  0.7122  0.28221  0.5401  1.0000
  C   C12       1.0  0.7004  0.258  0.5621  1.0000
  C   C13       1.0  0.6689  0.27073  0.59529  1.0000
  C   C14       1.0  0.6490999999999999  0.30738  0.6074600000000002  1.0000
  C   C15       1.0  0.7479  0.2712  0.5069  1.0000
  C   C16       1.0  0.7807  0.21375  0.4528  1.0000
  C   C17       1.0  0.8328  0.22197000000000003  0.4595  1.0000
  C   C18       1.0  0.8654  0.2005  0.4331700000000001  1.0000
  C   C19       1.0  0.8509999999999999  0.16911  0.3991  1.0000
  C   C20       1.0  0.803  0.16049999999999998  0.3927  1.0000
  C   C21       1.0  0.7674  0.18144  0.419  1.0000
  C   C22       1.0  0.8895  0.1466  0.3706  1.0000
  C   C23       1.0  0.6591  0.24314000000000002  0.6195  1.0000
  C   C24       1.0  0.6017  0.22510999999999998  0.6664  1.0000
  C   C25       1.0  0.6379  0.2086  0.6862  1.0000
  C   C26       1.0  0.6181  0.18717000000000006  0.7117000000000002  1.0000
  C   C27       1.0  0.5722  0.18517  0.7201  1.0000
  C   C28       1.0  0.5416  0.20220000000000005  0.7005000000000002  1.0000
  C   C29       1.0  0.5537  0.22439999999999996  0.6745  1.0000
  C   C30       1.0  0.5536  0.16231000000000007  0.7446400000000002  1.0000
  C   C31       1.0  0.9594  0.6743  0.20472  1.0000
  C   C32       1.0  0.9399  0.6948  0.17751000000000003  1.0000
  C   C33       1.0  0.9342  0.6769  0.1364  1.0000
  C   C34       1.0  0.9151  0.6951  0.11140000000000003  1.0000
  C   C35       1.0  0.8983  0.7324  0.127  1.0000
  C   C36       1.0  0.9005  0.7506000000000002  0.16920000000000004  1.0000
  C   C37       1.0  0.923  0.7324  0.1951  1.0000
  C   C38       1.0  0.8673  0.7457999999999999  0.06520000000000002  1.0000
  C   C39       1.0  0.8454  0.776  0.0489  1.0000
  C   C40       1.0  0.8151  0.76461  0.0159  1.0000
  C   C41       1.0  0.7895  0.79159  0.0028  1.0000
  C   C42       1.0  0.7957999999999998  0.83151  0.024000000000000007  1.0000
  C   C43       1.0  0.8259  0.8439  0.0569  1.0000
  C   C44       1.0  0.8494  0.8165999999999999  0.0719  1.0000
  C   C45       1.0  0.7582  0.7808  0.9652  1.0000
  C   C46       1.0  0.6993999999999999  0.72676  0.9291000000000003  1.0000
  C   C47       1.0  0.6882  0.7392  0.8959  1.0000
  C   C48       1.0  0.6538  0.71793  0.8657  1.0000
  C   C49       1.0  0.6305  0.68615  0.8709  1.0000
  C   C50       1.0  0.6430999999999999  0.6741000000000001  0.9041000000000002  1.0000
  C   C51       1.0  0.6737999999999998  0.69458  0.933  1.0000
  C   C52       1.0  0.5947  0.6639  0.8378  1.0000
  C   C53       1.0  0.8316  0.8836999999999999  0.0813  1.0000
  C   C54       1.0  0.881  0.9335  0.1317  1.0000
  C   C55       1.0  0.9291  0.9388  0.14240000000000005  1.0000
  C   C56       1.0  0.945  0.9733  0.17370000000000005  1.0000
  C   C57       1.0  0.9094  0.9994999999999999  0.19530000000000003  1.0000
  C   C58       1.0  0.8633  0.9943400000000001  0.1825  1.0000
  C   C59       1.0  0.8484  0.9606  0.1508  1.0000
  C   C60       1.0  0.9277  0.03449999999999999  0.2277  1.0000
  C   C61       1.0  0.0709  0.7091  0.3407000000000001  1.0000
  C   C62       1.0  0.0923  0.7393  0.3743  1.0000
  C   C63       1.0  0.0624  0.7733  0.38740000000000013  1.0000
  C   C64       1.0  0.0841  0.8048999999999998  0.41810000000000014  1.0000
  C   C65       1.0  0.1298  0.8035  0.4349  1.0000
  C   C66       1.0  0.1576  0.76818  0.4205000000000001  1.0000
  C   C67       1.0  0.1351  0.73794  0.3915  1.0000
  C   C68       1.0  0.1908  0.84678  0.4781  1.0000
  C   C69       1.0  0.19729999999999995  0.8888800000000001  0.5030300000000002  1.0000
  C   C70       1.0  0.1732  0.9179300000000001  0.49328999999999995  1.0000
  C   C71       1.0  0.1803  0.9577199999999999  0.5177  1.0000
  C   C72       1.0  0.2124  0.96604  0.54933  1.0000
  C   C73       1.0  0.2387  0.93804  0.55921  1.0000
  C   C74       1.0  0.2313  0.89849  0.53552  1.0000
  C   C75       1.0  0.15529999999999997  0.9901  0.5088  1.0000
  C   C76       1.0  0.12059999999999998  0.004999999999999999  0.4485  1.0000
  C   C77       1.0  0.115  0.992  0.4062  1.0000
  C   C78       1.0  0.09849999999999999  0.017599999999999973  0.3859  1.0000
  C   C79       1.0  0.0718  0.049  0.406  1.0000
  C   C80       1.0  0.0731  0.06160000000000002  0.4471  1.0000
  C   C81       1.0  0.0991  0.03946000000000003  0.4684000000000001  1.0000
  C   C82       1.0  0.044399999999999995  0.07040000000000003  0.3804000000000001  1.0000
  C   C83       1.0  0.2717  0.9469399999999999  0.5939  1.0000
  C   C84       1.0  0.3238  0.002999999999999999  0.6357  1.0000
  C   C85       1.0  0.3382  0.0409  0.6377  1.0000
  C   C86       1.0  0.3669  0.06250000000000006  0.6711000000000003  1.0000
  C   C87       1.0  0.3818  0.0479  0.7002  1.0000
  C   C88       1.0  0.36939999999999995  0.008700000000000003  0.6978  1.0000
  C   C89       1.0  0.33879999999999993  0.9873  0.6664  1.0000
  C   C90       1.0  0.4116  0.07240000000000006  0.7351000000000002  1.0000
  C   C91       1.0  0.4522  0.5750499999999998  0.84403  1.0000
  C   C92       1.0  0.4318  0.55249  0.86997  1.0000
  C   C93       1.0  0.4642  0.53403  0.8897000000000003  1.0000
  C   C94       1.0  0.4465  0.51465  0.91407  1.0000
  C   C95       1.0  0.399  0.51347  0.9226000000000001  1.0000
  C   C96       1.0  0.3655999999999999  0.5314  0.9049  1.0000
  C   C97       1.0  0.3838  0.5504  0.8792  1.0000
  C   C98       1.0  0.3398999999999999  0.49478  0.96719  1.0000
  C   C99       1.0  0.3321  0.4645099999999999  0.98788  1.0000
  C   C100      1.0  0.3515  0.42743  0.9746400000000002  1.0000
  C   C101      1.0  0.3408  0.40151  0.9979000000000001  1.0000
  C   C102      1.0  0.3125  0.41273  0.03222000000000001  1.0000
  C   C103      1.0  0.2919  0.4489000000000001  0.044010000000000014  1.0000
  C   C104      1.0  0.3011  0.4756  0.0233  1.0000
  C   C105      1.0  0.3644  0.3617099999999999  0.984  1.0000
  C   C106      1.0  0.3864  0.30509  0.924  1.0000
  C   C107      1.0  0.3736  0.2864000000000001  0.8831000000000002  1.0000
  C   C108      1.0  0.3917  0.2498799999999999  0.8615  1.0000
  C   C109      1.0  0.4218  0.23193  0.881  1.0000
  C   C110      1.0  0.4368  0.24968999999999997  0.92069  1.0000
  C   C111      1.0  0.4167  0.2870800000000001  0.9430700000000002  1.0000
  C   C112      1.0  0.4417  0.1911  0.8582  1.0000
  C   C113      1.0  0.2625  0.4607  0.0835  1.0000
  C   C114      1.0  0.1928  0.5059  0.11390000000000002  1.0000
  C   C115      1.0  0.1547  0.5258  0.1015  1.0000
  C   C116      1.0  0.1201  0.5439999999999999  0.13040000000000004  1.0000
  C   C117      1.0  0.1316  0.5523  0.1741  1.0000
  C   C118      1.0  0.1674  0.5309  0.18450000000000005  1.0000
  C   C119      1.0  0.1982  0.5082  0.15210000000000007  1.0000
  C   C120      1.0  0.09549999999999999  0.5766  0.2032  1.0000
  C   C121      1.0  0.9326  0.5429  0.227  1.0000
  C   C122      1.0  0.9125  0.50443  0.2041  1.0000
  C   C123      1.0  0.9119  0.4913  0.1626  1.0000
  C   C124      1.0  0.8985  0.4555  0.1403  1.0000
  C   C125      1.0  0.8808  0.42998  0.16010000000000005  1.0000
  C   C126      1.0  0.8787  0.44293  0.20220000000000005  1.0000
  C   C127      1.0  0.8943  0.48039999999999994  0.2237  1.0000
  C   C128      1.0  0.8556  0.37413999999999986  0.0986  1.0000
  C   C129      1.0  0.8382  0.33256  0.08660000000000002  1.0000
  C   C130      1.0  0.8068  0.32117  0.0535  1.0000
  C   C131      1.0  0.7878  0.28221  0.0401  1.0000
  C   C132      1.0  0.7995999999999999  0.258  0.0621  1.0000
  C   C133      1.0  0.8311  0.27073  0.09529000000000003  1.0000
  C   C134      1.0  0.8509  0.30738  0.10746  1.0000
  C   C135      1.0  0.7521  0.2712  0.0069  1.0000
  C   C136      1.0  0.7193  0.2137500000000001  0.9528000000000002  1.0000
  C   C137      1.0  0.6671999999999998  0.22197000000000003  0.9595  1.0000
  C   C138      1.0  0.6346  0.2005  0.93317  1.0000
  C   C139      1.0  0.649  0.16911  0.8991000000000002  1.0000
  C   C140      1.0  0.697  0.16050000000000006  0.8927000000000003  1.0000
  C   C141      1.0  0.7326  0.18144  0.919  1.0000
  C   C142      1.0  0.6105  0.14660000000000006  0.8706000000000003  1.0000
  C   C143      1.0  0.8409  0.24314000000000002  0.1195  1.0000
  C   C144      1.0  0.8983  0.22510999999999998  0.1664  1.0000
  C   C145      1.0  0.8621  0.2086  0.18620000000000006  1.0000
  C   C146      1.0  0.8819  0.18717  0.2117  1.0000
  C   C147      1.0  0.9278  0.18517  0.2201  1.0000
  C   C148      1.0  0.9584  0.2022  0.20050000000000007  1.0000
  C   C149      1.0  0.9463  0.22439999999999996  0.1745  1.0000
  C   C150      1.0  0.9464  0.16231000000000004  0.24464000000000005  1.0000
  C   C151      1.0  0.5406  0.6743  0.7047200000000002  1.0000
  C   C152      1.0  0.5601  0.6948000000000001  0.6775100000000002  1.0000
  C   C153      1.0  0.5658  0.6769  0.6364  1.0000
  C   C154      1.0  0.5849  0.6951  0.6114  1.0000
  C   C155      1.0  0.6017  0.7324  0.627  1.0000
  C   C156      1.0  0.5995  0.7506  0.6692  1.0000
  C   C157      1.0  0.577  0.7324  0.6951  1.0000
  C   C158      1.0  0.6326999999999999  0.7457999999999999  0.5652  1.0000
  C   C159      1.0  0.6545999999999998  0.776  0.5489  1.0000
  C   C160      1.0  0.6849  0.7646100000000001  0.5159000000000002  1.0000
  C   C161      1.0  0.7105  0.79159  0.5028  1.0000
  C   C162      1.0  0.7042  0.83151  0.524  1.0000
  C   C163      1.0  0.6741  0.8439  0.5569000000000002  1.0000
  C   C164      1.0  0.6506  0.8166  0.5719  1.0000
  C   C165      1.0  0.7418  0.7808  0.4652  1.0000
  C   C166      1.0  0.8006  0.72676  0.4291  1.0000
  C   C167      1.0  0.8118  0.7392  0.3959  1.0000
  C   C168      1.0  0.8462  0.71793  0.36570000000000014  1.0000
  C   C169      1.0  0.8694999999999999  0.68615  0.3709  1.0000
  C   C170      1.0  0.8569  0.6741  0.4041  1.0000
  C   C171      1.0  0.8262  0.6945800000000001  0.4330000000000001  1.0000
  C   C172      1.0  0.9053  0.6639  0.3378  1.0000
  C   C173      1.0  0.6684  0.8837  0.5813  1.0000
  C   C174      1.0  0.6189999999999999  0.9335  0.6317  1.0000
  C   C175      1.0  0.5709  0.9388  0.6424000000000002  1.0000
  C   C176      1.0  0.555  0.9733  0.6737  1.0000
  C   C177      1.0  0.5906  0.9994999999999999  0.6953  1.0000
  C   C178      1.0  0.6367  0.9943400000000001  0.6825000000000002  1.0000
  C   C179      1.0  0.6516  0.9606  0.6508  1.0000
  C   C180      1.0  0.5723  0.03450000000000009  0.7277000000000002  1.0000
  C   C181      1.0  0.4291  0.7091000000000001  0.8407  1.0000
  C   C182      1.0  0.40769999999999995  0.7393  0.8743000000000002  1.0000
  C   C183      1.0  0.4376  0.7733  0.8874  1.0000
  C   C184      1.0  0.41589999999999994  0.8048999999999998  0.9181  1.0000
  C   C185      1.0  0.3702  0.8035  0.9349  1.0000
  C   C186      1.0  0.3424  0.76818  0.9205  1.0000
  C   C187      1.0  0.3649  0.73794  0.8915  1.0000
  C   C188      1.0  0.3092  0.84678  0.9781  1.0000
  C   C189      1.0  0.3027  0.8888800000000001  0.00303  1.0000
  C   C190      1.0  0.3268  0.9179300000000001  0.99329  1.0000
  C   C191      1.0  0.3197  0.9577199999999999  0.0177  1.0000
  C   C192      1.0  0.2876  0.96604  0.04933  1.0000
  C   C193      1.0  0.2613  0.93804  0.05921  1.0000
  C   C194      1.0  0.2687  0.89849  0.03552  1.0000
  C   C195      1.0  0.3447  0.9901  0.0088  1.0000
  C   C196      1.0  0.3794  0.004999999999999999  0.9485  1.0000
  C   C197      1.0  0.38499999999999995  0.992  0.9062  1.0000
  C   C198      1.0  0.4015  0.017599999999999987  0.8859  1.0000
  C   C199      1.0  0.42819999999999997  0.04899999999999999  0.906  1.0000
  C   C200      1.0  0.4269  0.06160000000000008  0.9471000000000003  1.0000
  C   C201      1.0  0.4008999999999999  0.039460000000000064  0.9684000000000003  1.0000
  C   C202      1.0  0.4555999999999999  0.07039999999999999  0.8804  1.0000
  C   C203      1.0  0.2283  0.9469399999999999  0.0939  1.0000
  C   C204      1.0  0.1762  0.002999999999999999  0.1357  1.0000
  C   C205      1.0  0.1618  0.0409  0.1377  1.0000
  C   C206      1.0  0.1331  0.0625  0.1711  1.0000
  C   C207      1.0  0.11819999999999999  0.0479  0.2002  1.0000
  C   C208      1.0  0.1306  0.00869999999999999  0.1978  1.0000
  C   C209      1.0  0.1612  0.9873  0.1664  1.0000
  C   C210      1.0  0.0884  0.0724  0.2351  1.0000
  C   C211      1.0  0.0478  0.5750499999999998  0.34403  1.0000
  C   C212      1.0  0.0682  0.55249  0.36997  1.0000
  C   C213      1.0  0.0358  0.53403  0.3897000000000001  1.0000
  C   C214      1.0  0.0535  0.5146500000000002  0.4140700000000001  1.0000
  C   C215      1.0  0.101  0.51347  0.4226000000000001  1.0000
  C   C216      1.0  0.1344  0.5314  0.4049  1.0000
  C   C217      1.0  0.1162  0.5504  0.3792000000000001  1.0000
  C   C218      1.0  0.16009999999999996  0.4947800000000001  0.4671900000000001  1.0000
  C   C219      1.0  0.16789999999999997  0.4645099999999999  0.4878800000000001  1.0000
  C   C220      1.0  0.1485  0.4274299999999999  0.4746400000000001  1.0000
  C   C221      1.0  0.1592  0.40151  0.4979  1.0000
  C   C222      1.0  0.1875  0.41273  0.53222  1.0000
  C   C223      1.0  0.20809999999999995  0.4489000000000001  0.5440100000000002  1.0000
  C   C224      1.0  0.1989  0.4756  0.5233  1.0000
  C   C225      1.0  0.1356  0.3617099999999999  0.484  1.0000
  C   C226      1.0  0.1136  0.30509000000000003  0.4240000000000001  1.0000
  C   C227      1.0  0.1264  0.2864  0.3831  1.0000
  C   C228      1.0  0.1083  0.24987999999999996  0.3615  1.0000
  C   C229      1.0  0.07819999999999998  0.23193  0.381  1.0000
  C   C230      1.0  0.0632  0.24968999999999997  0.4206900000000001  1.0000
  C   C231      1.0  0.0833  0.28708  0.44307  1.0000
  C   C232      1.0  0.0583  0.1911  0.3582  1.0000
  C   C233      1.0  0.23749999999999996  0.4607  0.5835  1.0000
  C   C234      1.0  0.3072  0.5059  0.6139000000000002  1.0000
  C   C235      1.0  0.3453  0.5258  0.6015  1.0000
  C   C236      1.0  0.3799  0.5439999999999999  0.6304  1.0000
  C   C237      1.0  0.3684  0.5523  0.6741  1.0000
  C   C238      1.0  0.3326  0.5309  0.6845000000000002  1.0000
  C   C239      1.0  0.3018  0.5082  0.6521  1.0000
  C   C240      1.0  0.4045  0.5766  0.7032  1.0000
  N   N1        1.0  0.6370999999999999  0.39073  0.63951  1.0000
  N   N2        1.0  0.7456  0.23423000000000005  0.4813800000000001  1.0000
  N   N3        1.0  0.6191  0.24677999999999997  0.64066  1.0000
  N   N4        1.0  0.8775  0.75409  0.10441000000000003  1.0000
  N   N5        1.0  0.7334  0.74524  0.96006  1.0000
  N   N6        1.0  0.8697  0.8963400000000001  0.1013  1.0000
  N   N7        1.0  0.1468  0.83704  0.4619  1.0000
  N   N8        1.0  0.1447  0.98209  0.46752  1.0000
  N   N9        1.0  0.2951  0.98232  0.6025000000000003  1.0000
  N   N10       1.0  0.3829  0.49234  0.94815  1.0000
  N   N11       1.0  0.36698  0.34232  0.9432000000000003  1.0000
  N   N12       1.0  0.2236  0.4848  0.08165  1.0000
  N   N13       1.0  0.8629  0.39073  0.13951  1.0000
  N   N14       1.0  0.7544  0.23422999999999997  0.98138  1.0000
  N   N15       1.0  0.8809  0.24677999999999997  0.14066  1.0000
  N   N16       1.0  0.6225  0.75409  0.60441  1.0000
  N   N17       1.0  0.7666  0.74524  0.46006  1.0000
  N   N18       1.0  0.6303  0.8963400000000001  0.6013  1.0000
  N   N19       1.0  0.3532  0.83704  0.9619  1.0000
  N   N20       1.0  0.3553  0.98209  0.9675200000000003  1.0000
  N   N21       1.0  0.2049  0.98232  0.10250000000000002  1.0000
  N   N22       1.0  0.1171  0.49234  0.44815  1.0000
  N   N23       1.0  0.13302  0.34231999999999996  0.4432000000000001  1.0000
  N   N24       1.0  0.2764  0.4848  0.58165  1.0000
  O   O1        1.0  0.56716  0.55431  0.76662  1.0000
  O   O2        1.0  0.5491  0.56363  0.7058500000000002  1.0000
  O   O3        1.0  0.9319  0.14879  0.38554  1.0000
  O   O4        1.0  0.87593  0.12518  0.33356  1.0000
  O   O5        1.0  0.50613  0.16176000000000004  0.75065  1.0000
  O   O6        1.0  0.5848  0.14533999999999994  0.76013  1.0000
  O   O7        1.0  0.6395  0.39024  0.57297  1.0000
  O   O8        1.0  0.7795  0.29366  0.50244  1.0000
  O   O9        1.0  0.691  0.21918  0.62008  1.0000
  O   O10       1.0  0.96945  0.69461  0.24246  1.0000
  O   O11       1.0  0.97113  0.63906  0.18891000000000002  1.0000
  O   O12       1.0  0.57935  0.6792  0.81244  1.0000
  O   O13       1.0  0.57919  0.6318  0.84127  1.0000
  O   O14       1.0  0.8963  0.05926000000000001  0.24688000000000002  1.0000
  O   O15       1.0  0.974  0.03667  0.23559  1.0000
  O   O16       1.0  0.8777  0.71331  0.0398  1.0000
  O   O17       1.0  0.7507  0.8006099999999999  0.94389  1.0000
  O   O18       1.0  0.7953  0.9060700000000002  0.0825  1.0000
  O   O19       1.0  0.0332  0.71223  0.321  1.0000
  O   O20       1.0  0.0965  0.67299  0.32832  1.0000
  O   O21       1.0  0.022179999999999995  0.10063000000000004  0.4000900000000001  1.0000
  O   O22       1.0  0.0527  0.0586  0.3433  1.0000
  O   O23       1.0  0.4242  0.05611000000000005  0.76201  1.0000
  O   O24       1.0  0.42487  0.10528000000000003  0.73736  1.0000
  O   O25       1.0  0.22527999999999995  0.8229800000000002  0.4726100000000001  1.0000
  O   O26       1.0  0.1437  0.019940000000000006  0.53399  1.0000
  O   O27       1.0  0.28055  0.9244799999999999  0.61411  1.0000
  O   O28       1.0  0.49756  0.57583  0.8384000000000003  1.0000
  O   O29       1.0  0.42  0.59032  0.82728  1.0000
  O   O30       1.0  0.43407  0.17826  0.8201  1.0000
  O   O31       1.0  0.46494  0.17466  0.88006  1.0000
  O   O32       1.0  0.0552  0.5862  0.1889  1.0000
  O   O33       1.0  0.1051  0.5843  0.23920000000000002  1.0000
  O   O34       1.0  0.30833  0.51747  0.96612  1.0000
  O   O35       1.0  0.38118  0.3485  0.01018  1.0000
  O   O36       1.0  0.2716  0.45094999999999996  0.11278000000000003  1.0000
  O   O37       1.0  0.49343  0.62654  0.7756900000000002  1.0000
  O   O38       1.0  0.98961  0.10632  0.30592  1.0000
  O   O39       1.0  0.93284  0.55431  0.26662  1.0000
  O   O40       1.0  0.9509  0.56363  0.20585  1.0000
  O   O41       1.0  0.5681  0.14879  0.88554  1.0000
  O   O42       1.0  0.62407  0.12517999999999996  0.83356  1.0000
  O   O43       1.0  0.99387  0.16176  0.25065  1.0000
  O   O44       1.0  0.9152  0.14534  0.26013  1.0000
  O   O45       1.0  0.8605  0.39024  0.07297000000000002  1.0000
  O   O46       1.0  0.7205  0.29366  0.00244  1.0000
  O   O47       1.0  0.809  0.21918000000000004  0.12008  1.0000
  O   O48       1.0  0.53055  0.69461  0.7424600000000002  1.0000
  O   O49       1.0  0.52887  0.63906  0.6889100000000002  1.0000
  O   O50       1.0  0.92065  0.6792  0.31244  1.0000
  O   O51       1.0  0.92081  0.6318  0.34127  1.0000
  O   O52       1.0  0.6036999999999999  0.05926000000000001  0.74688  1.0000
  O   O53       1.0  0.526  0.036669999999999967  0.73559  1.0000
  O   O54       1.0  0.6222999999999999  0.71331  0.5398000000000002  1.0000
  O   O55       1.0  0.7492999999999997  0.80061  0.44389  1.0000
  O   O56       1.0  0.7047  0.9060700000000002  0.5825  1.0000
  O   O57       1.0  0.46679999999999994  0.71223  0.821  1.0000
  O   O58       1.0  0.4035  0.67299  0.8283200000000002  1.0000
  O   O59       1.0  0.47782  0.10063  0.90009  1.0000
  O   O60       1.0  0.4473  0.0586  0.8433  1.0000
  O   O61       1.0  0.07579999999999999  0.05610999999999999  0.26201  1.0000
  O   O62       1.0  0.07512999999999999  0.10528000000000001  0.23736  1.0000
  O   O63       1.0  0.27472  0.8229799999999999  0.97261  1.0000
  O   O64       1.0  0.35629999999999995  0.019940000000000006  0.03399000000000001  1.0000
  O   O65       1.0  0.21944999999999998  0.9244799999999999  0.11411000000000003  1.0000
  O   O66       1.0  0.0024399999999999995  0.57583  0.3384000000000001  1.0000
  O   O67       1.0  0.08  0.59032  0.3272800000000001  1.0000
  O   O68       1.0  0.06593  0.17826000000000006  0.3201000000000001  1.0000
  O   O69       1.0  0.03506  0.17466  0.38006  1.0000
  O   O70       1.0  0.4448  0.5862000000000002  0.6889000000000002  1.0000
  O   O71       1.0  0.39489999999999986  0.5843  0.7392  1.0000
  O   O72       1.0  0.19167  0.51747  0.46612  1.0000
  O   O73       1.0  0.11882  0.34850000000000003  0.5101800000000002  1.0000
  O   O74       1.0  0.2284  0.4509500000000001  0.6127800000000002  1.0000
  O   O75       1.0  0.0065699999999999995  0.62654  0.2756900000000001  1.0000
  O   O76       1.0  0.51039  0.10631999999999998  0.80592  1.0000
  Zn  Zn17      1.0  0.03312  0.4008300000000001  0.6968300000000002  1.0000
  Zn  Zn18      1.0  0.0017599999999999996  0.3951400000000001  0.7830900000000002  1.0000
  Zn  Zn19      1.0  0.4869  0.31881  0.20895  1.0000
  Zn  Zn20      1.0  0.92368  0.3765100000000001  0.7102800000000002  1.0000
  Zn  Zn21      1.0  0.49568  0.87274  0.13566  1.0000
  Zn  Zn22      1.0  0.51122  0.9501500000000003  0.20908  1.0000
  Zn  Zn23      1.0  0.96836  0.8661199999999999  0.72009  1.0000
  Zn  Zn24      1.0  0.42285  0.8942499999999999  0.21162000000000006  1.0000
  Zn  Zn25      1.0  0.46688  0.40083  0.19683000000000006  1.0000
  Zn  Zn26      1.0  0.49824  0.39514  0.28309  1.0000
  Zn  Zn27      1.0  0.013099999999999999  0.3188100000000001  0.7089500000000002  1.0000
  Zn  Zn28      1.0  0.57632  0.37651  0.21028  1.0000
  Zn  Zn29      1.0  0.00432  0.87274  0.63566  1.0000
  Zn  Zn30      1.0  0.98878  0.95015  0.70908  1.0000
  Zn  Zn31      1.0  0.53164  0.8661199999999999  0.22009000000000006  1.0000
  Zn  Zn32      1.0  0.07715  0.8942499999999999  0.71162  1.0000
  H   H145      1.0  0.144  0.6237  0.8448  1.0000
  H   H146      1.0  0.21849999999999994  0.7787  0.0171  1.0000
  H   H147      1.0  0.0993  0.7344  0.8609  1.0000
  H   H148      1.0  0.3696999999999999  0.22190000000000001  0.3807000000000001  1.0000
  H   H149      1.0  0.24  0.2666  0.5218  1.0000
  H   H150      1.0  0.39429999999999993  0.1205  0.404  1.0000
  H   H151      1.0  0.6244999999999998  0.1443  0.0298  1.0000
  H   H152      1.0  0.6548  0.0408  0.0488  1.0000
  H   H153      1.0  0.7911  0.006200000000000028  0.9163  1.0000
  H   H154      1.0  0.9041  0.5247  0.548  1.0000
  H   H155      1.0  0.8551  0.6455  0.5732  1.0000
  H   H156      1.0  0.7174999999999999  0.5128  0.4426  1.0000
  H   H157      1.0  0.0781  0.49119999999999997  0.8515000000000003  1.0000
  H   H158      1.0  0.09919999999999997  0.5527  0.8889  1.0000
  H   H159      1.0  0.1333  0.5737  0.7834  1.0000
  H   H160      1.0  0.1079  0.5106  0.7471  1.0000
  H   H161      1.0  0.2022  0.661  0.9604  1.0000
  H   H162      1.0  0.2139  0.7676000000000001  0.9455  1.0000
  H   H163      1.0  0.1268  0.6847  0.8699  1.0000
  H   H164      1.0  0.3436  0.7572  0.0172  1.0000
  H   H165      1.0  0.3996  0.7934999999999999  0.0625  1.0000
  H   H166      1.0  0.2934  0.8607  0.1307  1.0000
  H   H167      1.0  0.2336  0.8259  0.0858  1.0000
  H   H168      1.0  0.17239999999999997  0.7885  0.8172  1.0000
  H   H169      1.0  0.1409  0.8265  0.7769  1.0000
  H   H170      1.0  0.0073  0.8009  0.7956000000000002  1.0000
  H   H171      1.0  0.029599999999999998  0.7623  0.8363  1.0000
  H   H172      1.0  0.44409999999999994  0.3496  0.3751  1.0000
  H   H173      1.0  0.4134  0.3182  0.4174  1.0000
  H   H174      1.0  0.3866  0.224  0.3192  1.0000
  H   H175      1.0  0.4264  0.2544  0.2762  1.0000
  H   H176      1.0  0.3112  0.2625  0.49870000000000003  1.0000
  H   H177      1.0  0.2785  0.1498  0.485  1.0000
  H   H178      1.0  0.3676  0.175  0.4031  1.0000
  H   H179      1.0  0.2035  0.238  0.6066  1.0000
  H   H180      1.0  0.1471  0.2744  0.6578  1.0000
  H   H181      1.0  0.1293  0.3494  0.5938  1.0000
  H   H182      1.0  0.1785  0.3128  0.543  1.0000
  H   H183      1.0  0.4526  0.0807  0.3711  1.0000
  H   H184      1.0  0.4792  0.021800000000000003  0.3203  1.0000
  H   H185      1.0  0.3395  0.9861000000000002  0.3049  1.0000
  H   H186      1.0  0.3145  0.0428  0.357  1.0000
  H   H187      1.0  0.5304  0.22530000000000003  0.12350000000000001  1.0000
  H   H188      1.0  0.5661  0.1713  0.0722  1.0000
  H   H189      1.0  0.6899  0.23409999999999997  0.0696  1.0000
  H   H190      1.0  0.6521  0.2864  0.117  1.0000
  H   H191      1.0  0.6516  0.08840000000000002  0.0298  1.0000
  H   H192      1.0  0.7169999999999999  0.007400000000000008  0.9345  1.0000
  H   H193      1.0  0.7494  0.1215  0.9584  1.0000
  H   H194      1.0  0.6224  0.034400000000000014  0.10910000000000003  1.0000
  H   H195      1.0  0.6063  0.9873999999999999  0.14230000000000007  1.0000
  H   H196      1.0  0.5569  0.9146999999999998  0.0379  1.0000
  H   H197      1.0  0.6011  0.9506  0.0024  1.0000
  H   H198      1.0  0.8285999999999998  0.9485  0.8832  1.0000
  H   H199      1.0  0.876  0.9115  0.8268000000000001  1.0000
  H   H200      1.0  0.882  0.002300000000000019  0.7826  1.0000
  H   H201      1.0  0.8279  0.03800000000000004  0.8344000000000003  1.0000
  H   H202      1.0  0.9988  0.4648  0.6142  1.0000
  H   H203      1.0  0.9691999999999998  0.49890000000000007  0.5742000000000003  1.0000
  H   H204      1.0  0.8311999999999999  0.46919999999999995  0.5898000000000002  1.0000
  H   H205      1.0  0.8607  0.437  0.6331  1.0000
  H   H206      1.0  0.8715  0.581  0.5494  1.0000
  H   H207      1.0  0.8071  0.6044  0.4522000000000001  1.0000
  H   H208      1.0  0.7868999999999999  0.499  0.4672000000000001  1.0000
  H   H209      1.0  0.8518  0.7008999999999999  0.6302  1.0000
  H   H210      1.0  0.8831  0.7624  0.6666  1.0000
  H   H211      1.0  0.9602  0.7626  0.5668000000000001  1.0000
  H   H212      1.0  0.9247  0.7008999999999999  0.5287  1.0000
  H   H213      1.0  0.6528  0.4733  0.4259  1.0000
  H   H214      1.0  0.5889  0.4489000000000001  0.3778  1.0000
  H   H215      1.0  0.6715999999999999  0.4689  0.2880000000000001  1.0000
  H   H216      1.0  0.7244  0.5062  0.3411  1.0000
  H   H217      1.0  0.356  0.6237  0.3448  1.0000
  H   H218      1.0  0.2815  0.7787  0.5171  1.0000
  H   H219      1.0  0.4007  0.7344  0.3609  1.0000
  H   H220      1.0  0.1303  0.22190000000000001  0.8807000000000003  1.0000
  H   H221      1.0  0.26  0.2666  0.0218  1.0000
  H   H222      1.0  0.1057  0.1205  0.904  1.0000
  H   H223      1.0  0.8755  0.1443  0.5298  1.0000
  H   H224      1.0  0.8452  0.040800000000000086  0.5488000000000002  1.0000
  H   H225      1.0  0.7089  0.006200000000000003  0.4163  1.0000
  H   H226      1.0  0.5959  0.5247  0.048000000000000015  1.0000
  H   H227      1.0  0.6449  0.6455  0.07320000000000003  1.0000
  H   H228      1.0  0.7825  0.5128  0.9426  1.0000
  H   H229      1.0  0.4219  0.49119999999999997  0.3515  1.0000
  H   H230      1.0  0.4008  0.5527  0.3889  1.0000
  H   H231      1.0  0.3667  0.5737  0.28340000000000004  1.0000
  H   H232      1.0  0.39209999999999995  0.5106  0.24710000000000001  1.0000
  H   H233      1.0  0.2978  0.661  0.4604000000000001  1.0000
  H   H234      1.0  0.2861  0.7676  0.4455000000000001  1.0000
  H   H235      1.0  0.3732  0.6847  0.3699  1.0000
  H   H236      1.0  0.15639999999999996  0.7571999999999998  0.5172  1.0000
  H   H237      1.0  0.1004  0.7934999999999999  0.5625  1.0000
  H   H238      1.0  0.2066  0.8607  0.6307  1.0000
  H   H239      1.0  0.2664  0.8259  0.5858  1.0000
  H   H240      1.0  0.3276  0.7884999999999999  0.3172  1.0000
  H   H241      1.0  0.3591  0.8265  0.2769  1.0000
  H   H242      1.0  0.4927  0.8009  0.2956  1.0000
  H   H243      1.0  0.4704  0.7623  0.3363  1.0000
  H   H244      1.0  0.0559  0.3496  0.8751  1.0000
  H   H245      1.0  0.0866  0.3182  0.9174  1.0000
  H   H246      1.0  0.1134  0.224  0.8192  1.0000
  H   H247      1.0  0.0736  0.2544  0.7762  1.0000
  H   H248      1.0  0.1888  0.2625  0.9987  1.0000
  H   H249      1.0  0.22149999999999997  0.14980000000000004  0.9850000000000002  1.0000
  H   H250      1.0  0.1324  0.17499999999999996  0.9031  1.0000
  H   H251      1.0  0.2965  0.238  0.1066  1.0000
  H   H252      1.0  0.3529  0.2744  0.15780000000000005  1.0000
  H   H253      1.0  0.3707  0.3494  0.0938  1.0000
  H   H254      1.0  0.3215  0.3128  0.04300000000000001  1.0000
  H   H255      1.0  0.0474  0.08069999999999994  0.8711  1.0000
  H   H256      1.0  0.0208  0.021800000000000014  0.8203  1.0000
  H   H257      1.0  0.16049999999999998  0.9861  0.8049  1.0000
  H   H258      1.0  0.1855  0.04280000000000006  0.8570000000000002  1.0000
  H   H259      1.0  0.9696  0.22530000000000003  0.6235  1.0000
  H   H260      1.0  0.9339  0.1713  0.5722  1.0000
  H   H261      1.0  0.8101  0.23410000000000009  0.5696000000000002  1.0000
  H   H262      1.0  0.8479  0.28640000000000004  0.6170000000000002  1.0000
  H   H263      1.0  0.8484  0.08839999999999998  0.5298  1.0000
  H   H264      1.0  0.783  0.007399999999999984  0.4345  1.0000
  H   H265      1.0  0.7506  0.1215  0.4584  1.0000
  H   H266      1.0  0.8776  0.034400000000000076  0.6091000000000002  1.0000
  H   H267      1.0  0.8937  0.9873999999999999  0.6423  1.0000
  H   H268      1.0  0.9431  0.9146999999999998  0.5379  1.0000
  H   H269      1.0  0.8989  0.9506  0.5024  1.0000
  H   H270      1.0  0.6714  0.9485  0.3832  1.0000
  H   H271      1.0  0.624  0.9115  0.3268000000000001  1.0000
  H   H272      1.0  0.618  0.0022999999999999948  0.2826  1.0000
  H   H273      1.0  0.6720999999999999  0.038000000000000006  0.3344  1.0000
  H   H274      1.0  0.5012  0.4648  0.11420000000000002  1.0000
  H   H275      1.0  0.5308  0.49890000000000007  0.0742  1.0000
  H   H276      1.0  0.6688  0.46919999999999995  0.0898  1.0000
  H   H277      1.0  0.6392999999999999  0.437  0.1331  1.0000
  H   H278      1.0  0.6285  0.581  0.04940000000000001  1.0000
  H   H279      1.0  0.6928999999999998  0.6044  0.9522  1.0000
  H   H280      1.0  0.7131  0.499  0.9672  1.0000
  H   H281      1.0  0.6482  0.7008999999999999  0.1302  1.0000
  H   H282      1.0  0.6169  0.7624  0.1666  1.0000
  H   H283      1.0  0.5398  0.7626  0.0668  1.0000
  H   H284      1.0  0.5753  0.7008999999999999  0.028700000000000007  1.0000
  H   H285      1.0  0.8471999999999998  0.4733  0.9259  1.0000
  H   H286      1.0  0.9110999999999999  0.4489000000000001  0.8778000000000002  1.0000
  H   H287      1.0  0.8284  0.4689  0.788  1.0000
  H   H288      1.0  0.7756  0.5062  0.8411  1.0000
  C   C241      1.0  0.0674  0.45710000000000006  0.773  1.0000
  C   C242      1.0  0.08749999999999998  0.49557  0.7959  1.0000
  C   C243      1.0  0.0881  0.5087  0.8374  1.0000
  C   C244      1.0  0.1015  0.5445  0.8597  1.0000
  C   C245      1.0  0.1192  0.57002  0.8399000000000002  1.0000
  C   C246      1.0  0.1213  0.55707  0.7978000000000002  1.0000
  C   C247      1.0  0.1057  0.5196  0.7763  1.0000
  C   C248      1.0  0.1444  0.62586  0.9014  1.0000
  C   C249      1.0  0.1618  0.66744  0.9134  1.0000
  C   C250      1.0  0.1932  0.67883  0.9465  1.0000
  C   C251      1.0  0.21219999999999997  0.71779  0.9599  1.0000
  C   C252      1.0  0.2004  0.7419999999999999  0.9379000000000002  1.0000
  C   C253      1.0  0.1689  0.72927  0.90471  1.0000
  C   C254      1.0  0.1491  0.69262  0.89254  1.0000
  C   C255      1.0  0.24789999999999995  0.7288  0.9931  1.0000
  C   C256      1.0  0.2807  0.78625  0.0472  1.0000
  C   C257      1.0  0.3328  0.77803  0.0405  1.0000
  C   C258      1.0  0.3654  0.7994999999999999  0.06683000000000003  1.0000
  C   C259      1.0  0.351  0.83089  0.1009  1.0000
  C   C260      1.0  0.303  0.8395  0.1073  1.0000
  C   C261      1.0  0.2674  0.81856  0.081  1.0000
  C   C262      1.0  0.3895  0.8534  0.1294  1.0000
  C   C263      1.0  0.1591  0.7568599999999999  0.8805000000000002  1.0000
  C   C264      1.0  0.1017  0.77489  0.8336  1.0000
  C   C265      1.0  0.1379  0.7914000000000001  0.8138000000000002  1.0000
  C   C266      1.0  0.1181  0.81283  0.7883  1.0000
  C   C267      1.0  0.0722  0.81483  0.7799  1.0000
  C   C268      1.0  0.0416  0.7978  0.7995  1.0000
  C   C269      1.0  0.05369999999999999  0.7756000000000001  0.8255  1.0000
  C   C270      1.0  0.0536  0.83769  0.75536  1.0000
  C   C271      1.0  0.4594  0.32569999999999993  0.2952800000000001  1.0000
  C   C272      1.0  0.4399  0.3052  0.3224900000000001  1.0000
  C   C273      1.0  0.4342  0.32309999999999994  0.3636  1.0000
  C   C274      1.0  0.4150999999999999  0.3049  0.3886000000000001  1.0000
  C   C275      1.0  0.3983  0.2676  0.373  1.0000
  C   C276      1.0  0.4005  0.2494  0.3308  1.0000
  C   C277      1.0  0.423  0.2676  0.3049  1.0000
  C   C278      1.0  0.3673  0.2542  0.4348  1.0000
  C   C279      1.0  0.3454  0.22400000000000006  0.4511000000000001  1.0000
  C   C280      1.0  0.3151  0.23538999999999996  0.48410000000000003  1.0000
  C   C281      1.0  0.2895  0.20841  0.4972  1.0000
  C   C282      1.0  0.2958  0.16849000000000003  0.476  1.0000
  C   C283      1.0  0.32589999999999997  0.15610000000000002  0.4431000000000001  1.0000
  C   C284      1.0  0.3494  0.1834  0.4281  1.0000
  C   C285      1.0  0.2582  0.2192  0.5348  1.0000
  C   C286      1.0  0.1994  0.27324  0.5709  1.0000
  C   C287      1.0  0.1882  0.2608  0.6041  1.0000
  C   C288      1.0  0.15379999999999996  0.2820700000000001  0.6343000000000002  1.0000
  C   C289      1.0  0.1305  0.31385  0.6291  1.0000
  C   C290      1.0  0.1431  0.3259  0.5959  1.0000
  C   C291      1.0  0.1738  0.3054200000000001  0.5670000000000002  1.0000
  C   C292      1.0  0.0947  0.3361  0.6622  1.0000
  C   C293      1.0  0.3316  0.1163  0.4187  1.0000
  C   C294      1.0  0.381  0.06649999999999998  0.3683  1.0000
  C   C295      1.0  0.4291  0.06120000000000002  0.3576000000000001  1.0000
  C   C296      1.0  0.445  0.026699999999999998  0.3263  1.0000
  C   C297      1.0  0.4094  0.0004999999999999999  0.3047  1.0000
  C   C298      1.0  0.3633  0.005660000000000003  0.3175  1.0000
  C   C299      1.0  0.3484  0.03939999999999999  0.3492  1.0000
  C   C300      1.0  0.4277  0.9655  0.2723  1.0000
  C   C301      1.0  0.5709  0.2909  0.1593  1.0000
  C   C302      1.0  0.5923  0.26070000000000004  0.1257  1.0000
  C   C303      1.0  0.5624  0.22670000000000004  0.1126  1.0000
  C   C304      1.0  0.5841  0.1951  0.0819  1.0000
  C   C305      1.0  0.6298  0.1965  0.0651  1.0000
  C   C306      1.0  0.6576  0.23182  0.0795  1.0000
  C   C307      1.0  0.6351  0.26206  0.10850000000000003  1.0000
  C   C308      1.0  0.6908  0.15322  0.0219  1.0000
  C   C309      1.0  0.6973  0.11112000000000008  0.9969700000000001  1.0000
  C   C310      1.0  0.6731999999999999  0.08207  0.00671  1.0000
  C   C311      1.0  0.6802999999999999  0.04227999999999992  0.9823  1.0000
  C   C312      1.0  0.7124  0.03396000000000002  0.95067  1.0000
  C   C313      1.0  0.7387  0.06196000000000001  0.94079  1.0000
  C   C314      1.0  0.7313  0.10151000000000002  0.96448  1.0000
  C   C315      1.0  0.6553  0.009900000000000008  0.9912  1.0000
  C   C316      1.0  0.6205999999999999  0.995  0.0515  1.0000
  C   C317      1.0  0.615  0.007999999999999995  0.0938  1.0000
  C   C318      1.0  0.5985  0.9823999999999999  0.1141  1.0000
  C   C319      1.0  0.5718  0.951  0.09400000000000003  1.0000
  C   C320      1.0  0.5731  0.9383999999999999  0.0529  1.0000
  C   C321      1.0  0.5991  0.96054  0.03160000000000002  1.0000
  C   C322      1.0  0.5444  0.9296  0.11960000000000001  1.0000
  C   C323      1.0  0.7717  0.05306000000000005  0.9061000000000002  1.0000
  C   C324      1.0  0.8238  0.997  0.8643  1.0000
  C   C325      1.0  0.8382  0.9591000000000001  0.8623000000000002  1.0000
  C   C326      1.0  0.8669  0.9375  0.8289  1.0000
  C   C327      1.0  0.8818  0.9520999999999998  0.7998000000000002  1.0000
  C   C328      1.0  0.8694  0.9912999999999998  0.8022000000000002  1.0000
  C   C329      1.0  0.8388  0.012700000000000027  0.8336  1.0000
  C   C330      1.0  0.9116  0.9276  0.7649  1.0000
  C   C331      1.0  0.9521999999999998  0.42495  0.65597  1.0000
  C   C332      1.0  0.9318  0.44751  0.63003  1.0000
  C   C333      1.0  0.9642  0.46596999999999994  0.6103  1.0000
  C   C334      1.0  0.9465  0.48535000000000006  0.5859300000000002  1.0000
  C   C335      1.0  0.899  0.48653  0.5774  1.0000
  C   C336      1.0  0.8656  0.4686  0.5951  1.0000
  C   C337      1.0  0.8837999999999999  0.44959999999999994  0.6208  1.0000
  C   C338      1.0  0.8399  0.50522  0.5328100000000002  1.0000
  C   C339      1.0  0.8321  0.53549  0.51212  1.0000
  C   C340      1.0  0.8514999999999999  0.57257  0.52536  1.0000
  C   C341      1.0  0.8408  0.59849  0.5021000000000002  1.0000
  C   C342      1.0  0.8125  0.5872699999999998  0.46778  1.0000
  C   C343      1.0  0.7918999999999998  0.5511  0.4559900000000001  1.0000
  C   C344      1.0  0.8011  0.5244  0.4767  1.0000
  C   C345      1.0  0.8644  0.63829  0.516  1.0000
  C   C346      1.0  0.8864  0.6949100000000001  0.5760000000000002  1.0000
  C   C347      1.0  0.8736  0.7136000000000001  0.6169  1.0000
  C   C348      1.0  0.8917  0.75012  0.6385  1.0000
  C   C349      1.0  0.9218  0.7680700000000001  0.619  1.0000
  C   C350      1.0  0.9368  0.7503100000000001  0.5793100000000002  1.0000
  C   C351      1.0  0.9166999999999997  0.71292  0.55693  1.0000
  C   C352      1.0  0.9417  0.8089  0.6418  1.0000
  C   C353      1.0  0.7625  0.5393  0.4165  1.0000
  C   C354      1.0  0.6928  0.49409999999999993  0.3861000000000001  1.0000
  C   C355      1.0  0.6547  0.47419999999999995  0.3985  1.0000
  C   C356      1.0  0.6200999999999999  0.456  0.3696  1.0000
  C   C357      1.0  0.6315999999999999  0.4477  0.32590000000000013  1.0000
  C   C358      1.0  0.6674  0.4691  0.3155000000000001  1.0000
  C   C359      1.0  0.6982  0.4918  0.3479  1.0000
  C   C360      1.0  0.5954999999999999  0.42339999999999994  0.2968  1.0000
  C   C361      1.0  0.43259999999999993  0.45710000000000006  0.273  1.0000
  C   C362      1.0  0.4125  0.49557  0.2959  1.0000
  C   C363      1.0  0.4119  0.5087  0.3374  1.0000
  C   C364      1.0  0.3985  0.5445  0.3597  1.0000
  C   C365      1.0  0.3808  0.57002  0.3399  1.0000
  C   C366      1.0  0.3787  0.55707  0.2978  1.0000
  C   C367      1.0  0.39429999999999993  0.5196  0.2763  1.0000
  C   C368      1.0  0.3556  0.62586  0.4014  1.0000
  C   C369      1.0  0.3382  0.66744  0.41340000000000005  1.0000
  C   C370      1.0  0.3068  0.67883  0.4465000000000001  1.0000
  C   C371      1.0  0.2878  0.7177899999999999  0.4599  1.0000
  C   C372      1.0  0.2996  0.7419999999999999  0.4379  1.0000
  C   C373      1.0  0.33109999999999995  0.72927  0.40471  1.0000
  C   C374      1.0  0.3509  0.69262  0.3925400000000001  1.0000
  C   C375      1.0  0.2521  0.7288  0.49310000000000004  1.0000
  C   C376      1.0  0.2193  0.78625  0.5472  1.0000
  C   C377      1.0  0.1672  0.77803  0.5405  1.0000
  C   C378      1.0  0.1346  0.7994999999999999  0.5668300000000002  1.0000
  C   C379      1.0  0.149  0.83089  0.6009  1.0000
  C   C380      1.0  0.19699999999999998  0.8395  0.6073  1.0000
  C   C381      1.0  0.2326  0.8185600000000001  0.5810000000000002  1.0000
  C   C382      1.0  0.1105  0.8534  0.6294  1.0000
  C   C383      1.0  0.3409  0.7568599999999999  0.3805000000000001  1.0000
  C   C384      1.0  0.3983  0.7748900000000001  0.3336000000000001  1.0000
  C   C385      1.0  0.3621  0.7914  0.3138  1.0000
  C   C386      1.0  0.3819  0.81283  0.2883  1.0000
  C   C387      1.0  0.4278  0.81483  0.2799  1.0000
  C   C388      1.0  0.4584  0.7978  0.2995000000000001  1.0000
  C   C389      1.0  0.4462999999999999  0.7756  0.3255  1.0000
  C   C390      1.0  0.4464  0.83769  0.2553600000000001  1.0000
  C   C391      1.0  0.0406  0.32569999999999993  0.79528  1.0000
  C   C392      1.0  0.0601  0.3052  0.82249  1.0000
  C   C393      1.0  0.0658  0.32309999999999994  0.8636000000000003  1.0000
  C   C394      1.0  0.08489999999999999  0.3049  0.8886000000000002  1.0000
  C   C395      1.0  0.1017  0.2676  0.8730000000000002  1.0000
  C   C396      1.0  0.0995  0.2494  0.8308  1.0000
  C   C397      1.0  0.077  0.2676  0.8049  1.0000
  C   C398      1.0  0.1327  0.2542000000000001  0.9348000000000002  1.0000
  C   C399      1.0  0.1546  0.22400000000000006  0.9511000000000001  1.0000
  C   C400      1.0  0.1849  0.23538999999999996  0.9841  1.0000
  C   C401      1.0  0.2105  0.20841  0.9972  1.0000
  C   C402      1.0  0.2042  0.16849000000000006  0.9760000000000002  1.0000
  C   C403      1.0  0.1741  0.15610000000000002  0.9431  1.0000
  C   C404      1.0  0.1506  0.18339999999999998  0.9281  1.0000
  C   C405      1.0  0.2418  0.2192  0.0348  1.0000
  C   C406      1.0  0.3006  0.27324  0.07090000000000003  1.0000
  C   C407      1.0  0.3118  0.2608  0.1041  1.0000
  C   C408      1.0  0.3462  0.28207  0.13430000000000006  1.0000
  C   C409      1.0  0.3695  0.31385  0.1291  1.0000
  C   C410      1.0  0.3569  0.3259  0.0959  1.0000
  C   C411      1.0  0.32619999999999993  0.30542  0.067  1.0000
  C   C412      1.0  0.4053  0.3361  0.1622  1.0000
  C   C413      1.0  0.1684  0.1163  0.9187  1.0000
  C   C414      1.0  0.119  0.06649999999999996  0.8683  1.0000
  C   C415      1.0  0.0709  0.06120000000000004  0.8576  1.0000
  C   C416      1.0  0.05499999999999999  0.026700000000000074  0.8263000000000003  1.0000
  C   C417      1.0  0.0906  0.0004999999999999999  0.8047  1.0000
  C   C418      1.0  0.1367  0.005660000000000003  0.8175  1.0000
  C   C419      1.0  0.15159999999999998  0.039400000000000025  0.8492  1.0000
  C   C420      1.0  0.0723  0.9655  0.7723  1.0000
  C   C421      1.0  0.9291  0.2909000000000001  0.6593000000000002  1.0000
  C   C422      1.0  0.9077  0.2607  0.6257  1.0000
  C   C423      1.0  0.9376  0.22670000000000012  0.6126000000000003  1.0000
  C   C424      1.0  0.9159  0.19510000000000005  0.5819000000000002  1.0000
  C   C425      1.0  0.8701999999999998  0.1965  0.5651  1.0000
  C   C426      1.0  0.8424  0.2318200000000001  0.5795000000000002  1.0000
  C   C427      1.0  0.8649  0.26206  0.6085  1.0000
  C   C428      1.0  0.8092  0.15322  0.5219  1.0000
  C   C429      1.0  0.8027  0.11111999999999998  0.49696999999999997  1.0000
  C   C430      1.0  0.8268  0.08207000000000007  0.5067100000000002  1.0000
  C   C431      1.0  0.8197  0.04228000000000002  0.4823000000000001  1.0000
  C   C432      1.0  0.7876  0.03396000000000002  0.4506700000000001  1.0000
  C   C433      1.0  0.7612999999999999  0.06196  0.44079  1.0000
  C   C434      1.0  0.7687  0.10151  0.46448  1.0000
  C   C435      1.0  0.8447  0.009900000000000032  0.49120000000000014  1.0000
  C   C436      1.0  0.8794  0.995  0.5515  1.0000
  C   C437      1.0  0.885  0.007999999999999998  0.5938  1.0000
  C   C438      1.0  0.9015  0.9823999999999999  0.6141000000000002  1.0000
  C   C439      1.0  0.9282  0.951  0.594  1.0000
  C   C440      1.0  0.9269  0.9383999999999999  0.5529  1.0000
  C   C441      1.0  0.9009  0.96054  0.5316  1.0000
  C   C442      1.0  0.9556  0.9296  0.6196000000000003  1.0000
  C   C443      1.0  0.7283  0.053060000000000024  0.4061  1.0000
  C   C444      1.0  0.6762  0.997  0.3643  1.0000
  C   C445      1.0  0.6618  0.9591000000000001  0.3623000000000001  1.0000
  C   C446      1.0  0.6331  0.9375  0.3289  1.0000
  C   C447      1.0  0.6182  0.9520999999999998  0.2998  1.0000
  C   C448      1.0  0.6306  0.9912999999999998  0.3022  1.0000
  C   C449      1.0  0.6612  0.012700000000000027  0.3336000000000001  1.0000
  C   C450      1.0  0.5884  0.9276  0.2649  1.0000
  C   C451      1.0  0.5478  0.42495  0.15597  1.0000
  C   C452      1.0  0.5682  0.44751  0.13003000000000006  1.0000
  C   C453      1.0  0.5358  0.46596999999999994  0.11030000000000002  1.0000
  C   C454      1.0  0.5535  0.4853500000000001  0.08593000000000003  1.0000
  C   C455      1.0  0.6009999999999999  0.48653  0.0774  1.0000
  C   C456      1.0  0.6343999999999999  0.4686  0.09510000000000003  1.0000
  C   C457      1.0  0.6162  0.44959999999999994  0.12080000000000003  1.0000
  C   C458      1.0  0.6601  0.50522  0.03281  1.0000
  C   C459      1.0  0.6679  0.53549  0.01212  1.0000
  C   C460      1.0  0.6485  0.57257  0.02536  1.0000
  C   C461      1.0  0.6592  0.59849  0.0021000000000000007  1.0000
  C   C462      1.0  0.6875  0.58727  0.96778  1.0000
  C   C463      1.0  0.7081  0.5511  0.95599  1.0000
  C   C464      1.0  0.6988999999999999  0.5244000000000001  0.9767000000000002  1.0000
  C   C465      1.0  0.6356  0.63829  0.016  1.0000
  C   C466      1.0  0.6136  0.69491  0.07600000000000003  1.0000
  C   C467      1.0  0.6264  0.7136  0.1169  1.0000
  C   C468      1.0  0.6083  0.75012  0.1385  1.0000
  C   C469      1.0  0.5782  0.76807  0.119  1.0000
  C   C470      1.0  0.5632  0.75031  0.07931000000000003  1.0000
  C   C471      1.0  0.5833  0.71292  0.056930000000000015  1.0000
  C   C472      1.0  0.5583  0.8089  0.14180000000000006  1.0000
  C   C473      1.0  0.7375  0.5393  0.9165  1.0000
  C   C474      1.0  0.8071999999999999  0.49409999999999993  0.8861  1.0000
  C   C475      1.0  0.8453  0.47419999999999995  0.8985  1.0000
  C   C476      1.0  0.8799  0.456  0.8696  1.0000
  C   C477      1.0  0.8684  0.4477  0.8259000000000002  1.0000
  C   C478      1.0  0.8326  0.4691  0.8155  1.0000
  C   C479      1.0  0.8017999999999998  0.4918  0.8479  1.0000
  C   C480      1.0  0.9045  0.42339999999999994  0.7968  1.0000
  N   N25       1.0  0.1371  0.6092700000000001  0.8604900000000002  1.0000
  N   N26       1.0  0.2456  0.76577  0.01862  1.0000
  N   N27       1.0  0.11909999999999997  0.75322  0.85934  1.0000
  N   N28       1.0  0.3775  0.24591000000000005  0.3955900000000001  1.0000
  N   N29       1.0  0.23339999999999997  0.25476  0.53994  1.0000
  N   N30       1.0  0.3696999999999999  0.10366000000000002  0.3987000000000001  1.0000
  N   N31       1.0  0.6468  0.16296  0.0381  1.0000
  N   N32       1.0  0.6446999999999999  0.017909999999999995  0.03248  1.0000
  N   N33       1.0  0.7951  0.017679999999999987  0.8975  1.0000
  N   N34       1.0  0.8829  0.50766  0.55185  1.0000
  N   N35       1.0  0.86698  0.65768  0.5568  1.0000
  N   N36       1.0  0.7236  0.5152  0.41835  1.0000
  N   N37       1.0  0.3629  0.60927  0.36049  1.0000
  N   N38       1.0  0.2544  0.76577  0.51862  1.0000
  N   N39       1.0  0.38089999999999996  0.75322  0.35934  1.0000
  N   N40       1.0  0.1225  0.2459100000000001  0.8955900000000002  1.0000
  N   N41       1.0  0.2666  0.25476  0.03994  1.0000
  N   N42       1.0  0.1303  0.10366000000000006  0.8987000000000003  1.0000
  N   N43       1.0  0.8531999999999998  0.16296  0.5381  1.0000
  N   N44       1.0  0.8553  0.01791  0.53248  1.0000
  N   N45       1.0  0.7048999999999999  0.017680000000000026  0.39750000000000013  1.0000
  N   N46       1.0  0.6171  0.50766  0.051850000000000014  1.0000
  N   N47       1.0  0.6330199999999999  0.65768  0.0568  1.0000
  N   N48       1.0  0.7764  0.5152  0.91835  1.0000
  O   O77       1.0  0.06716  0.4456899999999999  0.73338  1.0000
  O   O78       1.0  0.0491  0.43637  0.79415  1.0000
  O   O79       1.0  0.4319  0.85121  0.11446000000000003  1.0000
  O   O80       1.0  0.37592999999999993  0.87482  0.16644000000000006  1.0000
  O   O81       1.0  0.00613  0.83824  0.74935  1.0000
  O   O82       1.0  0.0848  0.8546599999999999  0.7398700000000002  1.0000
  O   O83       1.0  0.1395  0.6097599999999999  0.9270300000000002  1.0000
  O   O84       1.0  0.2795  0.70634  0.9975600000000001  1.0000
  O   O85       1.0  0.19099999999999998  0.78082  0.87992  1.0000
  O   O86       1.0  0.46945  0.30539  0.25754  1.0000
  O   O87       1.0  0.47112999999999994  0.36094  0.3110900000000001  1.0000
  O   O88       1.0  0.07935  0.3208  0.68756  1.0000
  O   O89       1.0  0.07919  0.36819999999999997  0.65873  1.0000
  O   O90       1.0  0.3963  0.94074  0.25312  1.0000
  O   O91       1.0  0.474  0.96333  0.26441  1.0000
  O   O92       1.0  0.3777  0.28669  0.4602000000000001  1.0000
  O   O93       1.0  0.2507  0.19939  0.55611  1.0000
  O   O94       1.0  0.2953  0.09393  0.4175  1.0000
  O   O95       1.0  0.5332  0.28777  0.179  1.0000
  O   O96       1.0  0.5965  0.3270100000000001  0.17168000000000005  1.0000
  O   O97       1.0  0.52218  0.89937  0.09991000000000003  1.0000
  O   O98       1.0  0.5527  0.9413999999999999  0.1567  1.0000
  O   O99       1.0  0.9242  0.9438899999999999  0.7379900000000001  1.0000
  O   O100      1.0  0.92487  0.89472  0.7626400000000002  1.0000
  O   O101      1.0  0.72528  0.17702  0.027390000000000008  1.0000
  O   O102      1.0  0.6437  0.98006  0.9660100000000003  1.0000
  O   O103      1.0  0.78055  0.0755200000000001  0.8858900000000002  1.0000
  O   O104      1.0  0.99756  0.42417  0.6616  1.0000
  O   O105      1.0  0.92  0.4096800000000001  0.6727200000000002  1.0000
  O   O106      1.0  0.93407  0.82174  0.6799000000000002  1.0000
  O   O107      1.0  0.96494  0.82534  0.61994  1.0000
  O   O108      1.0  0.5552  0.4138  0.3111  1.0000
  O   O109      1.0  0.6051  0.4157  0.2608000000000001  1.0000
  O   O110      1.0  0.80833  0.48253  0.53388  1.0000
  O   O111      1.0  0.88118  0.6515000000000001  0.4898200000000001  1.0000
  O   O112      1.0  0.7716  0.54905  0.3872200000000001  1.0000
  O   O113      1.0  0.9934299999999999  0.37346  0.72431  1.0000
  O   O114      1.0  0.48961  0.89368  0.19408  1.0000
  O   O115      1.0  0.43284  0.4456899999999999  0.23338000000000006  1.0000
  O   O116      1.0  0.45089999999999997  0.43637  0.29415  1.0000
  O   O117      1.0  0.0681  0.8512100000000001  0.6144600000000002  1.0000
  O   O118      1.0  0.12406999999999999  0.87482  0.66644  1.0000
  O   O119      1.0  0.49387  0.83824  0.24935000000000002  1.0000
  O   O120      1.0  0.4152  0.8546599999999999  0.23987  1.0000
  O   O121      1.0  0.3605  0.6097599999999999  0.42703000000000013  1.0000
  O   O122      1.0  0.2205  0.70634  0.49756  1.0000
  O   O123      1.0  0.309  0.78082  0.37992  1.0000
  O   O124      1.0  0.03055  0.30539  0.75754  1.0000
  O   O125      1.0  0.028869999999999996  0.36094  0.81109  1.0000
  O   O126      1.0  0.42065  0.3208  0.18756  1.0000
  O   O127      1.0  0.42081  0.36819999999999997  0.15873  1.0000
  O   O128      1.0  0.10369999999999999  0.94074  0.7531200000000002  1.0000
  O   O129      1.0  0.026  0.96333  0.76441  1.0000
  O   O130      1.0  0.12229999999999999  0.28669  0.9602  1.0000
  O   O131      1.0  0.2493  0.19938999999999998  0.05611  1.0000
  O   O132      1.0  0.2047  0.09393000000000007  0.9175000000000002  1.0000
  O   O133      1.0  0.9668  0.28777000000000014  0.6790000000000003  1.0000
  O   O134      1.0  0.9034999999999999  0.32701  0.67168  1.0000
  O   O135      1.0  0.97782  0.89937  0.5999100000000003  1.0000
  O   O136      1.0  0.9472999999999998  0.9413999999999999  0.6567  1.0000
  O   O137      1.0  0.5758  0.9438899999999999  0.23799  1.0000
  O   O138      1.0  0.57513  0.89472  0.2626400000000001  1.0000
  O   O139      1.0  0.7747199999999999  0.17702  0.52739  1.0000
  O   O140      1.0  0.8563  0.98006  0.4660100000000001  1.0000
  O   O141      1.0  0.71945  0.07551999999999998  0.38589  1.0000
  O   O142      1.0  0.50244  0.42417  0.1616  1.0000
  O   O143      1.0  0.58  0.40968  0.17272  1.0000
  O   O144      1.0  0.56593  0.82174  0.1799  1.0000
  O   O145      1.0  0.53506  0.82534  0.11994  1.0000
  O   O146      1.0  0.9448  0.4138  0.8111  1.0000
  O   O147      1.0  0.8949  0.4157  0.7608000000000003  1.0000
  O   O148      1.0  0.69167  0.48253  0.03388  1.0000
  O   O149      1.0  0.6188199999999999  0.6515  0.98982  1.0000
  O   O150      1.0  0.7283999999999999  0.54905  0.88722  1.0000
  O   O151      1.0  0.50657  0.37346  0.22431000000000006  1.0000
  O   O152      1.0  0.01039  0.89368  0.6940800000000003  1.0000
