data_image0
_chemical_formula_structural       Zn40H240C240N160
_chemical_formula_sum              "Zn40 H240 C240 N160"
_cell_length_a       9.5161
_cell_length_b       30.1575
_cell_length_c       45.9367
_cell_angle_alpha    90.0
_cell_angle_beta     90.0
_cell_angle_gamma    90.0

_symmetry_space_group_name_H-M    'P 1'
_symmetry_Int_Tables_number       1

loop_
  _symmetry_equiv_pos_as_xyz
  'x,y,z'

loop_
  _atom_site_type_symbol
  _atom_site_label
  _atom_site_symmetry_multiplicity
  _atom_site_fract_x
  _atom_site_fract_y
  _atom_site_fract_z
  _atom_site_occupancy
  Zn  Zn1       1.0  0.99646  0.17173  0.73679  1.0000
  Zn  Zn2       1.0  0.15797999999999998  0.68311  0.18748999999999996  1.0000
  Zn  Zn3       1.0  0.08772  0.23741  0.42481  1.0000
  Zn  Zn4       1.0  0.58772  0.26259  0.57519  1.0000
  Zn  Zn5       1.0  0.66414  0.00355  0.8579600000000001  1.0000
  Zn  Zn6       1.0  0.65175  0.28162  0.029919999999999995  1.0000
  Zn  Zn7       1.0  0.42792  0.8684600000000002  0.69598  1.0000
  Zn  Zn8       1.0  0.41228  0.7625900000000002  0.92481  1.0000
  Zn  Zn9       1.0  0.65511  0.47074  0.06723  1.0000
  Zn  Zn10      1.0  0.08599  0.35769  0.52476  1.0000
  Zn  Zn11      1.0  0.9140099999999999  0.85769  0.97524  1.0000
  Zn  Zn12      1.0  0.92962  0.77058  0.65271  1.0000
  Zn  Zn13      1.0  0.15175  0.21838  0.97008  1.0000
  Zn  Zn14      1.0  0.50354  0.82827  0.23679  1.0000
  Zn  Zn15      1.0  0.49855000000000005  0.0544  0.73536  1.0000
  Zn  Zn16      1.0  0.9279199999999999  0.63154  0.30402  1.0000
  Zn  Zn17      1.0  0.42962000000000006  0.7294200000000001  0.34729  1.0000
  Zn  Zn18      1.0  0.5703799999999999  0.22942  0.15271  1.0000
  Zn  Zn19      1.0  0.49646  0.32827  0.26321  1.0000
  Zn  Zn20      1.0  0.50145  0.5544000000000001  0.76464  1.0000
  Zn  Zn21      1.0  0.34202  0.31689  0.68749  1.0000
  Zn  Zn22      1.0  0.41401  0.64231  0.02476  1.0000
  Zn  Zn23      1.0  0.00145  0.9456  0.23536  1.0000
  Zn  Zn24      1.0  0.84825  0.71838  0.52992  1.0000
  Zn  Zn25      1.0  0.07208  0.13154  0.19598  1.0000
  Zn  Zn26      1.0  0.58599  0.14231  0.47524000000000005  1.0000
  Zn  Zn27      1.0  0.84489  0.52926  0.56723  1.0000
  Zn  Zn28      1.0  0.57208  0.36846  0.80402  1.0000
  Zn  Zn29      1.0  0.15510999999999997  0.02926  0.9327699999999999  1.0000
  Zn  Zn30      1.0  0.33586  0.50355  0.64204  1.0000
  Zn  Zn31      1.0  0.0035399999999999997  0.67173  0.76321  1.0000
  Zn  Zn32      1.0  0.99855  0.4456  0.26464  1.0000
  Zn  Zn33      1.0  0.34825  0.7816200000000002  0.47007999999999994  1.0000
  Zn  Zn34      1.0  0.8358599999999999  0.99645  0.35796  1.0000
  Zn  Zn35      1.0  0.84202  0.18311000000000005  0.31251  1.0000
  Zn  Zn36      1.0  0.9122799999999999  0.73741  0.07519  1.0000
  Zn  Zn37      1.0  0.07038  0.27058  0.84729  1.0000
  Zn  Zn38      1.0  0.34489  0.97074  0.43277  1.0000
  Zn  Zn39      1.0  0.65798  0.81689  0.81251  1.0000
  Zn  Zn40      1.0  0.16414  0.4964500000000001  0.14204  1.0000
  H   H1        1.0  0.8947  0.6304  0.5675  1.0000
  H   H2        1.0  0.6612  0.2406  0.9612  1.0000
  H   H3        1.0  0.0701  0.6861000000000003  0.1218  1.0000
  H   H4        1.0  0.7861  0.2213  0.4572  1.0000
  H   H5        1.0  0.23609999999999998  0.6679  0.3102  1.0000
  H   H6        1.0  0.9011999999999999  0.0794  0.3175  1.0000
  H   H7        1.0  0.9689  0.5914  0.8087  1.0000
  H   H8        1.0  0.0606  0.5546000000000002  0.3451  1.0000
  H   H9        1.0  0.1905  0.7962  0.9716  1.0000
  H   H10       1.0  0.5337  0.2509  0.219  1.0000
  H   H11       1.0  0.2722  0.9613  0.1926  1.0000
  H   H12       1.0  0.9386  0.5484  0.2645  1.0000
  H   H13       1.0  0.9195  0.6924000000000001  0.36150000000000004  1.0000
  H   H14       1.0  0.9954  0.8267  0.8031  1.0000
  H   H15       1.0  0.9408  0.2872  0.0608  1.0000
  H   H16       1.0  0.40119999999999995  0.4206  0.6825  1.0000
  H   H17       1.0  0.6904999999999999  0.7038000000000001  0.0284  1.0000
  H   H18       1.0  0.1368  0.8034  0.6025  1.0000
  H   H19       1.0  0.8736999999999999  0.8501000000000002  0.8609000000000001  1.0000
  H   H20       1.0  0.4925  0.1075  0.54  1.0000
  H   H21       1.0  0.2532  0.6812000000000002  0.8123  1.0000
  H   H22       1.0  0.46889999999999993  0.9086000000000002  0.1913  1.0000
  H   H23       1.0  0.5614  0.4516  0.7645000000000001  1.0000
  H   H24       1.0  0.8909999999999999  0.4516  0.1117  1.0000
  H   H25       1.0  0.14409999999999998  0.7341  0.5125  1.0000
  H   H26       1.0  0.7138999999999999  0.7787000000000002  0.9571999999999999  1.0000
  H   H27       1.0  0.3485  0.0325  0.8383  1.0000
  H   H28       1.0  0.5059  0.3785  0.1999  1.0000
  H   H29       1.0  0.7921  0.4439  0.21269999999999997  1.0000
  H   H30       1.0  0.6514999999999999  0.5325  0.6617  1.0000
  H   H31       1.0  0.6441  0.7659  0.4875  1.0000
  H   H32       1.0  0.9662999999999999  0.7491  0.719  1.0000
  H   H33       1.0  0.6361  0.9969  0.4095  1.0000
  H   H34       1.0  0.06189999999999999  0.5242  0.5148  1.0000
  H   H35       1.0  0.0682  0.1323  0.43210000000000004  1.0000
  H   H36       1.0  0.9394  0.0546  0.1549  1.0000
  H   H37       1.0  0.4653  0.6227000000000003  0.3562  1.0000
  H   H38       1.0  0.3947  0.8696000000000003  0.43249999999999994  1.0000
  H   H39       1.0  0.8631999999999999  0.3034  0.8975  1.0000
  H   H40       1.0  0.2278  0.0387  0.6926  1.0000
  H   H41       1.0  0.9381  0.0242  0.9852  1.0000
  H   H42       1.0  0.7467999999999999  0.1812  0.6877  1.0000
  H   H43       1.0  0.6053  0.3696  0.0675  1.0000
  H   H44       1.0  0.9318  0.6323000000000001  0.0679  1.0000
  H   H45       1.0  0.0833  0.5746  0.6612  1.0000
  H   H46       1.0  0.36389999999999995  0.4969  0.0905  1.0000
  H   H47       1.0  0.1612  0.2594  0.0388  1.0000
  H   H48       1.0  0.0059  0.1215  0.8001  1.0000
  H   H49       1.0  0.9274  0.0636  0.4053  1.0000
  H   H50       1.0  0.8484999999999999  0.4675  0.1617  1.0000
  H   H51       1.0  0.5075  0.6075  0.96  1.0000
  H   H52       1.0  0.6245  0.2248  0.5139  1.0000
  H   H53       1.0  0.0427  0.36820000000000014  0.3126  1.0000
  H   H54       1.0  0.0988  0.5794  0.1825  1.0000
  H   H55       1.0  0.29209999999999997  0.0561  0.7873  1.0000
  H   H56       1.0  0.0075  0.8925  0.04  1.0000
  H   H57       1.0  0.1053  0.1304  0.9325  1.0000
  H   H58       1.0  0.3782  0.9461  0.9398000000000001  1.0000
  H   H59       1.0  0.5967  0.5753  0.0594  1.0000
  H   H60       1.0  0.3725  0.7012  0.8654  1.0000
  H   H61       1.0  0.6368  0.6966  0.3975  1.0000
  H   H62       1.0  0.4318  0.8677  0.9321  1.0000
  H   H63       1.0  0.3233  0.5447000000000001  0.9983  1.0000
  H   H64       1.0  0.9033  0.4247  0.5594  1.0000
  H   H65       1.0  0.8744  0.9256  0.8813  1.0000
  H   H66       1.0  0.8999999999999999  0.2844  0.9489000000000001  1.0000
  H   H67       1.0  0.6254  0.4151  0.1299  1.0000
  H   H68       1.0  0.391  0.0484  0.8883000000000001  1.0000
  H   H69       1.0  0.7329  0.6650000000000003  0.24950000000000003  1.0000
  H   H70       1.0  0.8594999999999999  0.2662  0.7174  1.0000
  H   H71       1.0  0.6  0.7156  0.4489  1.0000
  H   H72       1.0  0.1256  0.4256  0.6187  1.0000
  H   H73       1.0  0.42739999999999995  0.4364000000000001  0.5947  1.0000
  H   H74       1.0  0.7181  0.8992  0.2549  1.0000
  H   H75       1.0  0.609  0.5484  0.6117  1.0000
  H   H76       1.0  0.5311  0.4086  0.3087  1.0000
  H   H77       1.0  0.9705999999999999  0.663  0.6543  1.0000
  H   H78       1.0  0.2861  0.2787  0.5428  1.0000
  H   H79       1.0  0.07259999999999998  0.5636  0.0947  1.0000
  H   H80       1.0  0.3737  0.2662  0.8796  1.0000
  H   H81       1.0  0.1626  0.2119  0.9014999999999999  1.0000
  H   H82       1.0  0.9167  0.07460000000000003  0.8388  1.0000
  H   H83       1.0  0.7532  0.8188  0.1877  1.0000
  H   H84       1.0  0.6405  0.7338  0.2174  1.0000
  H   H85       1.0  0.4  0.2156  0.05109999999999999  1.0000
  H   H86       1.0  0.5701  0.8139  0.8781999999999999  1.0000
  H   H87       1.0  0.2075  0.8579  0.505  1.0000
  H   H88       1.0  0.4167  0.4254  0.1612  1.0000
  H   H89       1.0  0.8948999999999999  0.9791  0.1732  1.0000
  H   H90       1.0  0.20759999999999998  0.8697000000000003  0.2509  1.0000
  H   H91       1.0  0.8736999999999999  0.2338  0.1204  1.0000
  H   H92       1.0  0.3559  0.26590000000000014  0.0125  1.0000
  H   H93       1.0  0.8559  0.2341  0.9875  1.0000
  H   H94       1.0  0.8755  0.7752000000000001  0.0139  1.0000
  H   H95       1.0  0.8388  0.7594  0.46120000000000005  1.0000
  H   H96       1.0  0.47059999999999996  0.8370000000000002  0.3457  1.0000
  H   H97       1.0  0.0205  0.2759  0.3185  1.0000
  H   H98       1.0  0.7639  0.1679  0.1898  1.0000
  H   H99       1.0  0.3632  0.1966  0.10249999999999998  1.0000
  H   H100      1.0  0.5606  0.9454  0.6549  1.0000
  H   H101      1.0  0.36279999999999996  0.4069  0.5468  1.0000
  H   H102      1.0  0.6402999999999999  0.8526  0.7475  1.0000
  H   H103      1.0  0.10509999999999999  0.4791  0.3268  1.0000
  H   H104      1.0  0.4033  0.0753  0.4406  1.0000
  H   H105      1.0  0.0592  0.7872  0.4392  1.0000
  H   H106      1.0  0.1  0.7844  0.5511  1.0000
  H   H107      1.0  0.5833  0.9254  0.3388  1.0000
  H   H108      1.0  0.1515  0.9675  0.3383  1.0000
  H   H109      1.0  0.20339999999999997  0.7946  0.6893  1.0000
  H   H110      1.0  0.6263  0.1499  0.3609  1.0000
  H   H111      1.0  0.7075  0.6421000000000001  0.495  1.0000
  H   H112      1.0  0.7076  0.6303  0.7491  1.0000
  H   H113      1.0  0.7966  0.2946  0.8107  1.0000
  H   H114      1.0  0.4941  0.8785  0.3001  1.0000
  H   H115      1.0  0.8095  0.2962  0.5284  1.0000
  H   H116      1.0  0.5382  0.1555  0.4077  1.0000
  H   H117      1.0  0.1653  0.9346000000000002  0.48650000000000004  1.0000
  H   H118      1.0  0.4299  0.3139  0.6218  1.0000
  H   H119      1.0  0.1275  0.2988  0.3654  1.0000
  H   H120      1.0  0.33609999999999995  0.1949  0.38599999999999995  1.0000
  H   H121      1.0  0.3283  0.8163  0.7978  1.0000
  H   H122      1.0  0.9795  0.7759  0.1815  1.0000
  H   H123      1.0  0.3737  0.6499  0.1391  1.0000
  H   H124      1.0  0.7671  0.335  0.7495  1.0000
  H   H125      1.0  0.7484  0.7251000000000002  0.7875999999999999  1.0000
  H   H126      1.0  0.8782  0.5539  0.0602  1.0000
  H   H127      1.0  0.9618  0.8445  0.9077  1.0000
  H   H128      1.0  0.109  0.9516  0.3883  1.0000
  H   H129      1.0  0.5294  0.337  0.1543  1.0000
  H   H130      1.0  0.46179999999999993  0.6555  0.0923  1.0000
  H   H131      1.0  0.6767  0.04470000000000001  0.5017  1.0000
  H   H132      1.0  0.034699999999999995  0.3773  0.8562  1.0000
  H   H133      1.0  0.6218  0.4461000000000001  0.5602  1.0000
  H   H134      1.0  0.9924999999999999  0.39250000000000007  0.4600000000000001  1.0000
  H   H135      1.0  0.3067  0.5251  0.7108  1.0000
  H   H136      1.0  0.9653  0.8773  0.6438  1.0000
  H   H137      1.0  0.3949  0.5209  0.8268000000000001  1.0000
  H   H138      1.0  0.6638999999999999  0.6949  0.114  1.0000
  H   H139      1.0  0.0311  0.0914  0.6913  1.0000
  H   H140      1.0  0.3295  0.08250000000000002  0.1613  1.0000
  H   H141      1.0  0.6933  0.0251  0.7892  1.0000
  H   H142      1.0  0.3595  0.2338  0.2826  1.0000
  H   H143      1.0  0.33879999999999993  0.7406  0.5388  1.0000
  H   H144      1.0  0.6275  0.2012  0.6346  1.0000
  H   H145      1.0  0.3374  0.7881  0.4015  1.0000
  H   H146      1.0  0.1263  0.3501  0.6391  1.0000
  H   H147      1.0  0.3597  0.3526  0.7525  1.0000
  H   H148      1.0  0.8725000000000002  0.7988  0.1346  1.0000
  H   H149      1.0  0.2924  0.1303  0.7509  1.0000
  H   H150      1.0  0.5619  0.9758  0.4852  1.0000
  H   H151      1.0  0.061399999999999996  0.0484  0.2355  1.0000
  H   H152      1.0  0.7925  0.3579  0.995  1.0000
  H   H153      1.0  0.5010999999999999  0.1567  0.5829  1.0000
  H   H154      1.0  0.8233  0.9553  0.0017  1.0000
  H   H155      1.0  0.3095  0.2038  0.4716000000000001  1.0000
  H   H156      1.0  0.1767  0.4553  0.4983  1.0000
  H   H157      1.0  0.3347  0.0654  0.9865  1.0000
  H   H158      1.0  0.3755  0.7248  0.9861  1.0000
  H   H159      1.0  0.7722  0.5387  0.8074  1.0000
  H   H160      1.0  0.4195  0.8076  0.6385  1.0000
  H   H161      1.0  0.5726  0.9364  0.9053  1.0000
  H   H162      1.0  0.2925  0.1421  0.005  1.0000
  H   H163      1.0  0.5046  0.1733  0.3031  1.0000
  H   H164      1.0  0.1218  0.0539  0.4398  1.0000
  H   H165      1.0  0.3744  0.5744  0.1187  1.0000
  H   H166      1.0  0.0046  0.32670000000000005  0.6969  1.0000
  H   H167      1.0  0.3746  0.9151000000000002  0.3701  1.0000
  H   H168      1.0  0.2516  0.22510000000000005  0.7124  1.0000
  H   H169      1.0  0.5347  0.12270000000000003  0.1438  1.0000
  H   H170      1.0  0.7923999999999999  0.3697  0.2491  1.0000
  H   H171      1.0  0.5682  0.3677  0.5679  1.0000
  H   H172      1.0  0.2079  0.9439  0.2873  1.0000
  H   H173      1.0  0.2966  0.2054  0.1893  1.0000
  H   H174      1.0  0.6256  0.07440000000000002  0.3813  1.0000
  H   H175      1.0  0.24679999999999996  0.3188  0.3123  1.0000
  H   H176      1.0  0.8347  0.4346  0.0135  1.0000
  H   H177      1.0  0.9988999999999999  0.8433  0.0829  1.0000
  H   H178      1.0  0.1717  0.18370000000000006  0.2978  1.0000
  H   H179      1.0  0.21389999999999998  0.7213  0.0428  1.0000
  H   H180      1.0  0.1639  0.8051  0.886  1.0000
  H   H181      1.0  0.8067  0.9749000000000001  0.2892  1.0000
  H   H182      1.0  0.6653  0.5654  0.5135  1.0000
  H   H183      1.0  0.0011  0.3433  0.4171  1.0000
  H   H184      1.0  0.1245  0.2752  0.4861  1.0000
  H   H185      1.0  0.0382  0.3445  0.5923  1.0000
  H   H186      1.0  0.46629999999999994  0.7509000000000001  0.281  1.0000
  H   H187      1.0  0.8597  0.1474  0.2475  1.0000
  H   H188      1.0  0.0805  0.1924  0.1385  1.0000
  H   H189      1.0  0.0294  0.16300000000000006  0.8457  1.0000
  H   H190      1.0  0.5427  0.1318  0.6874  1.0000
  H   H191      1.0  0.5988  0.9206  0.8175  1.0000
  H   H192      1.0  0.6626  0.2881  0.0985  1.0000
  H   H193      1.0  0.1254  0.0849  0.8701  1.0000
  H   H194      1.0  0.1933  0.4749  0.21079999999999996  1.0000
  H   H195      1.0  0.45729999999999993  0.6318  0.8125999999999999  1.0000
  H   H196      1.0  0.2484  0.7749  0.2124  1.0000
  H   H197      1.0  0.2329  0.835  0.7505  1.0000
  H   H198      1.0  0.5205  0.2241  0.6815  1.0000
  H   H199      1.0  0.8746  0.5849  0.6299  1.0000
  H   H200      1.0  0.7033999999999999  0.7054000000000001  0.3107  1.0000
  H   H201      1.0  0.1361  0.5031  0.5905  1.0000
  H   H202      1.0  0.6705  0.5825  0.3387  1.0000
  H   H203      1.0  0.5592  0.7128  0.5608  1.0000
  H   H204      1.0  0.9941  0.6215  0.6999  1.0000
  H   H205      1.0  0.43939999999999996  0.44540000000000013  0.8451000000000001  1.0000
  H   H206      1.0  0.6051  0.0209  0.6732  1.0000
  H   H207      1.0  0.7818999999999999  0.1008  0.7549  1.0000
  H   H208      1.0  0.8638999999999999  0.0031  0.9095  1.0000
  H   H209      1.0  0.9572999999999999  0.8682  0.18739999999999998  1.0000
  H   H210      1.0  0.8374  0.7119000000000001  0.5985  1.0000
  H   H211      1.0  0.2671  0.16500000000000004  0.2505  1.0000
  H   H212      1.0  0.0337  0.2491  0.781  1.0000
  H   H213      1.0  0.7079  0.5561000000000001  0.7127  1.0000
  H   H214      1.0  0.4381  0.4758  0.0148  1.0000
  H   H215      1.0  0.8628  0.0931  0.45319999999999994  1.0000
  H   H216      1.0  0.6717  0.31630000000000014  0.7022  1.0000
  H   H217      1.0  0.4386  0.9516  0.7354999999999999  1.0000
  H   H218      1.0  0.8361  0.3051  0.614  1.0000
  H   H219      1.0  0.4794999999999999  0.7241  0.8184999999999999  1.0000
  H   H220      1.0  0.6372  0.9069000000000003  0.9532000000000002  1.0000
  H   H221      1.0  0.1263  0.7338  0.3796  1.0000
  H   H222      1.0  0.1403  0.6474  0.2525  1.0000
  H   H223      1.0  0.49890000000000007  0.6567000000000001  0.9171  1.0000
  H   H224      1.0  0.7360999999999999  0.8321000000000002  0.6898  1.0000
  H   H225      1.0  0.2181  0.6008  0.7451  1.0000
  H   H226      1.0  0.9298999999999998  0.18610000000000004  0.3782  1.0000
  H   H227      1.0  0.2819  0.3992  0.2451  1.0000
  H   H228      1.0  0.5805  0.3076  0.8615  1.0000
  H   H229      1.0  0.7516  0.2749  0.2876  1.0000
  H   H230      1.0  0.14049999999999999  0.7662  0.7825999999999999  1.0000
  H   H231      1.0  0.4954  0.6733  0.19689999999999996  1.0000
  H   H232      1.0  0.8283  0.6837  0.2022  1.0000
  H   H233      1.0  0.2639  0.3321  0.8101999999999999  1.0000
  H   H234      1.0  0.4408  0.2128  0.9392  1.0000
  H   H235      1.0  0.6263  0.7662  0.6204  1.0000
  H   H236      1.0  0.7277999999999999  0.4613  0.3074  1.0000
  H   H237      1.0  0.1372  0.5931  0.04680000000000001  1.0000
  H   H238      1.0  0.0967  0.9247000000000002  0.9406000000000001  1.0000
  H   H239      1.0  0.8295  0.4175  0.8387  1.0000
  H   H240      1.0  0.1705  0.9175  0.6613  1.0000
  C   C1        1.0  0.8484999999999999  0.387  0.83504  1.0000
  C   C2        1.0  0.0341  0.7118  0.13108  1.0000
  C   C3        1.0  0.9859999999999999  0.0381  0.4066  1.0000
  C   C4        1.0  0.0287  0.1757  0.8267899999999999  1.0000
  C   C5        1.0  0.3815  0.8255000000000001  0.78137  1.0000
  C   C6        1.0  0.4305  0.4386  0.14267  1.0000
  C   C7        1.0  0.6269  0.8756  0.9515000000000001  1.0000
  C   C8        1.0  0.5419  0.9556000000000002  0.6741  1.0000
  C   C9        1.0  0.3176  0.5846  0.1344  1.0000
  C   C10       1.0  0.8313  0.3205  0.81994  1.0000
  C   C11       1.0  0.5314  0.2779  0.20837  1.0000
  C   C12       1.0  0.6177  0.1311  0.70108  1.0000
  C   C13       1.0  0.2716  0.6585000000000002  0.79841  1.0000
  C   C14       1.0  0.9865  0.146  0.43993  1.0000
  C   C15       1.0  0.5902999999999999  0.2015  0.52589  1.0000
  C   C16       1.0  0.9271000000000001  0.7729  0.13773  1.0000
  C   C17       1.0  0.585  0.5216  0.60203  1.0000
  C   C18       1.0  0.0107  0.6921  0.3531  1.0000
  C   C19       1.0  0.5423  0.7351  0.2138  1.0000
  C   C20       1.0  0.2174  0.064  0.7046  1.0000
  C   C21       1.0  0.25589999999999996  0.1306  0.9874  1.0000
  C   C22       1.0  0.0695  0.2557  0.030999999999999996  1.0000
  C   C23       1.0  0.0341  0.8298  0.9181999999999999  1.0000
  C   C24       1.0  0.48440000000000005  0.8473  0.30177  1.0000
  C   C25       1.0  0.5388  0.6349  0.34471  1.0000
  C   C26       1.0  0.3485  0.113  0.16496  1.0000
  C   C27       1.0  0.5973  0.9771  0.39556  1.0000
  C   C28       1.0  0.1581  0.8034  0.95261  1.0000
  C   C29       1.0  0.8731  0.1244  0.4515  1.0000
  C   C30       1.0  0.6581  0.6966  0.047389999999999995  1.0000
  C   C31       1.0  0.9352  0.0026  0.1842  1.0000
  C   C32       1.0  0.5487  0.8450000000000001  0.7540599999999998  1.0000
  C   C33       1.0  0.5522  0.7301  0.5436  1.0000
  C   C34       1.0  0.6704  0.3361  0.74447  1.0000
  C   C35       1.0  0.8295  0.7434  0.78879  1.0000
  C   C36       1.0  0.3296  0.8361  0.75553  1.0000
  C   C37       1.0  0.6672  0.806  0.95366  1.0000
  C   C38       1.0  0.6089  0.407  0.2958  1.0000
  C   C39       1.0  0.3419  0.1966  0.45261  1.0000
  C   C40       1.0  0.9478  0.26990000000000003  0.0436  1.0000
  C   C41       1.0  0.1515  0.887  0.66496  1.0000
  C   C42       1.0  0.976  0.8351  0.06353  1.0000
  C   C43       1.0  0.0903  0.2985  0.47411000000000003  1.0000
  C   C44       1.0  0.0704  0.7826  0.59528  1.0000
  C   C45       1.0  0.8176  0.9154  0.8656  1.0000
  C   C46       1.0  0.1247  0.715  0.363  1.0000
  C   C47       1.0  0.3158  0.6262  0.14547  1.0000
  C   C48       1.0  0.0729  0.2729  0.36227  1.0000
  C   C49       1.0  0.9659  0.3298  0.5818  1.0000
  C   C50       1.0  0.5135  0.854  0.93993  1.0000
  C   C51       1.0  0.7559  0.3694  0.0126  1.0000
  C   C52       1.0  0.5729  0.22710000000000005  0.63773  1.0000
  C   C53       1.0  0.6446  0.6922  0.09379  1.0000
  C   C54       1.0  0.023999999999999997  0.3351  0.43646999999999997  1.0000
  C   C55       1.0  0.45769999999999994  0.2351  0.2862  1.0000
  C   C56       1.0  0.7737  0.4128000000000001  0.0214  1.0000
  C   C57       1.0  0.40459999999999996  0.9666  0.9251  1.0000
  C   C58       1.0  0.08499999999999999  0.9784000000000003  0.39797  1.0000
  C   C59       1.0  0.9686  0.7221  0.70837  1.0000
  C   C60       1.0  0.1269  0.6244000000000002  0.0485  1.0000
  C   C61       1.0  0.3328  0.306  0.54634  1.0000
  C   C62       1.0  0.3315  0.4123  0.66872  1.0000
  C   C63       1.0  0.3313  0.1795  0.18006  1.0000
  C   C64       1.0  0.4893  0.3079  0.8531  1.0000
  C   C65       1.0  0.0872  0.965  0.3225  1.0000
  C   C66       1.0  0.9497  0.2719  0.9329  1.0000
  C   C67       1.0  0.3823  0.6311  0.79892  1.0000
  C   C68       1.0  0.27369999999999994  0.0872  0.9786  1.0000
  C   C69       1.0  0.0149  0.2601  0.33634  1.0000
  C   C70       1.0  0.5927  0.2672  0.09291999999999999  1.0000
  C   C71       1.0  0.5156  0.3473  0.19823000000000002  1.0000
  C   C72       1.0  0.4352  0.4974  0.8158  1.0000
  C   C73       1.0  0.0522  0.7699  0.4564  1.0000
  C   C74       1.0  0.7174  0.436  0.2954  1.0000
  C   C75       1.0  0.093  0.7405  0.49520000000000003  1.0000
  C   C76       1.0  0.7441  0.6306  0.5126  1.0000
  C   C77       1.0  0.7525  0.8854  0.23767999999999997  1.0000
  C   C78       1.0  0.5341  0.6702  0.0818  1.0000
  C   C79       1.0  0.6813  0.8207000000000002  0.67417  1.0000
  C   C80       1.0  0.8187  0.1793  0.17417  1.0000
  C   C81       1.0  0.013500000000000002  0.646  0.06007  1.0000
  C   C82       1.0  0.4581  0.4556  0.8258999999999999  1.0000
  C   C83       1.0  0.038599999999999995  0.2986  0.7028999999999999  1.0000
  C   C84       1.0  0.3911  0.9070000000000003  0.20420000000000002  1.0000
  C   C85       1.0  0.5149  0.2399  0.66366  1.0000
  C   C86       1.0  0.1089  0.093  0.7042  1.0000
  C   C87       1.0  0.9851  0.7601  0.16366  1.0000
  C   C88       1.0  0.486  0.4619  0.5934  1.0000
  C   C89       1.0  0.8554  0.3078  0.59379  1.0000
  C   C90       1.0  0.6053999999999999  0.0427  0.48729999999999996  1.0000
  C   C91       1.0  0.0695  0.5614  0.64267  1.0000
  C   C92       1.0  0.3731  0.3756  0.5485  1.0000
  C   C93       1.0  0.4865  0.354  0.56007  1.0000
  C   C94       1.0  0.9803  0.8622  0.03982  1.0000
  C   C95       1.0  0.8752999999999999  0.215  0.137  1.0000
  C   C96       1.0  0.8817  0.4528  0.2058  1.0000
  C   C97       1.0  0.7284  0.15850000000000003  0.70159  1.0000
  C   C98       1.0  0.9576999999999999  0.2649  0.7137999999999999  1.0000
  C   C99       1.0  0.6247  0.7850000000000001  0.637  1.0000
  C   C100      1.0  0.5139999999999999  0.9619000000000001  0.9066  1.0000
  C   C101      1.0  0.3753  0.285  0.863  1.0000
  C   C102      1.0  0.5341  0.7882000000000001  0.86892  1.0000
  C   C103      1.0  0.5503  0.7281000000000001  0.43289999999999995  1.0000
  C   C104      1.0  0.46859999999999996  0.7779  0.29163  1.0000
  C   C105      1.0  0.1685  0.5877  0.16872  1.0000
  C   C106      1.0  0.47600000000000003  0.6649000000000002  0.93647  1.0000
  C   C107      1.0  0.9097  0.7985  0.02589  1.0000
  C   C108      1.0  0.9614  0.7986  0.7971  1.0000
  C   C109      1.0  0.9305  0.0614  0.85733  1.0000
  C   C110      1.0  0.4305  0.7443000000000001  0.531  1.0000
  C   C111      1.0  0.8484  0.6232  0.5498  1.0000
  C   C112      1.0  0.9512999999999999  0.155  0.25406  1.0000
  C   C113      1.0  0.8823  0.8689  0.20108  1.0000
  C   C114      1.0  0.4128  0.035  0.8225  1.0000
  C   C115      1.0  0.9572999999999999  0.9953  0.9780000000000001  1.0000
  C   C116      1.0  0.1183  0.9528  0.2942  1.0000
  C   C117      1.0  0.0314  0.2221  0.79163  1.0000
  C   C118      1.0  0.0419  0.5444  0.3259  1.0000
  C   C119      1.0  0.4295999999999999  0.21740000000000007  0.09528  1.0000
  C   C120      1.0  0.18419999999999997  0.3738  0.64547  1.0000
  C   C121      1.0  0.4497  0.2281  0.0671  1.0000
  C   C122      1.0  0.9712999999999999  0.6757  0.67321  1.0000
  C   C123      1.0  0.9581  0.044400000000000016  0.1741  1.0000
  C   C124      1.0  0.3554  0.19220000000000007  0.40621  1.0000
  C   C125      1.0  0.7263  0.5872  0.5214  1.0000
  C   C126      1.0  0.8328  0.194  0.45366  1.0000
  C   C127      1.0  0.0973  0.5229  0.60444  1.0000
  C   C128      1.0  0.5287  0.3243000000000001  0.17321  1.0000
  C   C129      1.0  0.6183  0.5472  0.7058  1.0000
  C   C130      1.0  0.4270999999999999  0.7271  0.8622700000000001  1.0000
  C   C131      1.0  0.8945999999999998  0.9573000000000003  0.9873  1.0000
  C   C132      1.0  0.8315  0.0877  0.33128  1.0000
  C   C133      1.0  0.6705  0.2566  0.28879  1.0000
  C   C134      1.0  0.9069999999999999  0.24050000000000005  0.0048  1.0000
  C   C135      1.0  0.954  0.567  0.62547  1.0000
  C   C136      1.0  0.4713  0.8243  0.32679  1.0000
  C   C137      1.0  0.9611999999999999  0.3651  0.84471  1.0000
  C   C138      1.0  0.6185  0.3255  0.71863  1.0000
  C   C139      1.0  0.3484  0.8768  0.4502  1.0000
  C   C140      1.0  0.4659  0.1702  0.4182  1.0000
  C   C141      1.0  0.9046  0.5334000000000002  0.0749  1.0000
  C   C142      1.0  0.454  0.9330000000000003  0.3745299999999999  1.0000
  C   C143      1.0  0.4614  0.7014  0.2029  1.0000
  C   C144      1.0  0.11849999999999998  0.1745  0.28137  1.0000
  C   C145      1.0  0.9305  0.7557  0.4689999999999999  1.0000
  C   C146      1.0  0.1813  0.6793  0.32583  1.0000
  C   C147      1.0  0.4478  0.2301  0.9563999999999999  1.0000
  C   C148      1.0  0.1687  0.8205  0.68006  1.0000
  C   C149      1.0  0.8911  0.593  0.7958  1.0000
  C   C150      1.0  0.45729999999999993  0.5047  0.022  1.0000
  C   C151      1.0  0.407  0.2595  0.9952  1.0000
  C   C152      1.0  0.477  0.9595  0.7170899999999999  1.0000
  C   C153      1.0  0.5239999999999999  0.1649  0.56353  1.0000
  C   C154      1.0  0.2525  0.6146000000000003  0.76232  1.0000
  C   C155      1.0  0.4851  0.7399  0.83634  1.0000
  C   C156      1.0  0.046  0.067  0.8745300000000001  1.0000
  C   C157      1.0  0.6824  0.0846  0.3655999999999999  1.0000
  C   C158      1.0  0.6685  0.9123  0.83128  1.0000
  C   C159      1.0  0.38169999999999993  0.0472  0.7942  1.0000
  C   C160      1.0  0.8157999999999999  0.8738  0.8545300000000001  1.0000
  C   C161      1.0  0.06479999999999998  0.5026  0.3158  1.0000
  C   C162      1.0  0.40729999999999994  0.7672000000000002  0.40708  1.0000
  C   C163      1.0  0.0388  0.8651  0.65529  1.0000
  C   C164      1.0  0.0954  0.0334  0.4251  1.0000
  C   C165      1.0  0.5107  0.8079000000000002  0.6469  1.0000
  C   C166      1.0  0.9128  0.465  0.1775  1.0000
  C   C167      1.0  0.0927  0.23280000000000006  0.90708  1.0000
  C   C168      1.0  0.4576  0.05890000000000001  0.45421000000000006  1.0000
  C   C169      1.0  0.9659  0.2118  0.36892  1.0000
  C   C170      1.0  0.2284  0.3415  0.29841  1.0000
  C   C171      1.0  0.11769999999999999  0.3689  0.29892  1.0000
  C   C172      1.0  0.1672  0.6940000000000001  0.04634  1.0000
  C   C173      1.0  0.546  0.433  0.12547  1.0000
  C   C174      1.0  0.1446  0.8078000000000002  0.90621  1.0000
  C   C175      1.0  0.0424  0.9411000000000003  0.95421  1.0000
  C   C176      1.0  0.9893000000000001  0.1921  0.1469  1.0000
  C   C177      1.0  0.3946  0.5427  0.0127  1.0000
  C   C178      1.0  0.7494  0.3867  0.2641  1.0000
  C   C179      1.0  0.415  0.0216  0.8979699999999999  1.0000
  C   C180      1.0  0.915  0.4784  0.10202999999999998  1.0000
  C   C181      1.0  0.5954  0.4666  0.5749  1.0000
  C   C182      1.0  0.9576  0.4411  0.54579  1.0000
  C   C183      1.0  0.3187  0.3207  0.82583  1.0000
  C   C184      1.0  0.5648  0.9974  0.6842  1.0000
  C   C185      1.0  0.8418999999999999  0.3034  0.54739  1.0000
  C   C186      1.0  0.7716  0.8415  0.20158999999999996  1.0000
  C   C187      1.0  0.523  0.4595  0.7829100000000001  1.0000
  C   C188      1.0  0.5386  0.2014  0.2971  1.0000
  C   C189      1.0  0.0503  0.7719  0.5671  1.0000
  C   C190      1.0  0.8296  0.6639  0.24447  1.0000
  C   C191      1.0  0.46119999999999994  0.1349  0.15529  1.0000
  C   C192      1.0  0.5872  0.5350000000000001  0.6775  1.0000
  C   C193      1.0  0.1705  0.24340000000000006  0.71121  1.0000
  C   C194      1.0  0.7475  0.1146  0.7376799999999999  1.0000
  C   C195      1.0  0.9296  0.2826  0.90472  1.0000
  C   C196      1.0  0.6005  0.0311  0.79574  1.0000
  C   C197      1.0  0.9073  0.7328  0.59292  1.0000
  C   C198      1.0  0.0487  0.655  0.24594  1.0000
  C   C199      1.0  0.3995  0.5311  0.70426  1.0000
  C   C200      1.0  0.6842  0.1262  0.35453  1.0000
  C   C201      1.0  0.2506  0.8867  0.2359  1.0000
  C   C202      1.0  0.9844  0.6527  0.69823  1.0000
  C   C203      1.0  0.0427  0.4953  0.522  1.0000
  C   C204      1.0  0.4659  0.2882  0.63108  1.0000
  C   C205      1.0  0.2494  0.1133  0.7359  1.0000
  C   C206      1.0  0.5695  0.9386  0.35733  1.0000
  C   C207      1.0  0.2826  0.9360000000000002  0.2046  1.0000
  C   C208      1.0  0.24749999999999997  0.3854  0.26232  1.0000
  C   C209      1.0  0.5424  0.5589  0.04579  1.0000
  C   C210      1.0  0.9027  0.0229  0.8955600000000001  1.0000
  C   C211      1.0  0.0423  0.7649  0.7862000000000001  1.0000
  C   C212      1.0  0.8995  0.9689  0.29574  1.0000
  C   C213      1.0  0.4803  0.6378  0.96018  1.0000
  C   C214      1.0  0.7506  0.6133  0.7641  1.0000
  C   C215      1.0  0.6516  0.3768  0.04979999999999999  1.0000
  C   C216      1.0  0.9769999999999999  0.5405  0.28291  1.0000
  C   C217      1.0  0.1005  0.4689000000000001  0.20425999999999997  1.0000
  C   C218      1.0  0.0156  0.1527  0.80177  1.0000
  C   C219      1.0  0.5929999999999999  0.7595  0.5048  1.0000
  C   C220      1.0  0.4513  0.345  0.7459400000000002  1.0000
  C   C221      1.0  0.8815  0.6745  0.21863  1.0000
  C   C222      1.0  0.10539999999999998  0.4573  0.5127  1.0000
  C   C223      1.0  0.013999999999999999  0.5381  0.0934  1.0000
  C   C224      1.0  0.6514999999999999  0.6130000000000002  0.33504  1.0000
  C   C225      1.0  0.6687  0.6795000000000002  0.31994  1.0000
  C   C226      1.0  0.5704  0.7174  0.40472  1.0000
  C   C227      1.0  0.023  0.0405  0.21709  1.0000
  C   C228      1.0  0.5427  0.004700000000000002  0.478  1.0000
  C   C229      1.0  0.5695  0.2443  0.969  1.0000
  C   C230      1.0  0.1704  0.1639  0.25553  1.0000
  C   C231      1.0  0.5197  0.13780000000000003  0.53982  1.0000
  C   C232      1.0  0.4027  0.4771  0.10444  1.0000
  C   C233      1.0  0.4097  0.7015  0.97411  1.0000
  C   C234      1.0  0.1824  0.4154  0.6344  1.0000
  C   C235      1.0  0.7826  0.564  0.7954  1.0000
  C   C236      1.0  0.0197  0.3622  0.46018  1.0000
  C   C237      1.0  0.2441  0.8694000000000002  0.4874  1.0000
  C   C238      1.0  0.1516  0.1232  0.9502  1.0000
  C   C239      1.0  0.2263  0.9128  0.47859999999999997  1.0000
  C   C240      1.0  0.3295  0.7566  0.21121  1.0000
  N   N1        1.0  0.45059999999999995  0.33095  0.8294000000000001  1.0000
  N   N2        1.0  0.8166  0.5832  0.54404  1.0000
  N   N3        1.0  0.7778  0.05946000000000001  0.35003  1.0000
  N   N4        1.0  0.6921  0.5776800000000002  0.77477  1.0000
  N   N5        1.0  0.9352  0.65121  0.26284  1.0000
  N   N6        1.0  0.5493  0.07738  0.47256  1.0000
  N   N7        1.0  0.8728999999999999  0.6241100000000002  0.7754099999999999  1.0000
  N   N8        1.0  0.9993999999999998  0.4558000000000001  0.22190999999999997  1.0000
  N   N9        1.0  0.0409  0.21976  0.82096  1.0000
  N   N10       1.0  0.8373  0.033520000000000015  0.87099  1.0000
  N   N11       1.0  0.2231  0.79035  0.9284300000000001  1.0000
  N   N12       1.0  0.1921  0.92232  0.22522999999999999  1.0000
  N   N13       1.0  0.0378  0.6904400000000003  0.05842  1.0000
  N   N14       1.0  0.4765  0.7421  0.38821000000000006  1.0000
  N   N15       1.0  0.03629999999999999  0.23440000000000005  0.00458  1.0000
  N   N16       1.0  0.06180000000000001  0.47301  0.17655  1.0000
  N   N17       1.0  0.022  0.49980000000000013  0.28837  1.0000
  N   N18       1.0  0.5475  0.6786  0.33506  1.0000
  N   N19       1.0  0.4398  0.6607600000000002  0.984  1.0000
  N   N20       1.0  0.7669  0.20678000000000005  0.15448  1.0000
  N   N21       1.0  0.9882  0.56888  0.30399  1.0000
  N   N22       1.0  0.2769  0.20965000000000006  0.42843  1.0000
  N   N23       1.0  0.9814  0.68237  0.7207  1.0000
  N   N24       1.0  0.1834  0.0832  0.95596  1.0000
  N   N25       1.0  0.5006  0.5442  0.72191  1.0000
  N   N26       1.0  0.4994  0.04420000000000002  0.77809  1.0000
  N   N27       1.0  0.23539999999999997  0.85931  0.68081  1.0000
  N   N28       1.0  0.6831  0.3458  0.031219999999999998  1.0000
  N   N29       1.0  0.9764  0.16996  0.28053  1.0000
  N   N30       1.0  0.044  0.82741  0.94762  1.0000
  N   N31       1.0  0.0006  0.9558  0.27809  1.0000
  N   N32       1.0  0.9576999999999999  0.72954  0.7815699999999999  1.0000
  N   N33       1.0  0.522  0.00020000000000000006  0.7116300000000001  1.0000
  N   N34       1.0  0.47309999999999997  0.49886  0.60947  1.0000
  N   N35       1.0  0.7813  0.12886  0.33293  1.0000
  N   N36       1.0  0.1899  0.64891  0.7750799999999999  1.0000
  N   N37       1.0  0.433  0.70577  0.94544  1.0000
  N   N38       1.0  0.7646  0.35931  0.8191899999999999  1.0000
  N   N39       1.0  0.8079  0.4223200000000001  0.27477  1.0000
  N   N40       1.0  0.2222  0.55946  0.14997  1.0000
  N   N41       1.0  0.0493  0.42262  0.52744  1.0000
  N   N42       1.0  0.9591  0.71976  0.67904  1.0000
  N   N43       1.0  0.9764999999999999  0.7579  0.61179  1.0000
  N   N44       1.0  0.7331  0.79322  0.65448  1.0000
  N   N45       1.0  0.1621  0.99408  0.41912  1.0000
  N   N46       1.0  0.1271  0.12411  0.7245900000000001  1.0000
  N   N47       1.0  0.5534999999999999  0.2601  0.06485  1.0000
  N   N48       1.0  0.7769  0.29035  0.57157  1.0000
  N   N49       1.0  0.9469  0.22046000000000004  0.34066  1.0000
  N   N50       1.0  0.3079  0.07768  0.72523  1.0000
  N   N51       1.0  0.3379  0.00592  0.91912  1.0000
  N   N52       1.0  0.9622  0.19044  0.44158  1.0000
  N   N53       1.0  0.3729  0.87589  0.22459  1.0000
  N   N54       1.0  0.4507  0.57738  0.027439999999999996  1.0000
  N   N55       1.0  0.5617999999999999  0.02699  0.82345  1.0000
  N   N56       1.0  0.7221999999999998  0.9405400000000003  0.85003  1.0000
  N   N57       1.0  0.9382  0.97301  0.32345  1.0000
  N   N58       1.0  0.9605000000000001  0.74237  0.11734  1.0000
  N   N59       1.0  0.6621  0.50592  0.58088  1.0000
  N   N60       1.0  0.0499  0.98571  0.95706  1.0000
  N   N61       1.0  0.2331  0.70678  0.34552  1.0000
  N   N62       1.0  0.067  0.29423  0.44544  1.0000
  N   N63       1.0  0.2646  0.14069  0.18080999999999997  1.0000
  N   N64       1.0  0.7187  0.87114  0.83293  1.0000
  N   N65       1.0  0.4352  0.8487900000000003  0.73716  1.0000
  N   N66       1.0  0.7204  0.84544  0.95996  1.0000
  N   N67       1.0  0.3166  0.9168  0.45596  1.0000
  N   N68       1.0  0.4501  0.01429  0.45706  1.0000
  N   N69       1.0  0.5186  0.31763  0.2207  1.0000
  N   N70       1.0  0.48139999999999994  0.81763  0.2793  1.0000
  N   N71       1.0  0.9637  0.7344  0.49541999999999997  1.0000
  N   N72       1.0  0.4764  0.33004  0.7194699999999999  1.0000
  N   N73       1.0  0.5648  0.34879000000000004  0.76284  1.0000
  N   N74       1.0  0.478  0.5002  0.7883699999999999  1.0000
  N   N75       1.0  0.6624  0.7449  0.52718  1.0000
  N   N76       1.0  0.46219999999999994  0.3095600000000001  0.55842  1.0000
  N   N77       1.0  0.5378  0.80956  0.94158  1.0000
  N   N78       1.0  0.0118  0.06888  0.19601  1.0000
  N   N79       1.0  0.456  0.17259  0.44761999999999996  1.0000
  N   N80       1.0  0.5235  0.24210000000000004  0.11179000000000001  1.0000
  N   N81       1.0  0.6317  0.10166  0.72386  1.0000
  N   N82       1.0  0.5423  0.27046  0.28157  1.0000
  N   N83       1.0  0.2778  0.4405400000000001  0.64997  1.0000
  N   N84       1.0  0.0531  0.72046  0.15934  1.0000
  N   N85       1.0  0.0535  0.2399  0.93515  1.0000
  N   N86       1.0  0.4382  0.52699  0.67655  1.0000
  N   N87       1.0  0.9505999999999999  0.16905000000000003  0.1706  1.0000
  N   N88       1.0  0.326  0.71451  0.20214  1.0000
  N   N89       1.0  0.0423  0.22954  0.71843  1.0000
  N   N90       1.0  0.21869999999999998  0.62886  0.16707  1.0000
  N   N91       1.0  0.5499  0.51429  0.04294  1.0000
  N   N92       1.0  0.956  0.3274100000000001  0.55238  1.0000
  N   N93       1.0  0.5273  0.45759000000000005  0.10093  1.0000
  N   N94       1.0  0.7796  0.15456  0.4599599999999999  1.0000
  N   N95       1.0  0.8169  0.6542  0.53122  1.0000
  N   N96       1.0  0.4605  0.75763  0.88266  1.0000
  N   N97       1.0  0.8101  0.14891  0.7249200000000001  1.0000
  N   N98       1.0  0.6627  0.96648  0.37099000000000004  1.0000
  N   N99       1.0  0.0235  0.2579  0.88821  1.0000
  N   N100      1.0  0.5409  0.28024  0.17904000000000003  1.0000
  N   N101      1.0  0.3683  0.60166  0.77614  1.0000
  N   N102      1.0  0.5269  0.99886  0.89053  1.0000
  N   N103      1.0  0.9525  0.3214  0.83506  1.0000
  N   N104      1.0  0.5236  0.8300400000000002  0.7805300000000001  1.0000
  N   N105      1.0  0.2796  0.34544  0.54004  1.0000
  N   N106      1.0  0.45769999999999994  0.77046  0.21843  1.0000
  N   N107      1.0  0.5531  0.7795400000000002  0.84066  1.0000
  N   N108      1.0  0.5395  0.25763  0.61734  1.0000
  N   N109      1.0  0.4591  0.78024  0.32096  1.0000
  N   N110      1.0  0.5117999999999999  0.43112000000000006  0.80399  1.0000
  N   N111      1.0  0.4882  0.93112  0.69601  1.0000
  N   N112      1.0  0.4637  0.7656000000000002  0.50458  1.0000
  N   N113      1.0  0.567  0.20577  0.55456  1.0000
  N   N114      1.0  0.0494  0.6690500000000003  0.3294  1.0000
  N   N115      1.0  0.3373  0.46648  0.12901  1.0000
  N   N116      1.0  0.9730999999999999  0.00114  0.39053  1.0000
  N   N117      1.0  0.5494  0.83095  0.6706  1.0000
  N   N118      1.0  0.2813  0.37114  0.66707  1.0000
  N   N119      1.0  0.03949999999999999  0.24237  0.38266  1.0000
  N   N120      1.0  0.9727000000000001  0.54241  0.60093  1.0000
  N   N121      1.0  0.4469  0.27954  0.65934  1.0000
  N   N122      1.0  0.1624  0.7551  0.47282  1.0000
  N   N123      1.0  0.2204  0.65456  0.04004  1.0000
  N   N124      1.0  0.9398000000000001  0.83924  0.016  1.0000
  N   N125      1.0  0.544  0.67259  0.05238  1.0000
  N   N126      1.0  0.8376  0.2551  0.02718  1.0000
  N   N127      1.0  0.7354  0.6406900000000002  0.31919  1.0000
  N   N128      1.0  0.0236  0.66996  0.21947  1.0000
  N   N129      1.0  0.826  0.78549  0.79786  1.0000
  N   N130      1.0  0.7231  0.7096500000000002  0.07157  1.0000
  N   N131      1.0  0.5363  0.2656  0.9954199999999999  1.0000
  N   N132      1.0  0.026900000000000004  0.50114  0.10947  1.0000
  N   N133      1.0  0.9501  0.4857100000000001  0.54294  1.0000
  N   N134      1.0  0.8379  0.49408  0.08088  1.0000
  N   N135      1.0  0.06479999999999998  0.15121  0.23716  1.0000
  N   N136      1.0  0.4727  0.9575900000000003  0.39907  1.0000
  N   N137      1.0  0.45249999999999996  0.1786  0.16494  1.0000
  N   N138      1.0  0.174  0.2854900000000001  0.70214  1.0000
  N   N139      1.0  0.1317  0.3983400000000001  0.27614  1.0000
  N   N140      1.0  0.8682999999999998  0.89834  0.22386  1.0000
  N   N141      1.0  0.1627  0.53352  0.62901  1.0000
  N   N142      1.0  0.9506999999999999  0.9226200000000001  0.9725599999999999  1.0000
  N   N143      1.0  0.6834  0.4168  0.04404  1.0000
  N   N144      1.0  0.9465  0.7399  0.56485  1.0000
  N   N145      1.0  0.6899  0.85109  0.22492  1.0000
  N   N146      1.0  0.978  0.9998  0.21163  1.0000
  N   N147      1.0  0.674  0.21451  0.29786  1.0000
  N   N148      1.0  0.6271  0.37589  0.27541  1.0000
  N   N149      1.0  0.2669  0.2932200000000001  0.84552  1.0000
  N   N150      1.0  0.3376  0.2449  0.97282  1.0000
  N   N151      1.0  0.933  0.7942300000000001  0.054560000000000004  1.0000
  N   N152      1.0  0.5602  0.16076000000000001  0.516  1.0000
  N   N153      1.0  0.018599999999999995  0.18237  0.7793  1.0000
  N   N154      1.0  0.18309999999999998  0.1542  0.96878  1.0000
  N   N155      1.0  0.3101  0.35109  0.27508  1.0000
  N   N156      1.0  0.0602  0.33924  0.48400000000000004  1.0000
  N   N157      1.0  0.027299999999999998  0.04241000000000002  0.89907  1.0000
  N   N158      1.0  0.44650000000000006  0.7601  0.43515  1.0000
  N   N159      1.0  0.3169  0.8458  0.4687799999999999  1.0000
  N   N160      1.0  0.0475  0.8214  0.66494  1.0000
