data_image0
_chemical_formula_structural       Eu8H288C318N48O144
_chemical_formula_sum              "Eu8 H288 C318 N48 O144"
_cell_length_a       23.833
_cell_length_b       23.832999999999995
_cell_length_c       23.833
_cell_angle_alpha    109.471
_cell_angle_beta     109.471
_cell_angle_gamma    109.471

_space_group_name_H-M_alt    "P 1"
_space_group_IT_number       1

loop_
  _space_group_symop_operation_xyz
  'x, y, z'

loop_
  _atom_site_type_symbol
  _atom_site_label
  _atom_site_symmetry_multiplicity
  _atom_site_fract_x
  _atom_site_fract_y
  _atom_site_fract_z
  _atom_site_occupancy
  Eu  Eu1       1.0  0.45234  0.45234  0.95234  1.0000
  Eu  Eu2       1.0  3.7266748613272575e-17  0.5  0.54766  1.0000
  Eu  Eu3       1.0  0.5  0.04766000000000002  0.5  1.0000
  Eu  Eu4       1.0  0.04766  0.0  0.0  1.0000
  Eu  Eu5       1.0  0.0  0.5  0.04766  1.0000
  Eu  Eu6       1.0  0.95234  0.95234  0.45234  1.0000
  Eu  Eu7       1.0  0.5  0.54766  0.5  1.0000
  Eu  Eu8       1.0  0.54766  0.0  0.0  1.0000
  H   H1        1.0  0.646  0.5008  0.1808  1.0000
  H   H2        1.0  0.7012  0.3806  0.22139999999999999  1.0000
  H   H3        1.0  0.6302  0.3125  0.1665  1.0000
  H   H4        1.0  0.6738  0.3149  0.1045  1.0000
  H   H5        1.0  0.6908999999999998  0.3042  0.0091  1.0000
  H   H6        1.0  0.6593  0.3564  0.9528999999999999  1.0000
  H   H7        1.0  0.6070999999999998  0.4144999999999999  0.9831999999999999  1.0000
  H   H8        1.0  0.6185  0.5947  0.1754  1.0000
  H   H9        1.0  0.5428000000000001  0.5328  0.1358  1.0000
  H   H10       1.0  0.5192  0.4677  0.2119  1.0000
  H   H11       1.0  0.547  0.5301  0.3345  1.0000
  H   H12       1.0  0.6505  0.6487  0.3928  1.0000
  H   H13       1.0  0.82  0.46520000000000006  0.3192  1.0000
  H   H14       1.0  0.6592  0.4798  0.2786  1.0000
  H   H15       1.0  0.6460000000000001  0.4637  0.3335  1.0000
  H   H16       1.0  0.7104  0.5693  0.3955  1.0000
  H   H17       1.0  0.7951000000000001  0.6818  0.49089999999999995  1.0000
  H   H18       1.0  0.9035  0.7064000000000001  0.5471  1.0000
  H   H19       1.0  0.9313  0.6239  0.5168  1.0000
  H   H20       1.0  0.9192999999999999  0.4431  0.3246  1.0000
  H   H21       1.0  0.8970000000000001  0.407  0.3642  1.0000
  H   H22       1.0  0.7558000000000001  0.3073  0.2881  1.0000
  H   H23       1.0  0.6955999999999999  0.2125  0.1655  1.0000
  H   H24       1.0  0.7559  0.2577  0.1072  1.0000
  H   H25       1.0  0.68  0.9992000000000001  0.6452  1.0000
  H   H26       1.0  0.8408  0.1194  0.8206  1.0000
  H   H27       1.0  0.8540000000000001  0.18750000000000008  0.8177  1.0000
  H   H28       1.0  0.7896  0.18510000000000007  0.8589  1.0000
  H   H29       1.0  0.7048999999999999  0.1958000000000001  0.8867  1.0000
  H   H30       1.0  0.5965  0.1436  0.8029  1.0000
  H   H31       1.0  0.5687  0.08550000000000008  0.6926  1.0000
  H   H32       1.0  0.5807  0.9053  0.5238  1.0000
  H   H33       1.0  0.6030000000000001  0.9672000000000001  0.51  1.0000
  H   H34       1.0  0.7441999999999999  0.032299999999999995  0.5515  1.0000
  H   H35       1.0  0.8044000000000001  0.9699  0.5169  1.0000
  H   H36       1.0  0.7441  0.8513000000000001  0.5018  1.0000
  H   H37       1.0  0.8540000000000001  0.03480000000000006  0.8548000000000001  1.0000
  H   H38       1.0  0.7988  0.02019999999999999  0.6794  1.0000
  H   H39       1.0  0.8698  0.03630000000000002  0.6823  1.0000
  H   H40       1.0  0.8262  0.9307000000000001  0.6411  1.0000
  H   H41       1.0  0.8091000000000002  0.8182  0.6133  1.0000
  H   H42       1.0  0.8407  0.7936  0.6971  1.0000
  H   H43       1.0  0.8929  0.8761  0.8074  1.0000
  H   H44       1.0  0.8815  0.0569  0.9762  1.0000
  H   H45       1.0  0.9572  0.09299999999999999  0.99  1.0000
  H   H46       1.0  0.9807999999999999  0.1926999999999999  0.9484999999999999  1.0000
  H   H47       1.0  0.953  0.2875  0.9831  1.0000
  H   H48       1.0  0.8495  0.24229999999999993  0.9981999999999999  1.0000
  H   H49       1.0  0.14520000000000002  0.6800000000000002  0.4992  1.0000
  H   H50       1.0  0.3206  0.8408000000000001  0.6194  1.0000
  H   H51       1.0  0.3177  0.854  0.6875  1.0000
  H   H52       1.0  0.3589  0.7896  0.6851  1.0000
  H   H53       1.0  0.38669999999999993  0.7049  0.6958  1.0000
  H   H54       1.0  0.3029  0.5965  0.6436  1.0000
  H   H55       1.0  0.1926  0.5687  0.5855  1.0000
  H   H56       1.0  0.023800000000000033  0.5807  0.4053  1.0000
  H   H57       1.0  0.01000000000000009  0.6030000000000001  0.4672  1.0000
  H   H58       1.0  0.05150000000000003  0.7442000000000001  0.5323  1.0000
  H   H59       1.0  0.01690000000000006  0.8044  0.4699  1.0000
  H   H60       1.0  0.0018000000000000201  0.7441  0.3513  1.0000
  H   H61       1.0  0.35479999999999995  0.854  0.5348  1.0000
  H   H62       1.0  0.1794  0.7988  0.5202  1.0000
  H   H63       1.0  0.18229999999999996  0.8698  0.5363  1.0000
  H   H64       1.0  0.1411  0.8262  0.4307  1.0000
  H   H65       1.0  0.1133  0.8091  0.3182  1.0000
  H   H66       1.0  0.19709999999999997  0.8407  0.2936  1.0000
  H   H67       1.0  0.3073999999999999  0.8929  0.3761  1.0000
  H   H68       1.0  0.47620000000000007  0.8815000000000001  0.5569  1.0000
  H   H69       1.0  0.49  0.9572  0.593  1.0000
  H   H70       1.0  0.44850000000000007  0.9808  0.6927  1.0000
  H   H71       1.0  0.4830999999999999  0.953  0.7875  1.0000
  H   H72       1.0  0.4981999999999999  0.8495  0.7423  1.0000
  H   H73       1.0  0.6808  0.646  0.0008  1.0000
  H   H74       1.0  0.7213999999999999  0.7012  0.8805999999999999  1.0000
  H   H75       1.0  0.6665  0.6302  0.8125  1.0000
  H   H76       1.0  0.6045  0.6738  0.8149  1.0000
  H   H77       1.0  0.5091  0.6909  0.8042  1.0000
  H   H78       1.0  0.4529000000000001  0.6593000000000001  0.8564000000000002  1.0000
  H   H79       1.0  0.4832  0.6071  0.9145  1.0000
  H   H80       1.0  0.6754  0.6185  0.0947  1.0000
  H   H81       1.0  0.6358  0.5428  0.0328  1.0000
  H   H82       1.0  0.7119  0.5192  0.9677  1.0000
  H   H83       1.0  0.8345  0.547  0.0301  1.0000
  H   H84       1.0  0.8927999999999999  0.6505  0.1487  1.0000
  H   H85       1.0  0.8192  0.8199999999999998  0.9652  1.0000
  H   H86       1.0  0.7786000000000001  0.6592  0.9797999999999999  1.0000
  H   H87       1.0  0.8335  0.646  0.9637  1.0000
  H   H88       1.0  0.8955000000000001  0.7104  0.0693  1.0000
  H   H89       1.0  0.9909  0.7951  0.1818  1.0000
  H   H90       1.0  0.047099999999999996  0.9035  0.2064  1.0000
  H   H91       1.0  0.016800000000000027  0.9313  0.12389999999999998  1.0000
  H   H92       1.0  0.8245999999999999  0.9192999999999999  0.9430999999999999  1.0000
  H   H93       1.0  0.8642  0.8970000000000002  0.9070000000000001  1.0000
  H   H94       1.0  0.7881  0.7558  0.8073  1.0000
  H   H95       1.0  0.6655  0.6956  0.7125  1.0000
  H   H96       1.0  0.6071999999999999  0.7559000000000001  0.7577  1.0000
  H   H97       1.0  0.4652  0.8192  0.32  1.0000
  H   H98       1.0  0.47980000000000006  0.7786000000000001  0.1592  1.0000
  H   H99       1.0  0.46369999999999995  0.8335000000000001  0.146  1.0000
  H   H100      1.0  0.5693  0.8955  0.2104  1.0000
  H   H101      1.0  0.6817999999999999  0.9909  0.2951  1.0000
  H   H102      1.0  0.7063999999999999  0.0471  0.4035  1.0000
  H   H103      1.0  0.6239  0.0168  0.4313  1.0000
  H   H104      1.0  0.4431  0.8246  0.4193  1.0000
  H   H105      1.0  0.407  0.8642  0.397  1.0000
  H   H106      1.0  0.30730000000000013  0.7881  0.2558  1.0000
  H   H107      1.0  0.2125  0.6655  0.1956  1.0000
  H   H108      1.0  0.2577  0.6072000000000001  0.2559  1.0000
  H   H109      1.0  0.5008  0.6808  0.146  1.0000
  H   H110      1.0  0.3806  0.7214  0.2012  1.0000
  H   H111      1.0  0.3125  0.6665  0.1302  1.0000
  H   H112      1.0  0.3148999999999999  0.6045  0.1738  1.0000
  H   H113      1.0  0.3042000000000001  0.5091  0.1909  1.0000
  H   H114      1.0  0.35640000000000005  0.4529000000000001  0.1593  1.0000
  H   H115      1.0  0.4145  0.4832  0.10710000000000001  1.0000
  H   H116      1.0  0.5946999999999999  0.6754  0.11849999999999998  1.0000
  H   H117      1.0  0.5328  0.6358  0.0428  1.0000
  H   H118      1.0  0.4677  0.7119  0.0192  1.0000
  H   H119      1.0  0.5301000000000001  0.8345000000000001  0.047  1.0000
  H   H120      1.0  0.6487000000000002  0.8928000000000001  0.1505  1.0000
  H   H121      1.0  0.034799999999999984  0.3548  0.354  1.0000
  H   H122      1.0  0.020199999999999975  0.17940000000000003  0.2988  1.0000
  H   H123      1.0  0.0363  0.1823  0.3698  1.0000
  H   H124      1.0  0.9307  0.1411  0.3262  1.0000
  H   H125      1.0  0.8182  0.1133  0.3091  1.0000
  H   H126      1.0  0.7936  0.1971  0.3407  1.0000
  H   H127      1.0  0.8761000000000001  0.3074  0.3929  1.0000
  H   H128      1.0  0.05689999999999998  0.4762  0.3815  1.0000
  H   H129      1.0  0.09300000000000003  0.49  0.4572  1.0000
  H   H130      1.0  0.1927  0.44850000000000007  0.4808  1.0000
  H   H131      1.0  0.28750000000000003  0.4831  0.45300000000000007  1.0000
  H   H132      1.0  0.2423  0.4982  0.3495  1.0000
  H   H133      1.0  0.9992  0.1452  0.18  1.0000
  H   H134      1.0  0.11939999999999996  0.3206  0.3408  1.0000
  H   H135      1.0  0.1875  0.3177  0.354  1.0000
  H   H136      1.0  0.1851  0.3589  0.2896  1.0000
  H   H137      1.0  0.1958  0.38670000000000004  0.2049  1.0000
  H   H138      1.0  0.1436  0.3029  0.09649999999999999  1.0000
  H   H139      1.0  0.0855  0.1926  0.0687  1.0000
  H   H140      1.0  0.9052999999999999  0.0238  0.0807  1.0000
  H   H141      1.0  0.9672000000000001  0.010000000000000002  0.103  1.0000
  H   H142      1.0  0.032299999999999995  0.05149999999999998  0.24419999999999997  1.0000
  H   H143      1.0  0.9698999999999999  0.0169  0.3044  1.0000
  H   H144      1.0  0.8512999999999998  0.0017999999999999744  0.24409999999999998  1.0000
  H   H145      1.0  0.9651999999999998  0.32  0.8192  1.0000
  H   H146      1.0  0.9797999999999999  0.15919999999999995  0.7785999999999998  1.0000
  H   H147      1.0  0.9637  0.14600000000000007  0.8335000000000001  1.0000
  H   H148      1.0  0.0693  0.2104  0.8955  1.0000
  H   H149      1.0  0.1818  0.2951  0.9909  1.0000
  H   H150      1.0  0.20640000000000003  0.4035000000000001  0.0471  1.0000
  H   H151      1.0  0.12390000000000001  0.43130000000000007  0.0168  1.0000
  H   H152      1.0  0.9431  0.4193  0.8246  1.0000
  H   H153      1.0  0.907  0.3970000000000001  0.8642000000000001  1.0000
  H   H154      1.0  0.8073  0.2558  0.7881  1.0000
  H   H155      1.0  0.7125  0.1956  0.6655  1.0000
  H   H156      1.0  0.7577  0.2559  0.6072  1.0000
  H   H157      1.0  0.0008000000000000017  0.14600000000000002  0.6808  1.0000
  H   H158      1.0  0.8806  0.2012  0.7214  1.0000
  H   H159      1.0  0.8124999999999999  0.1302  0.6665  1.0000
  H   H160      1.0  0.8148999999999998  0.1738  0.6045  1.0000
  H   H161      1.0  0.8042  0.1909  0.5091  1.0000
  H   H162      1.0  0.8564  0.1593  0.4529  1.0000
  H   H163      1.0  0.9145  0.1071  0.4832  1.0000
  H   H164      1.0  0.09469999999999999  0.1185  0.6754  1.0000
  H   H165      1.0  0.03280000000000001  0.042799999999999984  0.6358  1.0000
  H   H166      1.0  0.9676999999999999  0.019200000000000005  0.7119  1.0000
  H   H167      1.0  0.030100000000000057  0.04700000000000008  0.8345000000000001  1.0000
  H   H168      1.0  0.1487  0.15049999999999997  0.8928  1.0000
  H   H169      1.0  0.5348  0.354  0.3548  1.0000
  H   H170      1.0  0.5202  0.2988  0.1794  1.0000
  H   H171      1.0  0.5363  0.3698  0.1823  1.0000
  H   H172      1.0  0.43069999999999997  0.3262  0.1411  1.0000
  H   H173      1.0  0.3181999999999999  0.3091  0.11330000000000001  1.0000
  H   H174      1.0  0.2936000000000001  0.3407000000000001  0.1971  1.0000
  H   H175      1.0  0.3761  0.3929  0.3074  1.0000
  H   H176      1.0  0.5569  0.3815  0.4762  1.0000
  H   H177      1.0  0.593  0.4572  0.49  1.0000
  H   H178      1.0  0.6927  0.48080000000000006  0.44849999999999995  1.0000
  H   H179      1.0  0.7875  0.453  0.4831  1.0000
  H   H180      1.0  0.7422999999999997  0.3495  0.4982  1.0000
  H   H181      1.0  0.4992000000000001  0.18000000000000002  0.1452  1.0000
  H   H182      1.0  0.6194  0.3408  0.3206  1.0000
  H   H183      1.0  0.6875000000000001  0.354  0.3177  1.0000
  H   H184      1.0  0.6851  0.2896  0.3589  1.0000
  H   H185      1.0  0.6957999999999999  0.2049  0.3867  1.0000
  H   H186      1.0  0.6436  0.09650000000000002  0.3029  1.0000
  H   H187      1.0  0.5855  0.0687  0.1926  1.0000
  H   H188      1.0  0.4053  0.0807  0.0238  1.0000
  H   H189      1.0  0.4672  0.103  0.01  1.0000
  H   H190      1.0  0.5323  0.2442  0.0515  1.0000
  H   H191      1.0  0.4699  0.3044  0.0169  1.0000
  H   H192      1.0  0.3513  0.24410000000000004  0.0018  1.0000
  H   H193      1.0  0.146  0.18079999999999996  0.5008  1.0000
  H   H194      1.0  0.2012  0.2214  0.3806  1.0000
  H   H195      1.0  0.1302  0.1665  0.3125  1.0000
  H   H196      1.0  0.1738  0.1045  0.3149  1.0000
  H   H197      1.0  0.19090000000000001  0.00909999999999999  0.3042  1.0000
  H   H198      1.0  0.1593  0.9529  0.3564  1.0000
  H   H199      1.0  0.10710000000000001  0.9832  0.4145  1.0000
  H   H200      1.0  0.11850000000000002  0.1754  0.5947  1.0000
  H   H201      1.0  0.042799999999999984  0.1358  0.5328  1.0000
  H   H202      1.0  0.019199999999999995  0.2119  0.4677  1.0000
  H   H203      1.0  0.04699999999999998  0.3345  0.5301  1.0000
  H   H204      1.0  0.15049999999999997  0.3927999999999999  0.6487  1.0000
  H   H205      1.0  0.32  0.3192  0.4652  1.0000
  H   H206      1.0  0.15920000000000004  0.27860000000000007  0.47980000000000006  1.0000
  H   H207      1.0  0.146  0.3335  0.4637  1.0000
  H   H208      1.0  0.2104  0.3955000000000001  0.5693  1.0000
  H   H209      1.0  0.29509999999999986  0.4909  0.6818  1.0000
  H   H210      1.0  0.40349999999999997  0.5471  0.7064  1.0000
  H   H211      1.0  0.43129999999999996  0.5168  0.6239  1.0000
  H   H212      1.0  0.4193  0.3246  0.4431  1.0000
  H   H213      1.0  0.397  0.3642  0.407  1.0000
  H   H214      1.0  0.2558  0.2881  0.3073  1.0000
  H   H215      1.0  0.1956  0.16550000000000004  0.2125  1.0000
  H   H216      1.0  0.2559  0.10720000000000002  0.2577  1.0000
  H   H217      1.0  0.1799999999999999  0.6451999999999999  0.9991999999999999  1.0000
  H   H218      1.0  0.34080000000000005  0.8206  0.11940000000000002  1.0000
  H   H219      1.0  0.354  0.8177  0.1875  1.0000
  H   H220      1.0  0.2896  0.8589  0.1851  1.0000
  H   H221      1.0  0.20489999999999997  0.8867  0.1958  1.0000
  H   H222      1.0  0.09650000000000002  0.8029  0.1436  1.0000
  H   H223      1.0  0.0687  0.6926  0.0855  1.0000
  H   H224      1.0  0.0806999999999999  0.5237999999999999  0.9052999999999999  1.0000
  H   H225      1.0  0.10300000000000002  0.51  0.9672  1.0000
  H   H226      1.0  0.24419999999999997  0.5515  0.0323  1.0000
  H   H227      1.0  0.3044  0.5168999999999999  0.9698999999999999  1.0000
  H   H228      1.0  0.2441  0.5018  0.8513  1.0000
  H   H229      1.0  0.354  0.8548  0.0348  1.0000
  H   H230      1.0  0.2988  0.6794  0.0202  1.0000
  H   H231      1.0  0.3698000000000001  0.6823  0.0363  1.0000
  H   H232      1.0  0.32620000000000005  0.6411000000000001  0.9307000000000001  1.0000
  H   H233      1.0  0.3091  0.6133  0.8182  1.0000
  H   H234      1.0  0.3407  0.6971  0.7936  1.0000
  H   H235      1.0  0.3929  0.8074  0.8761000000000001  1.0000
  H   H236      1.0  0.3815  0.9762  0.056900000000000006  1.0000
  H   H237      1.0  0.45719999999999994  0.9900000000000001  0.093  1.0000
  H   H238      1.0  0.4808  0.9485  0.19269999999999998  1.0000
  H   H239      1.0  0.453  0.9831  0.2875  1.0000
  H   H240      1.0  0.3494999999999999  0.9982  0.2423  1.0000
  H   H241      1.0  0.6452000000000001  0.49920000000000003  0.68  1.0000
  H   H242      1.0  0.8205999999999998  0.6193999999999998  0.8407999999999999  1.0000
  H   H243      1.0  0.8177  0.6875  0.854  1.0000
  H   H244      1.0  0.8588999999999999  0.6851  0.7896  1.0000
  H   H245      1.0  0.8867000000000003  0.6958  0.7049  1.0000
  H   H246      1.0  0.8029000000000001  0.6436  0.5965  1.0000
  H   H247      1.0  0.6926  0.5855  0.5687  1.0000
  H   H248      1.0  0.5238  0.40530000000000005  0.5807  1.0000
  H   H249      1.0  0.51  0.4672  0.603  1.0000
  H   H250      1.0  0.5515  0.5323  0.7442  1.0000
  H   H251      1.0  0.5169  0.46989999999999993  0.8044  1.0000
  H   H252      1.0  0.5018  0.3513000000000001  0.7441  1.0000
  H   H253      1.0  0.8548000000000002  0.5348  0.854  1.0000
  H   H254      1.0  0.6794000000000001  0.5202000000000001  0.7988  1.0000
  H   H255      1.0  0.6823  0.5363  0.8698  1.0000
  H   H256      1.0  0.6411  0.4307  0.8262  1.0000
  H   H257      1.0  0.6133  0.3182  0.8091  1.0000
  H   H258      1.0  0.6970999999999999  0.2936  0.8407  1.0000
  H   H259      1.0  0.8074  0.3761  0.8929  1.0000
  H   H260      1.0  0.9762  0.5569  0.8815000000000001  1.0000
  H   H261      1.0  0.99  0.593  0.9572  1.0000
  H   H262      1.0  0.9485000000000001  0.6927  0.9807999999999999  1.0000
  H   H263      1.0  0.9831  0.7875  0.9529999999999998  1.0000
  H   H264      1.0  0.9982  0.7423  0.8495  1.0000
  H   H265      1.0  0.1808  0.0007999999999999887  0.646  1.0000
  H   H266      1.0  0.2214  0.8806  0.7012  1.0000
  H   H267      1.0  0.1665  0.8125  0.6302  1.0000
  H   H268      1.0  0.10449999999999994  0.8149  0.6738  1.0000
  H   H269      1.0  0.009100000000000025  0.8042  0.6909  1.0000
  H   H270      1.0  0.9528999999999997  0.8564  0.6593  1.0000
  H   H271      1.0  0.9832  0.9145000000000001  0.6071  1.0000
  H   H272      1.0  0.17539999999999997  0.09470000000000002  0.6185  1.0000
  H   H273      1.0  0.13580000000000003  0.03279999999999997  0.5428  1.0000
  H   H274      1.0  0.21189999999999998  0.9677  0.5192  1.0000
  H   H275      1.0  0.3345  0.030099999999999988  0.547  1.0000
  H   H276      1.0  0.3928  0.1487  0.6505  1.0000
  H   H277      1.0  0.3192  0.9652  0.82  1.0000
  H   H278      1.0  0.2786  0.9798  0.6592  1.0000
  H   H279      1.0  0.3335000000000001  0.9637000000000001  0.646  1.0000
  H   H280      1.0  0.3955  0.06929999999999999  0.7104  1.0000
  H   H281      1.0  0.49090000000000006  0.18180000000000007  0.7951  1.0000
  H   H282      1.0  0.5471  0.20640000000000008  0.9035  1.0000
  H   H283      1.0  0.5168000000000003  0.1239  0.9313000000000001  1.0000
  H   H284      1.0  0.32459999999999994  0.9431  0.9192999999999999  1.0000
  H   H285      1.0  0.36419999999999997  0.907  0.8969999999999999  1.0000
  H   H286      1.0  0.2881  0.8073  0.7558  1.0000
  H   H287      1.0  0.16549999999999998  0.7125  0.6956  1.0000
  H   H288      1.0  0.10720000000000002  0.7577  0.7559  1.0000
  C   C1        1.0  0.6518  0.3613  0.1975  1.0000
  C   C2        1.0  0.6428  0.38460000000000005  0.105  1.0000
  C   C3        1.0  0.6645  0.339  0.0825  1.0000
  C   C4        1.0  0.6721  0.3307  0.0234  1.0000
  C   C5        1.0  0.6529  0.3602000000000001  0.9901  1.0000
  C   C6        1.0  0.6229000000000001  0.39670000000000005  0.0102  1.0000
  C   C7        1.0  0.6137  0.4099  0.0648  1.0000
  C   C8        1.0  0.587  0.46010000000000006  0.0855  1.0000
  C   C9        1.0  0.5897  0.5513  0.1704  1.0000
  C   C10       1.0  0.5937  0.5608  0.2311  1.0000
  C   C11       1.0  0.5521  0.5136  0.2439  1.0000
  C   C12       1.0  0.569  0.548  0.3138  1.0000
  C   C13       1.0  0.6267  0.6159  0.3464  1.0000
  C   C14       1.0  0.6638  0.45430000000000004  0.3025  1.0000
  C   C15       1.0  0.7796  0.5378  0.395  1.0000
  C   C16       1.0  0.7564999999999998  0.5819999999999999  0.4175  1.0000
  C   C17       1.0  0.8073  0.6487000000000002  0.4766000000000001  1.0000
  C   C18       1.0  0.8701  0.6628  0.5099  1.0000
  C   C19       1.0  0.8864999999999998  0.6127  0.4898  1.0000
  C   C20       1.0  0.8450999999999999  0.5489  0.4352  1.0000
  C   C21       1.0  0.8746  0.5015  0.4145  1.0000
  C   C22       1.0  0.8809  0.4193  0.3296  1.0000
  C   C23       1.0  0.8297000000000001  0.3625999999999999  0.2689  1.0000
  C   C24       1.0  0.7697  0.3081999999999999  0.2561  1.0000
  C   C25       1.0  0.7342  0.2552  0.1862  1.0000
  C   C26       1.0  0.7694999999999999  0.2803  0.1536  1.0000
  C   C27       1.0  0.8362000000000002  0.1387  0.7905  1.0000
  C   C28       1.0  0.7203999999999999  0.11540000000000002  0.7582  1.0000
  C   C29       1.0  0.7434999999999999  0.16100000000000003  0.8255000000000001  1.0000
  C   C30       1.0  0.6926999999999999  0.16929999999999987  0.8413999999999999  1.0000
  C   C31       1.0  0.6299  0.13979999999999998  0.7927  1.0000
  C   C32       1.0  0.6135000000000003  0.1033000000000001  0.7262  1.0000
  C   C33       1.0  0.6549  0.0901  0.7038  1.0000
  C   C34       1.0  0.6254  0.039900000000000005  0.6269  1.0000
  C   C35       1.0  0.6191  0.9487  0.5384  1.0000
  C   C36       1.0  0.6703  0.9392000000000001  0.5329  1.0000
  C   C37       1.0  0.7303  0.9864  0.5385  1.0000
  C   C38       1.0  0.7658  0.952  0.521  1.0000
  C   C39       1.0  0.7305000000000001  0.8841  0.5108  1.0000
  C   C40       1.0  0.8482  0.045700000000000005  0.7095  1.0000
  C   C41       1.0  0.8572  0.9622  0.7418  1.0000
  C   C42       1.0  0.8355  0.918  0.6745  1.0000
  C   C43       1.0  0.8279  0.8513000000000001  0.6586  1.0000
  C   C44       1.0  0.8470999999999999  0.8372  0.7073  1.0000
  C   C45       1.0  0.8771000000000001  0.8873  0.7738  1.0000
  C   C46       1.0  0.8863  0.9511  0.7962  1.0000
  C   C47       1.0  0.913  0.9985000000000002  0.8730999999999999  1.0000
  C   C48       1.0  0.9103  0.08069999999999994  0.9616  1.0000
  C   C49       1.0  0.9062999999999999  0.13740000000000008  0.9671  1.0000
  C   C50       1.0  0.9478999999999999  0.19179999999999997  0.9614999999999999  1.0000
  C   C51       1.0  0.931  0.2448  0.979  1.0000
  C   C52       1.0  0.8733  0.21969999999999995  0.9891999999999999  1.0000
  C   C53       1.0  0.29049999999999987  0.8362  0.6387  1.0000
  C   C54       1.0  0.25820000000000004  0.7204000000000002  0.6154  1.0000
  C   C55       1.0  0.3255  0.7435  0.661  1.0000
  C   C56       1.0  0.3413999999999999  0.6927  0.6693  1.0000
  C   C57       1.0  0.2927  0.6299  0.6398  1.0000
  C   C58       1.0  0.2262  0.6135  0.6033  1.0000
  C   C59       1.0  0.20379999999999998  0.6549  0.5901  1.0000
  C   C60       1.0  0.1269  0.6254  0.5399  1.0000
  C   C61       1.0  0.03839999999999997  0.6190999999999999  0.44869999999999993  1.0000
  C   C62       1.0  0.03289999999999991  0.6702999999999999  0.4391999999999999  1.0000
  C   C63       1.0  0.038499999999999965  0.7303  0.48639999999999994  1.0000
  C   C64       1.0  0.021000000000000022  0.7658  0.45200000000000007  1.0000
  C   C65       1.0  0.010800000000000046  0.7305  0.3841  1.0000
  C   C66       1.0  0.2094999999999999  0.8482  0.5457  1.0000
  C   C67       1.0  0.24180000000000001  0.8572  0.4622  1.0000
  C   C68       1.0  0.17449999999999996  0.8355  0.418  1.0000
  C   C69       1.0  0.1586  0.8279  0.3513  1.0000
  C   C70       1.0  0.20730000000000004  0.8471000000000001  0.3372  1.0000
  C   C71       1.0  0.2738  0.8771  0.3873  1.0000
  C   C72       1.0  0.2962  0.8863  0.4511  1.0000
  C   C73       1.0  0.37310000000000004  0.913  0.4985  1.0000
  C   C74       1.0  0.46160000000000007  0.9103000000000001  0.5807  1.0000
  C   C75       1.0  0.46710000000000007  0.9063  0.6374  1.0000
  C   C76       1.0  0.46149999999999997  0.9479000000000001  0.6918  1.0000
  C   C77       1.0  0.479  0.931  0.7448  1.0000
  C   C78       1.0  0.4892  0.8733  0.7197  1.0000
  C   C79       1.0  0.6975  0.6518  0.8613  1.0000
  C   C80       1.0  0.6049999999999998  0.6427999999999999  0.8845999999999999  1.0000
  C   C81       1.0  0.5825000000000001  0.6645000000000002  0.839  1.0000
  C   C82       1.0  0.5234  0.6721  0.8307  1.0000
  C   C83       1.0  0.49010000000000004  0.6529000000000001  0.8602000000000001  1.0000
  C   C84       1.0  0.5102  0.6229  0.8967  1.0000
  C   C85       1.0  0.5647999999999999  0.6137  0.9098999999999999  1.0000
  C   C86       1.0  0.5855  0.587  0.9601  1.0000
  C   C87       1.0  0.6704  0.5897  0.0513  1.0000
  C   C88       1.0  0.7311  0.5937  0.06079999999999999  1.0000
  C   C89       1.0  0.7439  0.5521  0.0136  1.0000
  C   C90       1.0  0.8138  0.569  0.048  1.0000
  C   C91       1.0  0.8463999999999999  0.6267  0.11589999999999999  1.0000
  C   C92       1.0  0.8025  0.6638  0.9543  1.0000
  C   C93       1.0  0.8949999999999999  0.7796  0.0378  1.0000
  C   C94       1.0  0.9175  0.7565000000000001  0.082  1.0000
  C   C95       1.0  0.9766  0.8073  0.1487  1.0000
  C   C96       1.0  0.009900000000000016  0.8701  0.1628  1.0000
  C   C97       1.0  0.9897999999999999  0.8865  0.1127  1.0000
  C   C98       1.0  0.9352  0.8451  0.0489  1.0000
  C   C99       1.0  0.9145  0.8746000000000002  0.0015  1.0000
  C   C100      1.0  0.8296000000000001  0.8809000000000001  0.9192999999999999  1.0000
  C   C101      1.0  0.7689  0.8297  0.8626  1.0000
  C   C102      1.0  0.7561  0.7697  0.8082  1.0000
  C   C103      1.0  0.6862  0.7342  0.7552  1.0000
  C   C104      1.0  0.6536000000000001  0.7695000000000001  0.7803  1.0000
  C   C105      1.0  0.45430000000000004  0.8025000000000001  0.1638  1.0000
  C   C106      1.0  0.5378  0.895  0.2796  1.0000
  C   C107      1.0  0.582  0.9175  0.2565  1.0000
  C   C108      1.0  0.6487  0.9766  0.3073  1.0000
  C   C109      1.0  0.6628  0.009899999999999997  0.3701  1.0000
  C   C110      1.0  0.6127  0.9898  0.38649999999999995  1.0000
  C   C111      1.0  0.5489  0.9352  0.3451  1.0000
  C   C112      1.0  0.5015  0.9145000000000001  0.3746  1.0000
  C   C113      1.0  0.4193  0.8296000000000001  0.3809  1.0000
  C   C114      1.0  0.3626  0.7689000000000001  0.3297  1.0000
  C   C115      1.0  0.3082  0.7561  0.2697  1.0000
  C   C116      1.0  0.25519999999999987  0.6862  0.2342  1.0000
  C   C117      1.0  0.2803  0.6536  0.2695  1.0000
  C   C118      1.0  0.36129999999999995  0.6975  0.1518  1.0000
  C   C119      1.0  0.3846  0.605  0.1428  1.0000
  C   C120      1.0  0.339  0.5825  0.1645  1.0000
  C   C121      1.0  0.3307  0.5234  0.1721  1.0000
  C   C122      1.0  0.36019999999999996  0.49010000000000004  0.1529  1.0000
  C   C123      1.0  0.3967  0.5102  0.12289999999999998  1.0000
  C   C124      1.0  0.4099  0.5648  0.1137  1.0000
  C   C125      1.0  0.4601  0.5855  0.087  1.0000
  C   C126      1.0  0.5513  0.6704  0.0897  1.0000
  C   C127      1.0  0.5608  0.7311  0.0937  1.0000
  C   C128      1.0  0.5136000000000001  0.7439000000000001  0.0521  1.0000
  C   C129      1.0  0.548  0.8138  0.069  1.0000
  C   C130      1.0  0.6159  0.8464  0.1267  1.0000
  C   C131      1.0  0.04570000000000001  0.20950000000000002  0.3482  1.0000
  C   C132      1.0  0.9622  0.24180000000000001  0.3572  1.0000
  C   C133      1.0  0.918  0.17449999999999996  0.33549999999999996  1.0000
  C   C134      1.0  0.8513  0.1586  0.3279  1.0000
  C   C135      1.0  0.8372  0.2073  0.3471  1.0000
  C   C136      1.0  0.8873  0.2738000000000001  0.3771  1.0000
  C   C137      1.0  0.9511  0.2962  0.3863  1.0000
  C   C138      1.0  0.9985  0.3731  0.413  1.0000
  C   C139      1.0  0.0807  0.4616  0.4103  1.0000
  C   C140      1.0  0.13739999999999997  0.46710000000000007  0.4063  1.0000
  C   C141      1.0  0.19180000000000003  0.4615000000000001  0.4479  1.0000
  C   C142      1.0  0.24479999999999996  0.479  0.431  1.0000
  C   C143      1.0  0.21969999999999998  0.4892  0.3733  1.0000
  C   C144      1.0  0.1387  0.2905  0.3362  1.0000
  C   C145      1.0  0.11539999999999997  0.2582  0.22039999999999998  1.0000
  C   C146      1.0  0.161  0.3255  0.2435  1.0000
  C   C147      1.0  0.16930000000000003  0.3413999999999999  0.19269999999999998  1.0000
  C   C148      1.0  0.1398  0.2927  0.1299  1.0000
  C   C149      1.0  0.10330000000000002  0.22620000000000004  0.11350000000000002  1.0000
  C   C150      1.0  0.09010000000000001  0.20380000000000004  0.1549  1.0000
  C   C151      1.0  0.03989999999999999  0.1269  0.1254  1.0000
  C   C152      1.0  0.9487  0.03839999999999999  0.1191  1.0000
  C   C153      1.0  0.9391999999999999  0.0329  0.1703  1.0000
  C   C154      1.0  0.9863999999999999  0.038499999999999986  0.23029999999999998  1.0000
  C   C155      1.0  0.9520000000000002  0.021000000000000036  0.2658  1.0000
  C   C156      1.0  0.8841  0.010800000000000004  0.2305  1.0000
  C   C157      1.0  0.9543  0.1638  0.8025  1.0000
  C   C158      1.0  0.03779999999999992  0.27959999999999985  0.8949999999999999  1.0000
  C   C159      1.0  0.08199999999999995  0.2565  0.9175  1.0000
  C   C160      1.0  0.1487  0.3073  0.9766  1.0000
  C   C161      1.0  0.1628  0.3701  0.0099  1.0000
  C   C162      1.0  0.11269999999999995  0.38649999999999984  0.9897999999999999  1.0000
  C   C163      1.0  0.048899999999999944  0.34509999999999996  0.9351999999999999  1.0000
  C   C164      1.0  0.0014999999999999857  0.3746  0.9145  1.0000
  C   C165      1.0  0.9193000000000001  0.38090000000000007  0.8296  1.0000
  C   C166      1.0  0.8625999999999999  0.3297  0.7689  1.0000
  C   C167      1.0  0.8082  0.2697  0.7561  1.0000
  C   C168      1.0  0.7552  0.2342  0.6862  1.0000
  C   C169      1.0  0.7803000000000001  0.2695  0.6536  1.0000
  C   C170      1.0  0.8613  0.15180000000000002  0.6975  1.0000
  C   C171      1.0  0.8846  0.14280000000000007  0.605  1.0000
  C   C172      1.0  0.8389999999999999  0.1645  0.5825  1.0000
  C   C173      1.0  0.8307  0.1721  0.5234  1.0000
  C   C174      1.0  0.8601999999999999  0.15289999999999995  0.4900999999999999  1.0000
  C   C175      1.0  0.8967  0.1229  0.5102  1.0000
  C   C176      1.0  0.9099  0.11370000000000001  0.5648  1.0000
  C   C177      1.0  0.9601  0.08700000000000006  0.5855  1.0000
  C   C178      1.0  0.05130000000000003  0.08970000000000002  0.6704  1.0000
  C   C179      1.0  0.06079999999999998  0.09369999999999995  0.7311  1.0000
  C   C180      1.0  0.013600000000000034  0.05210000000000007  0.7439  1.0000
  C   C181      1.0  0.048  0.069  0.8138  1.0000
  C   C182      1.0  0.11590000000000004  0.1267  0.8464000000000002  1.0000
  C   C183      1.0  0.5457  0.3482  0.2095  1.0000
  C   C184      1.0  0.4622  0.3572000000000001  0.2418  1.0000
  C   C185      1.0  0.41800000000000004  0.3355  0.1745  1.0000
  C   C186      1.0  0.3513  0.3279  0.1586  1.0000
  C   C187      1.0  0.3372  0.3471  0.2073  1.0000
  C   C188      1.0  0.3873  0.3771  0.2738  1.0000
  C   C189      1.0  0.4511  0.3862999999999999  0.2962  1.0000
  C   C190      1.0  0.4985  0.41300000000000003  0.3731  1.0000
  C   C191      1.0  0.5806999999999998  0.41029999999999994  0.46159999999999995  1.0000
  C   C192      1.0  0.6373999999999999  0.4063  0.46709999999999996  1.0000
  C   C193      1.0  0.6918  0.4479  0.4615  1.0000
  C   C194      1.0  0.7448  0.431  0.47900000000000004  1.0000
  C   C195      1.0  0.7196999999999999  0.3733  0.48919999999999997  1.0000
  C   C196      1.0  0.6387  0.3362  0.2905  1.0000
  C   C197      1.0  0.6154  0.22040000000000004  0.2582  1.0000
  C   C198      1.0  0.661  0.2435  0.3255  1.0000
  C   C199      1.0  0.6692999999999998  0.1927  0.3414  1.0000
  C   C200      1.0  0.6398  0.1299  0.2927  1.0000
  C   C201      1.0  0.6033  0.1135  0.2262  1.0000
  C   C202      1.0  0.5901  0.15490000000000004  0.2038  1.0000
  C   C203      1.0  0.5399000000000002  0.1254  0.1269  1.0000
  C   C204      1.0  0.4487  0.11909999999999998  0.0384  1.0000
  C   C205      1.0  0.4392  0.1703  0.0329  1.0000
  C   C206      1.0  0.4864  0.23030000000000003  0.0385  1.0000
  C   C207      1.0  0.452  0.2658  0.021  1.0000
  C   C208      1.0  0.3841  0.23050000000000004  0.0108  1.0000
  C   C209      1.0  0.15179999999999996  0.19749999999999998  0.36129999999999995  1.0000
  C   C210      1.0  0.1428  0.105  0.3846  1.0000
  C   C211      1.0  0.1645  0.08249999999999999  0.339  1.0000
  C   C212      1.0  0.1721  0.023400000000000004  0.3307  1.0000
  C   C213      1.0  0.15290000000000004  0.9901  0.36019999999999996  1.0000
  C   C214      1.0  0.1229  0.010199999999999973  0.3967  1.0000
  C   C215      1.0  0.11370000000000004  0.06480000000000002  0.4099  1.0000
  C   C216      1.0  0.087  0.08550000000000005  0.4601  1.0000
  C   C217      1.0  0.08970000000000004  0.1704  0.5513  1.0000
  C   C218      1.0  0.09370000000000003  0.23110000000000003  0.5608  1.0000
  C   C219      1.0  0.05209999999999999  0.2439  0.5136  1.0000
  C   C220      1.0  0.069  0.3138  0.548  1.0000
  C   C221      1.0  0.12669999999999998  0.3464  0.6159  1.0000
  C   C222      1.0  0.16380000000000003  0.3025  0.4543  1.0000
  C   C223      1.0  0.2796  0.395  0.5378  1.0000
  C   C224      1.0  0.2565  0.4175  0.582  1.0000
  C   C225      1.0  0.3073000000000001  0.4766000000000001  0.6487  1.0000
  C   C226      1.0  0.3701  0.5099  0.6628  1.0000
  C   C227      1.0  0.3865  0.4898  0.6127  1.0000
  C   C228      1.0  0.34509999999999996  0.4352  0.5489  1.0000
  C   C229      1.0  0.3746  0.4145  0.5015  1.0000
  C   C230      1.0  0.3809  0.32960000000000006  0.4193  1.0000
  C   C231      1.0  0.3297  0.2689  0.3626  1.0000
  C   C232      1.0  0.2697  0.2561  0.3082  1.0000
  C   C233      1.0  0.2342  0.1862  0.2552  1.0000
  C   C234      1.0  0.2695  0.1536  0.2803  1.0000
  C   C235      1.0  0.3362  0.7905  0.1387  1.0000
  C   C236      1.0  0.22039999999999998  0.7582  0.11539999999999999  1.0000
  C   C237      1.0  0.2435  0.8255  0.161  1.0000
  C   C238      1.0  0.1927  0.8414  0.1693  1.0000
  C   C239      1.0  0.1299000000000001  0.7927000000000001  0.1398  1.0000
  C   C240      1.0  0.1135  0.7262  0.10329999999999999  1.0000
  C   C241      1.0  0.15489999999999993  0.7037999999999999  0.0901  1.0000
  C   C242      1.0  0.1254  0.6269  0.0399  1.0000
  C   C243      1.0  0.11909999999999994  0.5384  0.9487  1.0000
  C   C244      1.0  0.17029999999999995  0.5328999999999999  0.9391999999999999  1.0000
  C   C245      1.0  0.2303  0.5384999999999999  0.9863999999999999  1.0000
  C   C246      1.0  0.26580000000000004  0.521  0.9519999999999998  1.0000
  C   C247      1.0  0.23050000000000007  0.5108000000000001  0.8841000000000001  1.0000
  C   C248      1.0  0.3482  0.7095  0.0457  1.0000
  C   C249      1.0  0.3572  0.7418000000000001  0.9622  1.0000
  C   C250      1.0  0.3355  0.6745  0.918  1.0000
  C   C251      1.0  0.3279  0.6586  0.8513  1.0000
  C   C252      1.0  0.3471  0.7073  0.8372  1.0000
  C   C253      1.0  0.37710000000000005  0.7738000000000002  0.8873  1.0000
  C   C254      1.0  0.3863  0.7962000000000001  0.9511  1.0000
  C   C255      1.0  0.4130000000000001  0.8731000000000001  0.9985  1.0000
  C   C256      1.0  0.41030000000000005  0.9616000000000001  0.0807  1.0000
  C   C257      1.0  0.4063  0.9671  0.1374  1.0000
  C   C258      1.0  0.4479  0.9615  0.1918  1.0000
  C   C259      1.0  0.4309999999999999  0.9789999999999998  0.24479999999999996  1.0000
  C   C260      1.0  0.3733  0.9892  0.2197  1.0000
  C   C261      1.0  0.7905  0.6387  0.8362  1.0000
  C   C262      1.0  0.7581999999999999  0.6154  0.7203999999999999  1.0000
  C   C263      1.0  0.8254999999999999  0.661  0.7435  1.0000
  C   C264      1.0  0.8414  0.6693  0.6927  1.0000
  C   C265      1.0  0.7927  0.6398  0.6299  1.0000
  C   C266      1.0  0.7262  0.6033  0.6135  1.0000
  C   C267      1.0  0.7038  0.5901  0.6549  1.0000
  C   C268      1.0  0.6269  0.5399  0.6254  1.0000
  C   C269      1.0  0.5384  0.4487  0.6191  1.0000
  C   C270      1.0  0.5329  0.4392  0.6703  1.0000
  C   C271      1.0  0.5385  0.48640000000000005  0.7303  1.0000
  C   C272      1.0  0.5210000000000001  0.45200000000000007  0.7658  1.0000
  C   C273      1.0  0.5108  0.3841  0.7305  1.0000
  C   C274      1.0  0.7095  0.5457000000000001  0.8481999999999998  1.0000
  C   C275      1.0  0.7418000000000002  0.4622000000000001  0.8572000000000001  1.0000
  C   C276      1.0  0.6745  0.418  0.8355000000000001  1.0000
  C   C277      1.0  0.6586000000000001  0.3513  0.8278999999999999  1.0000
  C   C278      1.0  0.7073  0.33719999999999994  0.8471  1.0000
  C   C279      1.0  0.7738  0.38730000000000003  0.8771000000000001  1.0000
  C   C280      1.0  0.7961999999999997  0.4511  0.8863  1.0000
  C   C281      1.0  0.8731  0.4985  0.913  1.0000
  C   C282      1.0  0.9616  0.5807  0.9102999999999999  1.0000
  C   C283      1.0  0.9671000000000001  0.6374  0.9062999999999999  1.0000
  C   C284      1.0  0.9615  0.6918  0.9479  1.0000
  C   C285      1.0  0.9790000000000001  0.7448  0.931  1.0000
  C   C286      1.0  0.9892  0.7197000000000001  0.8733  1.0000
  C   C287      1.0  0.1975000000000001  0.8613  0.6518  1.0000
  C   C288      1.0  0.10499999999999997  0.8846  0.6428  1.0000
  C   C289      1.0  0.08250000000000003  0.8390000000000001  0.6645  1.0000
  C   C290      1.0  0.0234  0.8307  0.6721  1.0000
  C   C291      1.0  0.9901  0.8602  0.6529  1.0000
  C   C292      1.0  0.010200000000000051  0.8967000000000002  0.6229  1.0000
  C   C293      1.0  0.06479999999999998  0.9099  0.6137  1.0000
  C   C294      1.0  0.0855  0.9601  0.587  1.0000
  C   C295      1.0  0.17040000000000002  0.051300000000000005  0.5897  1.0000
  C   C296      1.0  0.2311  0.06080000000000001  0.5937  1.0000
  C   C297      1.0  0.2439  0.013600000000000004  0.5521  1.0000
  C   C298      1.0  0.3138  0.04799999999999999  0.569  1.0000
  C   C299      1.0  0.3464  0.11590000000000003  0.6267  1.0000
  C   C300      1.0  0.3025  0.9543000000000001  0.6638  1.0000
  C   C301      1.0  0.395  0.037800000000000014  0.7796  1.0000
  C   C302      1.0  0.41750000000000004  0.08200000000000006  0.7565  1.0000
  C   C303      1.0  0.47659999999999997  0.1487  0.8073  1.0000
  C   C304      1.0  0.5099  0.16279999999999994  0.8700999999999999  1.0000
  C   C305      1.0  0.48980000000000007  0.11270000000000012  0.8865000000000001  1.0000
  C   C306      1.0  0.4351999999999999  0.04889999999999996  0.8451  1.0000
  C   C307      1.0  0.4145  0.0014999999999999588  0.8745999999999999  1.0000
  C   C308      1.0  0.3296  0.9193  0.8809  1.0000
  C   C309      1.0  0.26890000000000003  0.8626000000000001  0.8297  1.0000
  C   C310      1.0  0.2561  0.8082000000000001  0.7697  1.0000
  C   C311      1.0  0.1862  0.7552  0.7342  1.0000
  C   C312      1.0  0.1536  0.7803  0.7695  1.0000
  C   C313      1.0  0.625  0.375  0.25  1.0000
  C   C314      1.0  0.875  0.125  0.75  1.0000
  C   C315      1.0  0.25  0.875  0.625  1.0000
  C   C316      1.0  0.75  0.6249999999999999  0.8749999999999999  1.0000
  C   C317      1.0  0.375  0.75  0.125  1.0000
  C   C318      1.0  0.125  0.25  0.375  1.0000
  N   N1        1.0  0.6147  0.5017  0.1504  1.0000
  N   N2        1.0  0.3474000000000001  0.3617  0.9641  1.0000
  N   N3        1.0  0.8513  0.46430000000000005  0.3496  1.0000
  N   N4        1.0  0.8976  0.3833  0.5359  1.0000
  N   N5        1.0  0.6486999999999998  0.9983  0.613  1.0000
  N   N6        1.0  0.6024  0.13829999999999998  0.48569999999999997  1.0000
  N   N7        1.0  0.8853  0.03569999999999999  0.8869999999999999  1.0000
  N   N8        1.0  0.1526  0.1167  0.0143  1.0000
  N   N9        1.0  0.11300000000000004  0.6487000000000002  0.4983  1.0000
  N   N10       1.0  0.9857  0.6024  0.6383  1.0000
  N   N11       1.0  0.387  0.8853  0.5357  1.0000
  N   N12       1.0  0.5143000000000001  0.15260000000000007  0.6167  1.0000
  N   N13       1.0  0.6504000000000001  0.6147  0.0017  1.0000
  N   N14       1.0  0.46409999999999996  0.34739999999999993  0.8616999999999999  1.0000
  N   N15       1.0  0.8496000000000001  0.8513000000000001  0.9643  1.0000
  N   N16       1.0  0.035899999999999994  0.8976  0.8833  1.0000
  N   N17       1.0  0.4643  0.8496000000000001  0.3513  1.0000
  N   N18       1.0  0.3833  0.03590000000000004  0.3976  1.0000
  N   N19       1.0  0.5017  0.6504  0.1147  1.0000
  N   N20       1.0  0.3617000000000001  0.4641  0.8474000000000002  1.0000
  N   N21       1.0  0.035699999999999975  0.387  0.3853  1.0000
  N   N22       1.0  0.1167  0.5143  0.6526  1.0000
  N   N23       1.0  0.9983  0.11300000000000002  0.1487  1.0000
  N   N24       1.0  0.13830000000000006  0.9857  0.1024  1.0000
  N   N25       1.0  0.9643000000000002  0.3513  0.8496  1.0000
  N   N26       1.0  0.8833  0.39760000000000006  0.0359  1.0000
  N   N27       1.0  0.0016999999999999604  0.11469999999999997  0.6504  1.0000
  N   N28       1.0  0.8617  0.8474  0.46409999999999996  1.0000
  N   N29       1.0  0.5356999999999997  0.3853  0.387  1.0000
  N   N30       1.0  0.6166999999999999  0.6525999999999998  0.5143  1.0000
  N   N31       1.0  0.4983  0.1487  0.11300000000000002  1.0000
  N   N32       1.0  0.6383  0.10240000000000005  0.9857  1.0000
  N   N33       1.0  0.11470000000000002  0.1504  0.5017  1.0000
  N   N34       1.0  0.8474000000000002  0.9641  0.3617  1.0000
  N   N35       1.0  0.35129999999999995  0.3495999999999999  0.46429999999999993  1.0000
  N   N36       1.0  0.3976  0.5359  0.3833  1.0000
  N   N37       1.0  0.1487  0.613  0.9983  1.0000
  N   N38       1.0  0.1024  0.4857  0.1383  1.0000
  N   N39       1.0  0.3853  0.887  0.0357  1.0000
  N   N40       1.0  0.6526  0.014299999999999995  0.11669999999999998  1.0000
  N   N41       1.0  0.613  0.4983  0.6487  1.0000
  N   N42       1.0  0.48569999999999997  0.6383  0.6024  1.0000
  N   N43       1.0  0.887  0.5357  0.8853  1.0000
  N   N44       1.0  0.014300000000000012  0.6167  0.1526  1.0000
  N   N45       1.0  0.1504  0.0016999999999999956  0.6147  1.0000
  N   N46       1.0  0.9641  0.8617  0.3474  1.0000
  N   N47       1.0  0.3496  0.9643  0.8513  1.0000
  N   N48       1.0  0.5359  0.8833000000000001  0.8976  1.0000
  O   O1        1.0  0.5454  0.4626  0.0406  1.0000
  O   O2        1.0  0.6407  0.624  0.2951  1.0000
  O   O3        1.0  0.6323  0.39580000000000004  0.1603  1.0000
  O   O4        1.0  0.40869999999999995  0.38670000000000004  0.006  1.0000
  O   O5        1.0  0.3325  0.3829  0.9234  1.0000
  O   O6        1.0  0.3011  0.3217999999999999  0.9693  1.0000
  O   O7        1.0  0.922  0.5048  0.4594  1.0000
  O   O8        1.0  0.8288999999999999  0.3456  0.2049  1.0000
  O   O9        1.0  0.7355  0.47200000000000003  0.3397  1.0000
  O   O10       1.0  0.8807  0.40270000000000006  0.494  1.0000
  O   O11       1.0  0.9595  0.4091  0.5766  1.0000
  O   O12       1.0  0.8525  0.3318  0.5307  1.0000
  O   O13       1.0  0.578  0.037400000000000024  0.5828  1.0000
  O   O14       1.0  0.6711  0.876  0.5167  1.0000
  O   O15       1.0  0.7645  0.10419999999999999  0.7365  1.0000
  O   O16       1.0  0.6193000000000001  0.11329999999999996  0.522  1.0000
  O   O17       1.0  0.5405  0.11709999999999995  0.4496  1.0000
  O   O18       1.0  0.6475  0.17820000000000003  0.47930000000000006  1.0000
  O   O19       1.0  0.9546  0.9952  0.9172  1.0000
  O   O20       1.0  0.8593  0.1544000000000001  0.9833000000000001  1.0000
  O   O21       1.0  0.8677  0.02799999999999996  0.7635  1.0000
  O   O22       1.0  0.0913  0.09729999999999998  0.978  1.0000
  O   O23       1.0  0.1675  0.0909  0.0504  1.0000
  O   O24       1.0  0.1989  0.16820000000000002  0.0207  1.0000
  O   O25       1.0  0.08280000000000003  0.578  0.5374  1.0000
  O   O26       1.0  0.016700000000000027  0.6711  0.376  1.0000
  O   O27       1.0  0.2365  0.7645  0.6042  1.0000
  O   O28       1.0  0.022000000000000013  0.6193  0.6133  1.0000
  O   O29       1.0  0.9496  0.5405  0.6171  1.0000
  O   O30       1.0  0.9793  0.6475  0.6782  1.0000
  O   O31       1.0  0.4172  0.9546000000000001  0.4952  1.0000
  O   O32       1.0  0.4833  0.8593  0.6544  1.0000
  O   O33       1.0  0.2635  0.8677  0.528  1.0000
  O   O34       1.0  0.478  0.09129999999999999  0.5973  1.0000
  O   O35       1.0  0.5504  0.1675  0.5909  1.0000
  O   O36       1.0  0.5207  0.1989  0.6682  1.0000
  O   O37       1.0  0.5406000000000001  0.5454000000000001  0.9626  1.0000
  O   O38       1.0  0.7951000000000001  0.6407  0.124  1.0000
  O   O39       1.0  0.6603  0.6323  0.8958  1.0000
  O   O40       1.0  0.5060000000000001  0.4087000000000001  0.8867  1.0000
  O   O41       1.0  0.4234  0.3325  0.8829  1.0000
  O   O42       1.0  0.4693  0.3011  0.8218  1.0000
  O   O43       1.0  0.9594  0.9220000000000002  0.0048  1.0000
  O   O44       1.0  0.7048999999999999  0.8289  0.8456  1.0000
  O   O45       1.0  0.8397  0.7355000000000002  0.972  1.0000
  O   O46       1.0  0.994  0.8807  0.9027  1.0000
  O   O47       1.0  0.07660000000000002  0.9595000000000001  0.9091  1.0000
  O   O48       1.0  0.030699999999999967  0.8524999999999999  0.8317999999999999  1.0000
  O   O49       1.0  0.5048  0.9594  0.422  1.0000
  O   O50       1.0  0.34559999999999996  0.7049000000000002  0.3289  1.0000
  O   O51       1.0  0.47199999999999986  0.8396999999999998  0.23549999999999996  1.0000
  O   O52       1.0  0.40270000000000006  0.9939999999999999  0.3807  1.0000
  O   O53       1.0  0.4091  0.07660000000000004  0.4595  1.0000
  O   O54       1.0  0.3318  0.030699999999999998  0.3525  1.0000
  O   O55       1.0  0.46259999999999996  0.5406  0.0454  1.0000
  O   O56       1.0  0.624  0.7951  0.1407  1.0000
  O   O57       1.0  0.39579999999999993  0.6603  0.1323  1.0000
  O   O58       1.0  0.3866999999999999  0.5059999999999999  0.9086999999999998  1.0000
  O   O59       1.0  0.3829000000000001  0.4234000000000001  0.8325000000000001  1.0000
  O   O60       1.0  0.3218  0.4693  0.8011  1.0000
  O   O61       1.0  0.9952000000000001  0.4172  0.4546  1.0000
  O   O62       1.0  0.1544  0.4833  0.3593  1.0000
  O   O63       1.0  0.02800000000000001  0.2635  0.3677  1.0000
  O   O64       1.0  0.09730000000000003  0.47800000000000004  0.5913  1.0000
  O   O65       1.0  0.09090000000000006  0.5504  0.6675  1.0000
  O   O66       1.0  0.1682  0.5207  0.6989  1.0000
  O   O67       1.0  0.0374  0.0828  0.078  1.0000
  O   O68       1.0  0.876  0.0167  0.1711  1.0000
  O   O69       1.0  0.10419999999999999  0.2365  0.2645  1.0000
  O   O70       1.0  0.1133  0.022  0.1193  1.0000
  O   O71       1.0  0.1171  0.9496  0.0405  1.0000
  O   O72       1.0  0.17820000000000005  0.9793000000000001  0.1475  1.0000
  O   O73       1.0  0.004799999999999992  0.42200000000000004  0.9594  1.0000
  O   O74       1.0  0.8456  0.3289  0.7049  1.0000
  O   O75       1.0  0.972  0.2355  0.8397  1.0000
  O   O76       1.0  0.9027  0.38070000000000004  0.994  1.0000
  O   O77       1.0  0.9091  0.4595  0.0766  1.0000
  O   O78       1.0  0.8318  0.3525  0.030699999999999998  1.0000
  O   O79       1.0  0.9626  0.04539999999999999  0.5406  1.0000
  O   O80       1.0  0.12400000000000003  0.14070000000000008  0.7951  1.0000
  O   O81       1.0  0.8958  0.1323  0.6603  1.0000
  O   O82       1.0  0.8866999999999998  0.9087  0.506  1.0000
  O   O83       1.0  0.8828999999999998  0.8325  0.42339999999999994  1.0000
  O   O84       1.0  0.8217999999999998  0.8010999999999998  0.46929999999999994  1.0000
  O   O85       1.0  0.4952  0.4546  0.41719999999999996  1.0000
  O   O86       1.0  0.6544  0.35930000000000006  0.4833  1.0000
  O   O87       1.0  0.528  0.3677  0.2635  1.0000
  O   O88       1.0  0.5973  0.5913  0.47800000000000004  1.0000
  O   O89       1.0  0.5909  0.6675  0.5504  1.0000
  O   O90       1.0  0.6682  0.6989  0.5207  1.0000
  O   O91       1.0  0.5374  0.078  0.0828  1.0000
  O   O92       1.0  0.376  0.1711  0.0167  1.0000
  O   O93       1.0  0.6041999999999998  0.26449999999999996  0.23649999999999996  1.0000
  O   O94       1.0  0.6133  0.1193  0.022  1.0000
  O   O95       1.0  0.6171000000000001  0.04050000000000008  0.9495999999999999  1.0000
  O   O96       1.0  0.6781999999999999  0.14749999999999994  0.9792999999999998  1.0000
  O   O97       1.0  0.04539999999999996  0.040599999999999935  0.46259999999999996  1.0000
  O   O98       1.0  0.1407  0.2951  0.624  1.0000
  O   O99       1.0  0.1323  0.1603  0.3958  1.0000
  O   O100      1.0  0.9086999999999998  0.005999999999999994  0.3867  1.0000
  O   O101      1.0  0.8325  0.9234  0.3829  1.0000
  O   O102      1.0  0.8011  0.9693  0.3218  1.0000
  O   O103      1.0  0.422  0.4594  0.5048  1.0000
  O   O104      1.0  0.3289  0.2049  0.3456  1.0000
  O   O105      1.0  0.2355  0.3397  0.4719999999999999  1.0000
  O   O106      1.0  0.3806999999999999  0.494  0.4027  1.0000
  O   O107      1.0  0.4595  0.5766  0.4091  1.0000
  O   O108      1.0  0.3525  0.5307000000000002  0.3318  1.0000
  O   O109      1.0  0.078  0.5828  0.0374  1.0000
  O   O110      1.0  0.17110000000000009  0.5167000000000002  0.8759999999999999  1.0000
  O   O111      1.0  0.2645  0.7365  0.1042  1.0000
  O   O112      1.0  0.11930000000000002  0.522  0.11330000000000001  1.0000
  O   O113      1.0  0.0405  0.4496  0.1171  1.0000
  O   O114      1.0  0.1475  0.4793  0.1782  1.0000
  O   O115      1.0  0.4546  0.9172  0.9951999999999999  1.0000
  O   O116      1.0  0.3593  0.9833000000000001  0.1544  1.0000
  O   O117      1.0  0.36769999999999997  0.7635000000000001  0.027999999999999997  1.0000
  O   O118      1.0  0.5913  0.978  0.0973  1.0000
  O   O119      1.0  0.6675  0.05040000000000001  0.0909  1.0000
  O   O120      1.0  0.6989  0.020700000000000003  0.1682  1.0000
  O   O121      1.0  0.5828  0.5374  0.578  1.0000
  O   O122      1.0  0.5167  0.37600000000000006  0.6711  1.0000
  O   O123      1.0  0.7365  0.6042  0.7645  1.0000
  O   O124      1.0  0.522  0.6133  0.6193  1.0000
  O   O125      1.0  0.44960000000000006  0.6171  0.5405  1.0000
  O   O126      1.0  0.47929999999999995  0.6782  0.6475  1.0000
  O   O127      1.0  0.9172000000000002  0.4952000000000001  0.9546000000000001  1.0000
  O   O128      1.0  0.9833  0.6544  0.8593  1.0000
  O   O129      1.0  0.7634999999999998  0.5279999999999999  0.8676999999999999  1.0000
  O   O130      1.0  0.9779999999999999  0.5973  0.0913  1.0000
  O   O131      1.0  0.0504  0.5909  0.1675  1.0000
  O   O132      1.0  0.02069999999999999  0.6682  0.1989  1.0000
  O   O133      1.0  0.04059999999999998  0.9626  0.5454  1.0000
  O   O134      1.0  0.2951  0.12399999999999997  0.6407  1.0000
  O   O135      1.0  0.16030000000000003  0.8958  0.6323  1.0000
  O   O136      1.0  0.005999999999999943  0.8867  0.4087  1.0000
  O   O137      1.0  0.9234  0.8829  0.3325  1.0000
  O   O138      1.0  0.9693  0.8218000000000001  0.3011  1.0000
  O   O139      1.0  0.4593999999999999  0.004800000000000011  0.922  1.0000
  O   O140      1.0  0.20490000000000003  0.8456  0.8289000000000001  1.0000
  O   O141      1.0  0.33970000000000006  0.972  0.7355  1.0000
  O   O142      1.0  0.49400000000000005  0.9027000000000002  0.8807000000000001  1.0000
  O   O143      1.0  0.5766  0.9091  0.9594999999999999  1.0000
  O   O144      1.0  0.5307  0.8318  0.8525  1.0000
