data_image0
_chemical_formula_structural       Cu48H192C408O192
_chemical_formula_sum              "Cu48 H192 C408 O192"
_cell_length_a       22.627
_cell_length_b       32.868
_cell_length_c       32.868
_cell_angle_alpha    90.0
_cell_angle_beta     90.0
_cell_angle_gamma    90.0

_symmetry_space_group_name_H-M    'P 1'
_symmetry_Int_Tables_number       1

loop_
  _symmetry_equiv_pos_as_xyz
  'x,y,z'

loop_
  _atom_site_type_symbol
  _atom_site_label
  _atom_site_symmetry_multiplicity
  _atom_site_fract_x
  _atom_site_fract_y
  _atom_site_fract_z
  _atom_site_occupancy
  Cu  Cu1       1.0  0.7501900000000002  0.8298600000000003  0.0  1.0000
  Cu  Cu2       1.0  0.8309500000000002  0.7727000000000003  0.0  1.0000
  Cu  Cu3       1.0  0.7501900000000002  0.17014000000000007  0.0  1.0000
  Cu  Cu4       1.0  0.8309500000000002  0.22730000000000006  0.0  1.0000
  Cu  Cu5       1.0  0.7501900000000002  0.0  0.8298600000000003  1.0000
  Cu  Cu6       1.0  0.8309500000000002  0.0  0.7727000000000003  1.0000
  Cu  Cu7       1.0  0.7501900000000002  0.0  0.17014000000000007  1.0000
  Cu  Cu8       1.0  0.8309500000000002  0.0  0.22730000000000006  1.0000
  Cu  Cu9       1.0  0.24981000000000003  0.17014000000000007  0.0  1.0000
  Cu  Cu10      1.0  0.16905000000000003  0.22730000000000006  0.0  1.0000
  Cu  Cu11      1.0  0.24981000000000003  0.8298600000000003  0.0  1.0000
  Cu  Cu12      1.0  0.16905000000000003  0.7727000000000003  0.0  1.0000
  Cu  Cu13      1.0  0.24981000000000003  0.0  0.8298600000000003  1.0000
  Cu  Cu14      1.0  0.16905000000000003  0.0  0.7727000000000003  1.0000
  Cu  Cu15      1.0  0.24981000000000003  0.0  0.17014000000000007  1.0000
  Cu  Cu16      1.0  0.16905000000000003  0.0  0.22730000000000006  1.0000
  Cu  Cu17      1.0  0.5  0.77022  0.77022  1.0000
  Cu  Cu18      1.0  0.5  0.8268  0.8268  1.0000
  Cu  Cu19      1.0  0.5  0.22978  0.22978  1.0000
  Cu  Cu20      1.0  0.5  0.1732  0.1732  1.0000
  Cu  Cu21      1.0  0.5  0.22978  0.77022  1.0000
  Cu  Cu22      1.0  0.5  0.1732  0.8268  1.0000
  Cu  Cu23      1.0  0.5  0.77022  0.22978  1.0000
  Cu  Cu24      1.0  0.5  0.8268  0.1732  1.0000
  Cu  Cu25      1.0  0.83192  0.66151  0.66151  1.0000
  Cu  Cu26      1.0  0.75205  0.62071  0.62071  1.0000
  Cu  Cu27      1.0  0.83192  0.33849  0.33849  1.0000
  Cu  Cu28      1.0  0.75205  0.3792900000000001  0.3792900000000001  1.0000
  Cu  Cu29      1.0  0.83192  0.33849  0.66151  1.0000
  Cu  Cu30      1.0  0.75205  0.3792900000000001  0.62071  1.0000
  Cu  Cu31      1.0  0.83192  0.66151  0.33849  1.0000
  Cu  Cu32      1.0  0.75205  0.62071  0.3792900000000001  1.0000
  Cu  Cu33      1.0  0.16808  0.33849  0.66151  1.0000
  Cu  Cu34      1.0  0.24795000000000003  0.3792900000000001  0.62071  1.0000
  Cu  Cu35      1.0  0.16808  0.66151  0.33849  1.0000
  Cu  Cu36      1.0  0.24795000000000003  0.62071  0.3792900000000001  1.0000
  Cu  Cu37      1.0  0.16808  0.66151  0.66151  1.0000
  Cu  Cu38      1.0  0.24795000000000003  0.62071  0.62071  1.0000
  Cu  Cu39      1.0  0.16808  0.33849  0.33849  1.0000
  Cu  Cu40      1.0  0.24795000000000003  0.3792900000000001  0.3792900000000001  1.0000
  Cu  Cu41      1.0  0.5  0.5  0.7406900000000002  1.0000
  Cu  Cu42      1.0  0.5  0.5  0.8204800000000002  1.0000
  Cu  Cu43      1.0  0.5  0.5  0.25931  1.0000
  Cu  Cu44      1.0  0.5  0.5  0.17952  1.0000
  Cu  Cu45      1.0  0.5  0.25931  0.5  1.0000
  Cu  Cu46      1.0  0.5  0.17952  0.5  1.0000
  Cu  Cu47      1.0  0.5  0.7406900000000002  0.5  1.0000
  Cu  Cu48      1.0  0.5  0.8204800000000002  0.5  1.0000
  H   H1        1.0  0.6416  0.7869  0.9020000000000002  1.0000
  H   H2        1.0  0.6321000000000001  0.688  0.8277  1.0000
  H   H3        1.0  0.7545  0.693  0.9145  1.0000
  H   H4        1.0  0.6413000000000001  0.5830000000000002  0.7199000000000002  1.0000
  H   H5        1.0  0.629  0.5908  0.8420000000000002  1.0000
  H   H6        1.0  0.7551000000000002  0.6527000000000002  0.781  1.0000
  H   H7        1.0  0.7043  0.6222000000000002  0.8807  1.0000
  H   H8        1.0  0.7613  0.6395000000000002  0.8601  1.0000
  H   H9        1.0  0.9410000000000002  0.8139  0.09860000000000002  1.0000
  H   H10       1.0  0.9347  0.5619  0.7085  1.0000
  H   H11       1.0  0.6416  0.2131  0.098  1.0000
  H   H12       1.0  0.6321000000000001  0.312  0.17230000000000006  1.0000
  H   H13       1.0  0.7545  0.307  0.0855  1.0000
  H   H14       1.0  0.6413000000000001  0.417  0.2801  1.0000
  H   H15       1.0  0.629  0.4092  0.158  1.0000
  H   H16       1.0  0.7551000000000002  0.3473  0.21900000000000006  1.0000
  H   H17       1.0  0.7043  0.37780000000000014  0.1193  1.0000
  H   H18       1.0  0.7613  0.3605  0.1399  1.0000
  H   H19       1.0  0.9410000000000002  0.1861  0.9014000000000001  1.0000
  H   H20       1.0  0.9347  0.4381000000000001  0.2915000000000001  1.0000
  H   H21       1.0  0.6416  0.098  0.7869  1.0000
  H   H22       1.0  0.6321000000000001  0.17230000000000006  0.688  1.0000
  H   H23       1.0  0.7545  0.0855  0.693  1.0000
  H   H24       1.0  0.6413000000000001  0.2801  0.5830000000000002  1.0000
  H   H25       1.0  0.629  0.158  0.5908  1.0000
  H   H26       1.0  0.7551000000000002  0.21900000000000006  0.6527000000000002  1.0000
  H   H27       1.0  0.7043  0.1193  0.6222000000000002  1.0000
  H   H28       1.0  0.7613  0.1399  0.6395000000000002  1.0000
  H   H29       1.0  0.9410000000000002  0.9014000000000001  0.8139  1.0000
  H   H30       1.0  0.9347  0.2915000000000001  0.5619  1.0000
  H   H31       1.0  0.6416  0.9020000000000002  0.2131  1.0000
  H   H32       1.0  0.6321000000000001  0.8277  0.312  1.0000
  H   H33       1.0  0.7545  0.9145  0.307  1.0000
  H   H34       1.0  0.6413000000000001  0.7199000000000002  0.417  1.0000
  H   H35       1.0  0.629  0.8420000000000002  0.4092  1.0000
  H   H36       1.0  0.7551000000000002  0.781  0.3473  1.0000
  H   H37       1.0  0.7043  0.8807  0.37780000000000014  1.0000
  H   H38       1.0  0.7613  0.8601  0.3605  1.0000
  H   H39       1.0  0.9410000000000002  0.09860000000000002  0.1861  1.0000
  H   H40       1.0  0.9347  0.7085  0.4381000000000001  1.0000
  H   H41       1.0  0.3584000000000001  0.2131  0.9020000000000002  1.0000
  H   H42       1.0  0.3679  0.312  0.8277  1.0000
  H   H43       1.0  0.24550000000000002  0.307  0.9145  1.0000
  H   H44       1.0  0.3587  0.417  0.7199000000000002  1.0000
  H   H45       1.0  0.37100000000000005  0.4092  0.8420000000000002  1.0000
  H   H46       1.0  0.2449  0.3473  0.781  1.0000
  H   H47       1.0  0.2957  0.37780000000000014  0.8807  1.0000
  H   H48       1.0  0.23870000000000005  0.3605  0.8601  1.0000
  H   H49       1.0  0.05900000000000001  0.1861  0.09860000000000002  1.0000
  H   H50       1.0  0.0653  0.4381000000000001  0.7085  1.0000
  H   H51       1.0  0.3584000000000001  0.7869  0.098  1.0000
  H   H52       1.0  0.3679  0.688  0.17230000000000006  1.0000
  H   H53       1.0  0.24550000000000002  0.693  0.0855  1.0000
  H   H54       1.0  0.3587  0.5830000000000002  0.2801  1.0000
  H   H55       1.0  0.37100000000000005  0.5908  0.158  1.0000
  H   H56       1.0  0.2449  0.6527000000000002  0.21900000000000006  1.0000
  H   H57       1.0  0.2957  0.6222000000000002  0.1193  1.0000
  H   H58       1.0  0.23870000000000005  0.6395000000000002  0.1399  1.0000
  H   H59       1.0  0.05900000000000001  0.8139  0.9014000000000001  1.0000
  H   H60       1.0  0.0653  0.5619  0.2915000000000001  1.0000
  H   H61       1.0  0.3584000000000001  0.9020000000000002  0.7869  1.0000
  H   H62       1.0  0.3679  0.8277  0.688  1.0000
  H   H63       1.0  0.24550000000000002  0.9145  0.693  1.0000
  H   H64       1.0  0.3587  0.7199000000000002  0.5830000000000002  1.0000
  H   H65       1.0  0.37100000000000005  0.8420000000000002  0.5908  1.0000
  H   H66       1.0  0.2449  0.781  0.6527000000000002  1.0000
  H   H67       1.0  0.2957  0.8807  0.6222000000000002  1.0000
  H   H68       1.0  0.23870000000000005  0.8601  0.6395000000000002  1.0000
  H   H69       1.0  0.05900000000000001  0.09860000000000002  0.8139  1.0000
  H   H70       1.0  0.0653  0.7085  0.5619  1.0000
  H   H71       1.0  0.3584000000000001  0.098  0.2131  1.0000
  H   H72       1.0  0.3679  0.17230000000000006  0.312  1.0000
  H   H73       1.0  0.24550000000000002  0.0855  0.307  1.0000
  H   H74       1.0  0.3587  0.2801  0.417  1.0000
  H   H75       1.0  0.37100000000000005  0.158  0.4092  1.0000
  H   H76       1.0  0.2449  0.21900000000000006  0.3473  1.0000
  H   H77       1.0  0.2957  0.1193  0.37780000000000014  1.0000
  H   H78       1.0  0.23870000000000005  0.1399  0.3605  1.0000
  H   H79       1.0  0.05900000000000001  0.9014000000000001  0.1861  1.0000
  H   H80       1.0  0.0653  0.2915000000000001  0.4381000000000001  1.0000
  H   H81       1.0  0.3584000000000001  0.2131  0.098  1.0000
  H   H82       1.0  0.3679  0.312  0.17230000000000006  1.0000
  H   H83       1.0  0.24550000000000002  0.307  0.0855  1.0000
  H   H84       1.0  0.3587  0.417  0.2801  1.0000
  H   H85       1.0  0.37100000000000005  0.4092  0.158  1.0000
  H   H86       1.0  0.2449  0.3473  0.21900000000000006  1.0000
  H   H87       1.0  0.2957  0.37780000000000014  0.1193  1.0000
  H   H88       1.0  0.23870000000000005  0.3605  0.1399  1.0000
  H   H89       1.0  0.05900000000000001  0.1861  0.9014000000000001  1.0000
  H   H90       1.0  0.0653  0.4381000000000001  0.2915000000000001  1.0000
  H   H91       1.0  0.3584000000000001  0.7869  0.9020000000000002  1.0000
  H   H92       1.0  0.3679  0.688  0.8277  1.0000
  H   H93       1.0  0.24550000000000002  0.693  0.9145  1.0000
  H   H94       1.0  0.3587  0.5830000000000002  0.7199000000000002  1.0000
  H   H95       1.0  0.37100000000000005  0.5908  0.8420000000000002  1.0000
  H   H96       1.0  0.2449  0.6527000000000002  0.781  1.0000
  H   H97       1.0  0.2957  0.6222000000000002  0.8807  1.0000
  H   H98       1.0  0.23870000000000005  0.6395000000000002  0.8601  1.0000
  H   H99       1.0  0.05900000000000001  0.8139  0.09860000000000002  1.0000
  H   H100      1.0  0.0653  0.5619  0.7085  1.0000
  H   H101      1.0  0.3584000000000001  0.9020000000000002  0.2131  1.0000
  H   H102      1.0  0.3679  0.8277  0.312  1.0000
  H   H103      1.0  0.24550000000000002  0.9145  0.307  1.0000
  H   H104      1.0  0.3587  0.7199000000000002  0.417  1.0000
  H   H105      1.0  0.37100000000000005  0.8420000000000002  0.4092  1.0000
  H   H106      1.0  0.2449  0.781  0.3473  1.0000
  H   H107      1.0  0.2957  0.8807  0.37780000000000014  1.0000
  H   H108      1.0  0.23870000000000005  0.8601  0.3605  1.0000
  H   H109      1.0  0.05900000000000001  0.09860000000000002  0.1861  1.0000
  H   H110      1.0  0.0653  0.7085  0.4381000000000001  1.0000
  H   H111      1.0  0.3584000000000001  0.098  0.7869  1.0000
  H   H112      1.0  0.3679  0.17230000000000006  0.688  1.0000
  H   H113      1.0  0.24550000000000002  0.0855  0.693  1.0000
  H   H114      1.0  0.3587  0.2801  0.5830000000000002  1.0000
  H   H115      1.0  0.37100000000000005  0.158  0.5908  1.0000
  H   H116      1.0  0.2449  0.21900000000000006  0.6527000000000002  1.0000
  H   H117      1.0  0.2957  0.1193  0.6222000000000002  1.0000
  H   H118      1.0  0.23870000000000005  0.1399  0.6395000000000002  1.0000
  H   H119      1.0  0.05900000000000001  0.9014000000000001  0.8139  1.0000
  H   H120      1.0  0.0653  0.2915000000000001  0.5619  1.0000
  H   H121      1.0  0.6416  0.7869  0.098  1.0000
  H   H122      1.0  0.6321000000000001  0.688  0.17230000000000006  1.0000
  H   H123      1.0  0.7545  0.693  0.0855  1.0000
  H   H124      1.0  0.6413000000000001  0.5830000000000002  0.2801  1.0000
  H   H125      1.0  0.629  0.5908  0.158  1.0000
  H   H126      1.0  0.7551000000000002  0.6527000000000002  0.21900000000000006  1.0000
  H   H127      1.0  0.7043  0.6222000000000002  0.1193  1.0000
  H   H128      1.0  0.7613  0.6395000000000002  0.1399  1.0000
  H   H129      1.0  0.9410000000000002  0.8139  0.9014000000000001  1.0000
  H   H130      1.0  0.9347  0.5619  0.2915000000000001  1.0000
  H   H131      1.0  0.6416  0.2131  0.9020000000000002  1.0000
  H   H132      1.0  0.6321000000000001  0.312  0.8277  1.0000
  H   H133      1.0  0.7545  0.307  0.9145  1.0000
  H   H134      1.0  0.6413000000000001  0.417  0.7199000000000002  1.0000
  H   H135      1.0  0.629  0.4092  0.8420000000000002  1.0000
  H   H136      1.0  0.7551000000000002  0.3473  0.781  1.0000
  H   H137      1.0  0.7043  0.37780000000000014  0.8807  1.0000
  H   H138      1.0  0.7613  0.3605  0.8601  1.0000
  H   H139      1.0  0.9410000000000002  0.1861  0.09860000000000002  1.0000
  H   H140      1.0  0.9347  0.4381000000000001  0.7085  1.0000
  H   H141      1.0  0.6416  0.098  0.2131  1.0000
  H   H142      1.0  0.6321000000000001  0.17230000000000006  0.312  1.0000
  H   H143      1.0  0.7545  0.0855  0.307  1.0000
  H   H144      1.0  0.6413000000000001  0.2801  0.417  1.0000
  H   H145      1.0  0.629  0.158  0.4092  1.0000
  H   H146      1.0  0.7551000000000002  0.21900000000000006  0.3473  1.0000
  H   H147      1.0  0.7043  0.1193  0.37780000000000014  1.0000
  H   H148      1.0  0.7613  0.1399  0.3605  1.0000
  H   H149      1.0  0.9410000000000002  0.9014000000000001  0.1861  1.0000
  H   H150      1.0  0.9347  0.2915000000000001  0.4381000000000001  1.0000
  H   H151      1.0  0.6416  0.9020000000000002  0.7869  1.0000
  H   H152      1.0  0.6321000000000001  0.8277  0.688  1.0000
  H   H153      1.0  0.7545  0.9145  0.693  1.0000
  H   H154      1.0  0.6413000000000001  0.7199000000000002  0.5830000000000002  1.0000
  H   H155      1.0  0.629  0.8420000000000002  0.5908  1.0000
  H   H156      1.0  0.7551000000000002  0.781  0.6527000000000002  1.0000
  H   H157      1.0  0.7043  0.8807  0.6222000000000002  1.0000
  H   H158      1.0  0.7613  0.8601  0.6395000000000002  1.0000
  H   H159      1.0  0.9410000000000002  0.09860000000000002  0.8139  1.0000
  H   H160      1.0  0.9347  0.7085  0.5619  1.0000
  H   H161      1.0  0.8176000000000001  0.9048  0.0952  1.0000
  H   H162      1.0  0.8176000000000001  0.0952  0.9048  1.0000
  H   H163      1.0  0.8176000000000001  0.9048  0.9048  1.0000
  H   H164      1.0  0.8176000000000001  0.0952  0.0952  1.0000
  H   H165      1.0  0.18240000000000006  0.0952  0.0952  1.0000
  H   H166      1.0  0.18240000000000006  0.9048  0.9048  1.0000
  H   H167      1.0  0.18240000000000006  0.0952  0.9048  1.0000
  H   H168      1.0  0.18240000000000006  0.9048  0.0952  1.0000
  H   H169      1.0  0.0  0.8386  0.1952  1.0000
  H   H170      1.0  0.0  0.5239  0.7536  1.0000
  H   H171      1.0  0.0  0.1614  0.8048  1.0000
  H   H172      1.0  0.0  0.4761  0.2464  1.0000
  H   H173      1.0  0.0  0.8048  0.8386  1.0000
  H   H174      1.0  0.0  0.2464  0.5239  1.0000
  H   H175      1.0  0.0  0.1952  0.1614  1.0000
  H   H176      1.0  0.0  0.7536  0.4761  1.0000
  H   H177      1.0  0.0  0.1614  0.1952  1.0000
  H   H178      1.0  0.0  0.4761  0.7536  1.0000
  H   H179      1.0  0.0  0.8386  0.8048  1.0000
  H   H180      1.0  0.0  0.5239  0.2464  1.0000
  H   H181      1.0  0.0  0.1952  0.8386  1.0000
  H   H182      1.0  0.0  0.7536  0.5239  1.0000
  H   H183      1.0  0.0  0.8048  0.1614  1.0000
  H   H184      1.0  0.0  0.2464  0.4761  1.0000
  H   H185      1.0  0.8156000000000001  0.5  0.6361  1.0000
  H   H186      1.0  0.8156000000000001  0.5  0.3639  1.0000
  H   H187      1.0  0.8156000000000001  0.3639  0.5  1.0000
  H   H188      1.0  0.8156000000000001  0.6361  0.5  1.0000
  H   H189      1.0  0.1844  0.5  0.6361  1.0000
  H   H190      1.0  0.1844  0.5  0.3639  1.0000
  H   H191      1.0  0.1844  0.6361  0.5  1.0000
  H   H192      1.0  0.1844  0.3639  0.5  1.0000
  C   C1        1.0  0.7041  0.7429  0.9122  1.0000
  C   C2        1.0  0.6559  0.7619  0.8932  1.0000
  C   C3        1.0  0.6295000000000001  0.7407  0.8594  1.0000
  C   C4        1.0  0.6506000000000001  0.7019  0.8488000000000002  1.0000
  C   C5        1.0  0.6975  0.6834  0.8681  1.0000
  C   C6        1.0  0.7233  0.7049  0.9005  1.0000
  C   C7        1.0  0.7032000000000002  0.6178  0.744  1.0000
  C   C8        1.0  0.6568  0.5931000000000002  0.7441  1.0000
  C   C9        1.0  0.6317000000000002  0.5825  0.7815  1.0000
  C   C10       1.0  0.6495  0.5972  0.8184  1.0000
  C   C11       1.0  0.6997000000000001  0.6224000000000002  0.8197000000000002  1.0000
  C   C12       1.0  0.7243  0.634  0.7814  1.0000
  C   C13       1.0  0.7185000000000001  0.6398  0.8591000000000002  1.0000
  C   C14       1.0  0.7334000000000002  0.7657000000000003  0.9462  1.0000
  C   C15       1.0  0.5807000000000001  0.7617  0.8361  1.0000
  C   C16       1.0  0.7385000000000003  0.6279  0.7064  1.0000
  C   C17       1.0  0.5786  0.5525000000000002  0.7812  1.0000
  C   C18       1.0  0.8429000000000001  0.8371  0.05520000000000001  1.0000
  C   C19       1.0  0.8722000000000001  0.8555  0.0943  1.0000
  C   C20       1.0  0.9233000000000001  0.8362000000000003  0.11110000000000003  1.0000
  C   C21       1.0  0.8429000000000001  0.5764000000000002  0.6553  1.0000
  C   C22       1.0  0.8739  0.5368  0.6693  1.0000
  C   C23       1.0  0.9208  0.5375  0.6978  1.0000
  C   C24       1.0  0.7041  0.2571  0.08780000000000003  1.0000
  C   C25       1.0  0.6559  0.2381  0.1068  1.0000
  C   C26       1.0  0.6295000000000001  0.2593  0.14060000000000006  1.0000
  C   C27       1.0  0.6506000000000001  0.2981000000000001  0.1512  1.0000
  C   C28       1.0  0.6975  0.3166  0.1319  1.0000
  C   C29       1.0  0.7233  0.2951  0.09950000000000003  1.0000
  C   C30       1.0  0.7032000000000002  0.3822  0.256  1.0000
  C   C31       1.0  0.6568  0.4069  0.2559  1.0000
  C   C32       1.0  0.6317000000000002  0.4175000000000001  0.2185  1.0000
  C   C33       1.0  0.6495  0.4028  0.1816  1.0000
  C   C34       1.0  0.6997000000000001  0.3776000000000001  0.1803  1.0000
  C   C35       1.0  0.7243  0.366  0.2186  1.0000
  C   C36       1.0  0.7185000000000001  0.3602  0.1409  1.0000
  C   C37       1.0  0.7334000000000002  0.2343  0.0538  1.0000
  C   C38       1.0  0.5807000000000001  0.2383  0.16390000000000005  1.0000
  C   C39       1.0  0.7385000000000003  0.3721  0.2936  1.0000
  C   C40       1.0  0.5786  0.4475000000000001  0.21880000000000005  1.0000
  C   C41       1.0  0.8429000000000001  0.1629  0.9448  1.0000
  C   C42       1.0  0.8722000000000001  0.1445  0.9057000000000002  1.0000
  C   C43       1.0  0.9233000000000001  0.1638  0.8889  1.0000
  C   C44       1.0  0.8429000000000001  0.4236  0.3447000000000001  1.0000
  C   C45       1.0  0.8739  0.4632  0.3307  1.0000
  C   C46       1.0  0.9208  0.4625  0.3022  1.0000
  C   C47       1.0  0.7041  0.08780000000000003  0.7429  1.0000
  C   C48       1.0  0.6559  0.1068  0.7619  1.0000
  C   C49       1.0  0.6295000000000001  0.14060000000000006  0.7407  1.0000
  C   C50       1.0  0.6506000000000001  0.1512  0.7019  1.0000
  C   C51       1.0  0.6975  0.1319  0.6834  1.0000
  C   C52       1.0  0.7233  0.09950000000000003  0.7049  1.0000
  C   C53       1.0  0.7032000000000002  0.256  0.6178  1.0000
  C   C54       1.0  0.6568  0.2559  0.5931000000000002  1.0000
  C   C55       1.0  0.6317000000000002  0.2185  0.5825  1.0000
  C   C56       1.0  0.6495  0.1816  0.5972  1.0000
  C   C57       1.0  0.6997000000000001  0.1803  0.6224000000000002  1.0000
  C   C58       1.0  0.7243  0.2186  0.634  1.0000
  C   C59       1.0  0.7185000000000001  0.1409  0.6398  1.0000
  C   C60       1.0  0.7334000000000002  0.0538  0.7657000000000003  1.0000
  C   C61       1.0  0.5807000000000001  0.16390000000000005  0.7617  1.0000
  C   C62       1.0  0.7385000000000003  0.2936  0.6279  1.0000
  C   C63       1.0  0.5786  0.21880000000000005  0.5525000000000002  1.0000
  C   C64       1.0  0.8429000000000001  0.9448  0.8371  1.0000
  C   C65       1.0  0.8722000000000001  0.9057000000000002  0.8555  1.0000
  C   C66       1.0  0.9233000000000001  0.8889  0.8362000000000003  1.0000
  C   C67       1.0  0.8429000000000001  0.3447000000000001  0.5764000000000002  1.0000
  C   C68       1.0  0.8739  0.3307  0.5368  1.0000
  C   C69       1.0  0.9208  0.3022  0.5375  1.0000
  C   C70       1.0  0.7041  0.9122  0.2571  1.0000
  C   C71       1.0  0.6559  0.8932  0.2381  1.0000
  C   C72       1.0  0.6295000000000001  0.8594  0.2593  1.0000
  C   C73       1.0  0.6506000000000001  0.8488000000000002  0.2981000000000001  1.0000
  C   C74       1.0  0.6975  0.8681  0.3166  1.0000
  C   C75       1.0  0.7233  0.9005  0.2951  1.0000
  C   C76       1.0  0.7032000000000002  0.744  0.3822  1.0000
  C   C77       1.0  0.6568  0.7441  0.4069  1.0000
  C   C78       1.0  0.6317000000000002  0.7815  0.4175000000000001  1.0000
  C   C79       1.0  0.6495  0.8184  0.4028  1.0000
  C   C80       1.0  0.6997000000000001  0.8197000000000002  0.3776000000000001  1.0000
  C   C81       1.0  0.7243  0.7814  0.366  1.0000
  C   C82       1.0  0.7185000000000001  0.8591000000000002  0.3602  1.0000
  C   C83       1.0  0.7334000000000002  0.9462  0.2343  1.0000
  C   C84       1.0  0.5807000000000001  0.8361  0.2383  1.0000
  C   C85       1.0  0.7385000000000003  0.7064  0.3721  1.0000
  C   C86       1.0  0.5786  0.7812  0.4475000000000001  1.0000
  C   C87       1.0  0.8429000000000001  0.05520000000000001  0.1629  1.0000
  C   C88       1.0  0.8722000000000001  0.0943  0.1445  1.0000
  C   C89       1.0  0.9233000000000001  0.11110000000000003  0.1638  1.0000
  C   C90       1.0  0.8429000000000001  0.6553  0.4236  1.0000
  C   C91       1.0  0.8739  0.6693  0.4632  1.0000
  C   C92       1.0  0.9208  0.6978  0.4625  1.0000
  C   C93       1.0  0.2959  0.2571  0.9122  1.0000
  C   C94       1.0  0.3441  0.2381  0.8932  1.0000
  C   C95       1.0  0.37050000000000005  0.2593  0.8594  1.0000
  C   C96       1.0  0.3494  0.2981000000000001  0.8488000000000002  1.0000
  C   C97       1.0  0.30250000000000005  0.3166  0.8681  1.0000
  C   C98       1.0  0.2767  0.2951  0.9005  1.0000
  C   C99       1.0  0.2968  0.3822  0.744  1.0000
  C   C100      1.0  0.34320000000000006  0.4069  0.7441  1.0000
  C   C101      1.0  0.3683000000000001  0.4175000000000001  0.7815  1.0000
  C   C102      1.0  0.35050000000000003  0.4028  0.8184  1.0000
  C   C103      1.0  0.3003  0.3776000000000001  0.8197000000000002  1.0000
  C   C104      1.0  0.2757  0.366  0.7814  1.0000
  C   C105      1.0  0.2815  0.3602  0.8591000000000002  1.0000
  C   C106      1.0  0.26660000000000006  0.2343  0.9462  1.0000
  C   C107      1.0  0.4193  0.2383  0.8361  1.0000
  C   C108      1.0  0.2615  0.3721  0.7064  1.0000
  C   C109      1.0  0.42140000000000005  0.4475000000000001  0.7812  1.0000
  C   C110      1.0  0.1571  0.1629  0.05520000000000001  1.0000
  C   C111      1.0  0.1278  0.1445  0.0943  1.0000
  C   C112      1.0  0.07670000000000002  0.1638  0.11110000000000003  1.0000
  C   C113      1.0  0.1571  0.4236  0.6553  1.0000
  C   C114      1.0  0.1261  0.4632  0.6693  1.0000
  C   C115      1.0  0.07920000000000002  0.4625  0.6978  1.0000
  C   C116      1.0  0.2959  0.7429  0.08780000000000003  1.0000
  C   C117      1.0  0.3441  0.7619  0.1068  1.0000
  C   C118      1.0  0.37050000000000005  0.7407  0.14060000000000006  1.0000
  C   C119      1.0  0.3494  0.7019  0.1512  1.0000
  C   C120      1.0  0.30250000000000005  0.6834  0.1319  1.0000
  C   C121      1.0  0.2767  0.7049  0.09950000000000003  1.0000
  C   C122      1.0  0.2968  0.6178  0.256  1.0000
  C   C123      1.0  0.34320000000000006  0.5931000000000002  0.2559  1.0000
  C   C124      1.0  0.3683000000000001  0.5825  0.2185  1.0000
  C   C125      1.0  0.35050000000000003  0.5972  0.1816  1.0000
  C   C126      1.0  0.3003  0.6224000000000002  0.1803  1.0000
  C   C127      1.0  0.2757  0.634  0.2186  1.0000
  C   C128      1.0  0.2815  0.6398  0.1409  1.0000
  C   C129      1.0  0.26660000000000006  0.7657000000000003  0.0538  1.0000
  C   C130      1.0  0.4193  0.7617  0.16390000000000005  1.0000
  C   C131      1.0  0.2615  0.6279  0.2936  1.0000
  C   C132      1.0  0.42140000000000005  0.5525000000000002  0.21880000000000005  1.0000
  C   C133      1.0  0.1571  0.8371  0.9448  1.0000
  C   C134      1.0  0.1278  0.8555  0.9057000000000002  1.0000
  C   C135      1.0  0.07670000000000002  0.8362000000000003  0.8889  1.0000
  C   C136      1.0  0.1571  0.5764000000000002  0.3447000000000001  1.0000
  C   C137      1.0  0.1261  0.5368  0.3307  1.0000
  C   C138      1.0  0.07920000000000002  0.5375  0.3022  1.0000
  C   C139      1.0  0.2959  0.9122  0.7429  1.0000
  C   C140      1.0  0.3441  0.8932  0.7619  1.0000
  C   C141      1.0  0.37050000000000005  0.8594  0.7407  1.0000
  C   C142      1.0  0.3494  0.8488000000000002  0.7019  1.0000
  C   C143      1.0  0.30250000000000005  0.8681  0.6834  1.0000
  C   C144      1.0  0.2767  0.9005  0.7049  1.0000
  C   C145      1.0  0.2968  0.744  0.6178  1.0000
  C   C146      1.0  0.34320000000000006  0.7441  0.5931000000000002  1.0000
  C   C147      1.0  0.3683000000000001  0.7815  0.5825  1.0000
  C   C148      1.0  0.35050000000000003  0.8184  0.5972  1.0000
  C   C149      1.0  0.3003  0.8197000000000002  0.6224000000000002  1.0000
  C   C150      1.0  0.2757  0.7814  0.634  1.0000
  C   C151      1.0  0.2815  0.8591000000000002  0.6398  1.0000
  C   C152      1.0  0.26660000000000006  0.9462  0.7657000000000003  1.0000
  C   C153      1.0  0.4193  0.8361  0.7617  1.0000
  C   C154      1.0  0.2615  0.7064  0.6279  1.0000
  C   C155      1.0  0.42140000000000005  0.7812  0.5525000000000002  1.0000
  C   C156      1.0  0.1571  0.05520000000000001  0.8371  1.0000
  C   C157      1.0  0.1278  0.0943  0.8555  1.0000
  C   C158      1.0  0.07670000000000002  0.11110000000000003  0.8362000000000003  1.0000
  C   C159      1.0  0.1571  0.6553  0.5764000000000002  1.0000
  C   C160      1.0  0.1261  0.6693  0.5368  1.0000
  C   C161      1.0  0.07920000000000002  0.6978  0.5375  1.0000
  C   C162      1.0  0.2959  0.08780000000000003  0.2571  1.0000
  C   C163      1.0  0.3441  0.1068  0.2381  1.0000
  C   C164      1.0  0.37050000000000005  0.14060000000000006  0.2593  1.0000
  C   C165      1.0  0.3494  0.1512  0.2981000000000001  1.0000
  C   C166      1.0  0.30250000000000005  0.1319  0.3166  1.0000
  C   C167      1.0  0.2767  0.09950000000000003  0.2951  1.0000
  C   C168      1.0  0.2968  0.256  0.3822  1.0000
  C   C169      1.0  0.34320000000000006  0.2559  0.4069  1.0000
  C   C170      1.0  0.3683000000000001  0.2185  0.4175000000000001  1.0000
  C   C171      1.0  0.35050000000000003  0.1816  0.4028  1.0000
  C   C172      1.0  0.3003  0.1803  0.3776000000000001  1.0000
  C   C173      1.0  0.2757  0.2186  0.366  1.0000
  C   C174      1.0  0.2815  0.1409  0.3602  1.0000
  C   C175      1.0  0.26660000000000006  0.0538  0.2343  1.0000
  C   C176      1.0  0.4193  0.16390000000000005  0.2383  1.0000
  C   C177      1.0  0.2615  0.2936  0.3721  1.0000
  C   C178      1.0  0.42140000000000005  0.21880000000000005  0.4475000000000001  1.0000
  C   C179      1.0  0.1571  0.9448  0.1629  1.0000
  C   C180      1.0  0.1278  0.9057000000000002  0.1445  1.0000
  C   C181      1.0  0.07670000000000002  0.8889  0.1638  1.0000
  C   C182      1.0  0.1571  0.3447000000000001  0.4236  1.0000
  C   C183      1.0  0.1261  0.3307  0.4632  1.0000
  C   C184      1.0  0.07920000000000002  0.3022  0.4625  1.0000
  C   C185      1.0  0.2959  0.2571  0.08780000000000003  1.0000
  C   C186      1.0  0.3441  0.2381  0.1068  1.0000
  C   C187      1.0  0.37050000000000005  0.2593  0.14060000000000006  1.0000
  C   C188      1.0  0.3494  0.2981000000000001  0.1512  1.0000
  C   C189      1.0  0.30250000000000005  0.3166  0.1319  1.0000
  C   C190      1.0  0.2767  0.2951  0.09950000000000003  1.0000
  C   C191      1.0  0.2968  0.3822  0.256  1.0000
  C   C192      1.0  0.34320000000000006  0.4069  0.2559  1.0000
  C   C193      1.0  0.3683000000000001  0.4175000000000001  0.2185  1.0000
  C   C194      1.0  0.35050000000000003  0.4028  0.1816  1.0000
  C   C195      1.0  0.3003  0.3776000000000001  0.1803  1.0000
  C   C196      1.0  0.2757  0.366  0.2186  1.0000
  C   C197      1.0  0.2815  0.3602  0.1409  1.0000
  C   C198      1.0  0.26660000000000006  0.2343  0.0538  1.0000
  C   C199      1.0  0.4193  0.2383  0.16390000000000005  1.0000
  C   C200      1.0  0.2615  0.3721  0.2936  1.0000
  C   C201      1.0  0.42140000000000005  0.4475000000000001  0.21880000000000005  1.0000
  C   C202      1.0  0.1571  0.1629  0.9448  1.0000
  C   C203      1.0  0.1278  0.1445  0.9057000000000002  1.0000
  C   C204      1.0  0.07670000000000002  0.1638  0.8889  1.0000
  C   C205      1.0  0.1571  0.4236  0.3447000000000001  1.0000
  C   C206      1.0  0.1261  0.4632  0.3307  1.0000
  C   C207      1.0  0.07920000000000002  0.4625  0.3022  1.0000
  C   C208      1.0  0.2959  0.7429  0.9122  1.0000
  C   C209      1.0  0.3441  0.7619  0.8932  1.0000
  C   C210      1.0  0.37050000000000005  0.7407  0.8594  1.0000
  C   C211      1.0  0.3494  0.7019  0.8488000000000002  1.0000
  C   C212      1.0  0.30250000000000005  0.6834  0.8681  1.0000
  C   C213      1.0  0.2767  0.7049  0.9005  1.0000
  C   C214      1.0  0.2968  0.6178  0.744  1.0000
  C   C215      1.0  0.34320000000000006  0.5931000000000002  0.7441  1.0000
  C   C216      1.0  0.3683000000000001  0.5825  0.7815  1.0000
  C   C217      1.0  0.35050000000000003  0.5972  0.8184  1.0000
  C   C218      1.0  0.3003  0.6224000000000002  0.8197000000000002  1.0000
  C   C219      1.0  0.2757  0.634  0.7814  1.0000
  C   C220      1.0  0.2815  0.6398  0.8591000000000002  1.0000
  C   C221      1.0  0.26660000000000006  0.7657000000000003  0.9462  1.0000
  C   C222      1.0  0.4193  0.7617  0.8361  1.0000
  C   C223      1.0  0.2615  0.6279  0.7064  1.0000
  C   C224      1.0  0.42140000000000005  0.5525000000000002  0.7812  1.0000
  C   C225      1.0  0.1571  0.8371  0.05520000000000001  1.0000
  C   C226      1.0  0.1278  0.8555  0.0943  1.0000
  C   C227      1.0  0.07670000000000002  0.8362000000000003  0.11110000000000003  1.0000
  C   C228      1.0  0.1571  0.5764000000000002  0.6553  1.0000
  C   C229      1.0  0.1261  0.5368  0.6693  1.0000
  C   C230      1.0  0.07920000000000002  0.5375  0.6978  1.0000
  C   C231      1.0  0.2959  0.9122  0.2571  1.0000
  C   C232      1.0  0.3441  0.8932  0.2381  1.0000
  C   C233      1.0  0.37050000000000005  0.8594  0.2593  1.0000
  C   C234      1.0  0.3494  0.8488000000000002  0.2981000000000001  1.0000
  C   C235      1.0  0.30250000000000005  0.8681  0.3166  1.0000
  C   C236      1.0  0.2767  0.9005  0.2951  1.0000
  C   C237      1.0  0.2968  0.744  0.3822  1.0000
  C   C238      1.0  0.34320000000000006  0.7441  0.4069  1.0000
  C   C239      1.0  0.3683000000000001  0.7815  0.4175000000000001  1.0000
  C   C240      1.0  0.35050000000000003  0.8184  0.4028  1.0000
  C   C241      1.0  0.3003  0.8197000000000002  0.3776000000000001  1.0000
  C   C242      1.0  0.2757  0.7814  0.366  1.0000
  C   C243      1.0  0.2815  0.8591000000000002  0.3602  1.0000
  C   C244      1.0  0.26660000000000006  0.9462  0.2343  1.0000
  C   C245      1.0  0.4193  0.8361  0.2383  1.0000
  C   C246      1.0  0.2615  0.7064  0.3721  1.0000
  C   C247      1.0  0.42140000000000005  0.7812  0.4475000000000001  1.0000
  C   C248      1.0  0.1571  0.05520000000000001  0.1629  1.0000
  C   C249      1.0  0.1278  0.0943  0.1445  1.0000
  C   C250      1.0  0.07670000000000002  0.11110000000000003  0.1638  1.0000
  C   C251      1.0  0.1571  0.6553  0.4236  1.0000
  C   C252      1.0  0.1261  0.6693  0.4632  1.0000
  C   C253      1.0  0.07920000000000002  0.6978  0.4625  1.0000
  C   C254      1.0  0.2959  0.08780000000000003  0.7429  1.0000
  C   C255      1.0  0.3441  0.1068  0.7619  1.0000
  C   C256      1.0  0.37050000000000005  0.14060000000000006  0.7407  1.0000
  C   C257      1.0  0.3494  0.1512  0.7019  1.0000
  C   C258      1.0  0.30250000000000005  0.1319  0.6834  1.0000
  C   C259      1.0  0.2767  0.09950000000000003  0.7049  1.0000
  C   C260      1.0  0.2968  0.256  0.6178  1.0000
  C   C261      1.0  0.34320000000000006  0.2559  0.5931000000000002  1.0000
  C   C262      1.0  0.3683000000000001  0.2185  0.5825  1.0000
  C   C263      1.0  0.35050000000000003  0.1816  0.5972  1.0000
  C   C264      1.0  0.3003  0.1803  0.6224000000000002  1.0000
  C   C265      1.0  0.2757  0.2186  0.634  1.0000
  C   C266      1.0  0.2815  0.1409  0.6398  1.0000
  C   C267      1.0  0.26660000000000006  0.0538  0.7657000000000003  1.0000
  C   C268      1.0  0.4193  0.16390000000000005  0.7617  1.0000
  C   C269      1.0  0.2615  0.2936  0.6279  1.0000
  C   C270      1.0  0.42140000000000005  0.21880000000000005  0.5525000000000002  1.0000
  C   C271      1.0  0.1571  0.9448  0.8371  1.0000
  C   C272      1.0  0.1278  0.9057000000000002  0.8555  1.0000
  C   C273      1.0  0.07670000000000002  0.8889  0.8362000000000003  1.0000
  C   C274      1.0  0.1571  0.3447000000000001  0.5764000000000002  1.0000
  C   C275      1.0  0.1261  0.3307  0.5368  1.0000
  C   C276      1.0  0.07920000000000002  0.3022  0.5375  1.0000
  C   C277      1.0  0.7041  0.7429  0.08780000000000003  1.0000
  C   C278      1.0  0.6559  0.7619  0.1068  1.0000
  C   C279      1.0  0.6295000000000001  0.7407  0.14060000000000006  1.0000
  C   C280      1.0  0.6506000000000001  0.7019  0.1512  1.0000
  C   C281      1.0  0.6975  0.6834  0.1319  1.0000
  C   C282      1.0  0.7233  0.7049  0.09950000000000003  1.0000
  C   C283      1.0  0.7032000000000002  0.6178  0.256  1.0000
  C   C284      1.0  0.6568  0.5931000000000002  0.2559  1.0000
  C   C285      1.0  0.6317000000000002  0.5825  0.2185  1.0000
  C   C286      1.0  0.6495  0.5972  0.1816  1.0000
  C   C287      1.0  0.6997000000000001  0.6224000000000002  0.1803  1.0000
  C   C288      1.0  0.7243  0.634  0.2186  1.0000
  C   C289      1.0  0.7185000000000001  0.6398  0.1409  1.0000
  C   C290      1.0  0.7334000000000002  0.7657000000000003  0.0538  1.0000
  C   C291      1.0  0.5807000000000001  0.7617  0.16390000000000005  1.0000
  C   C292      1.0  0.7385000000000003  0.6279  0.2936  1.0000
  C   C293      1.0  0.5786  0.5525000000000002  0.21880000000000005  1.0000
  C   C294      1.0  0.8429000000000001  0.8371  0.9448  1.0000
  C   C295      1.0  0.8722000000000001  0.8555  0.9057000000000002  1.0000
  C   C296      1.0  0.9233000000000001  0.8362000000000003  0.8889  1.0000
  C   C297      1.0  0.8429000000000001  0.5764000000000002  0.3447000000000001  1.0000
  C   C298      1.0  0.8739  0.5368  0.3307  1.0000
  C   C299      1.0  0.9208  0.5375  0.3022  1.0000
  C   C300      1.0  0.7041  0.2571  0.9122  1.0000
  C   C301      1.0  0.6559  0.2381  0.8932  1.0000
  C   C302      1.0  0.6295000000000001  0.2593  0.8594  1.0000
  C   C303      1.0  0.6506000000000001  0.2981000000000001  0.8488000000000002  1.0000
  C   C304      1.0  0.6975  0.3166  0.8681  1.0000
  C   C305      1.0  0.7233  0.2951  0.9005  1.0000
  C   C306      1.0  0.7032000000000002  0.3822  0.744  1.0000
  C   C307      1.0  0.6568  0.4069  0.7441  1.0000
  C   C308      1.0  0.6317000000000002  0.4175000000000001  0.7815  1.0000
  C   C309      1.0  0.6495  0.4028  0.8184  1.0000
  C   C310      1.0  0.6997000000000001  0.3776000000000001  0.8197000000000002  1.0000
  C   C311      1.0  0.7243  0.366  0.7814  1.0000
  C   C312      1.0  0.7185000000000001  0.3602  0.8591000000000002  1.0000
  C   C313      1.0  0.7334000000000002  0.2343  0.9462  1.0000
  C   C314      1.0  0.5807000000000001  0.2383  0.8361  1.0000
  C   C315      1.0  0.7385000000000003  0.3721  0.7064  1.0000
  C   C316      1.0  0.5786  0.4475000000000001  0.7812  1.0000
  C   C317      1.0  0.8429000000000001  0.1629  0.05520000000000001  1.0000
  C   C318      1.0  0.8722000000000001  0.1445  0.0943  1.0000
  C   C319      1.0  0.9233000000000001  0.1638  0.11110000000000003  1.0000
  C   C320      1.0  0.8429000000000001  0.4236  0.6553  1.0000
  C   C321      1.0  0.8739  0.4632  0.6693  1.0000
  C   C322      1.0  0.9208  0.4625  0.6978  1.0000
  C   C323      1.0  0.7041  0.08780000000000003  0.2571  1.0000
  C   C324      1.0  0.6559  0.1068  0.2381  1.0000
  C   C325      1.0  0.6295000000000001  0.14060000000000006  0.2593  1.0000
  C   C326      1.0  0.6506000000000001  0.1512  0.2981000000000001  1.0000
  C   C327      1.0  0.6975  0.1319  0.3166  1.0000
  C   C328      1.0  0.7233  0.09950000000000003  0.2951  1.0000
  C   C329      1.0  0.7032000000000002  0.256  0.3822  1.0000
  C   C330      1.0  0.6568  0.2559  0.4069  1.0000
  C   C331      1.0  0.6317000000000002  0.2185  0.4175000000000001  1.0000
  C   C332      1.0  0.6495  0.1816  0.4028  1.0000
  C   C333      1.0  0.6997000000000001  0.1803  0.3776000000000001  1.0000
  C   C334      1.0  0.7243  0.2186  0.366  1.0000
  C   C335      1.0  0.7185000000000001  0.1409  0.3602  1.0000
  C   C336      1.0  0.7334000000000002  0.0538  0.2343  1.0000
  C   C337      1.0  0.5807000000000001  0.16390000000000005  0.2383  1.0000
  C   C338      1.0  0.7385000000000003  0.2936  0.3721  1.0000
  C   C339      1.0  0.5786  0.21880000000000005  0.4475000000000001  1.0000
  C   C340      1.0  0.8429000000000001  0.9448  0.1629  1.0000
  C   C341      1.0  0.8722000000000001  0.9057000000000002  0.1445  1.0000
  C   C342      1.0  0.9233000000000001  0.8889  0.1638  1.0000
  C   C343      1.0  0.8429000000000001  0.3447000000000001  0.4236  1.0000
  C   C344      1.0  0.8739  0.3307  0.4632  1.0000
  C   C345      1.0  0.9208  0.3022  0.4625  1.0000
  C   C346      1.0  0.7041  0.9122  0.7429  1.0000
  C   C347      1.0  0.6559  0.8932  0.7619  1.0000
  C   C348      1.0  0.6295000000000001  0.8594  0.7407  1.0000
  C   C349      1.0  0.6506000000000001  0.8488000000000002  0.7019  1.0000
  C   C350      1.0  0.6975  0.8681  0.6834  1.0000
  C   C351      1.0  0.7233  0.9005  0.7049  1.0000
  C   C352      1.0  0.7032000000000002  0.744  0.6178  1.0000
  C   C353      1.0  0.6568  0.7441  0.5931000000000002  1.0000
  C   C354      1.0  0.6317000000000002  0.7815  0.5825  1.0000
  C   C355      1.0  0.6495  0.8184  0.5972  1.0000
  C   C356      1.0  0.6997000000000001  0.8197000000000002  0.6224000000000002  1.0000
  C   C357      1.0  0.7243  0.7814  0.634  1.0000
  C   C358      1.0  0.7185000000000001  0.8591000000000002  0.6398  1.0000
  C   C359      1.0  0.7334000000000002  0.9462  0.7657000000000003  1.0000
  C   C360      1.0  0.5807000000000001  0.8361  0.7617  1.0000
  C   C361      1.0  0.7385000000000003  0.7064  0.6279  1.0000
  C   C362      1.0  0.5786  0.7812  0.5525000000000002  1.0000
  C   C363      1.0  0.8429000000000001  0.05520000000000001  0.8371  1.0000
  C   C364      1.0  0.8722000000000001  0.0943  0.8555  1.0000
  C   C365      1.0  0.9233000000000001  0.11110000000000003  0.8362000000000003  1.0000
  C   C366      1.0  0.8429000000000001  0.6553  0.5764000000000002  1.0000
  C   C367      1.0  0.8739  0.6693  0.5368  1.0000
  C   C368      1.0  0.9208  0.6978  0.5375  1.0000
  C   C369      1.0  0.8480000000000002  0.8913  0.10870000000000003  1.0000
  C   C370      1.0  0.9450000000000002  0.8528  0.14720000000000003  1.0000
  C   C371      1.0  0.8480000000000002  0.10870000000000003  0.8913  1.0000
  C   C372      1.0  0.9450000000000002  0.14720000000000003  0.8528  1.0000
  C   C373      1.0  0.8480000000000002  0.8913  0.8913  1.0000
  C   C374      1.0  0.9450000000000002  0.8528  0.8528  1.0000
  C   C375      1.0  0.8480000000000002  0.10870000000000003  0.10870000000000003  1.0000
  C   C376      1.0  0.9450000000000002  0.14720000000000003  0.14720000000000003  1.0000
  C   C377      1.0  0.15200000000000002  0.10870000000000003  0.10870000000000003  1.0000
  C   C378      1.0  0.055  0.14720000000000003  0.14720000000000003  1.0000
  C   C379      1.0  0.15200000000000002  0.8913  0.8913  1.0000
  C   C380      1.0  0.055  0.8528  0.8528  1.0000
  C   C381      1.0  0.15200000000000002  0.10870000000000003  0.8913  1.0000
  C   C382      1.0  0.055  0.14720000000000003  0.8528  1.0000
  C   C383      1.0  0.15200000000000002  0.8913  0.10870000000000003  1.0000
  C   C384      1.0  0.055  0.8528  0.14720000000000003  1.0000
  C   C385      1.0  0.0  0.8339  0.1661  1.0000
  C   C386      1.0  0.0  0.1661  0.8339  1.0000
  C   C387      1.0  0.0  0.8339  0.8339  1.0000
  C   C388      1.0  0.0  0.1661  0.1661  1.0000
  C   C389      1.0  0.8473000000000003  0.5  0.6541  1.0000
  C   C390      1.0  0.9458000000000001  0.5  0.7096000000000002  1.0000
  C   C391      1.0  0.8473000000000003  0.5  0.3459  1.0000
  C   C392      1.0  0.9458000000000001  0.5  0.2904  1.0000
  C   C393      1.0  0.8473000000000003  0.3459  0.5  1.0000
  C   C394      1.0  0.9458000000000001  0.2904  0.5  1.0000
  C   C395      1.0  0.8473000000000003  0.6541  0.5  1.0000
  C   C396      1.0  0.9458000000000001  0.7096000000000002  0.5  1.0000
  C   C397      1.0  0.1527  0.5  0.6541  1.0000
  C   C398      1.0  0.0542  0.5  0.7096000000000002  1.0000
  C   C399      1.0  0.1527  0.5  0.3459  1.0000
  C   C400      1.0  0.0542  0.5  0.2904  1.0000
  C   C401      1.0  0.1527  0.6541  0.5  1.0000
  C   C402      1.0  0.0542  0.7096000000000002  0.5  1.0000
  C   C403      1.0  0.1527  0.3459  0.5  1.0000
  C   C404      1.0  0.0542  0.2904  0.5  1.0000
  C   C405      1.0  0.0  0.5  0.7363  1.0000
  C   C406      1.0  0.0  0.5  0.2637  1.0000
  C   C407      1.0  0.0  0.2637  0.5  1.0000
  C   C408      1.0  0.0  0.7363  0.5  1.0000
  O   O1        1.0  0.7106  0.7973  0.9576  1.0000
  O   O2        1.0  0.7794000000000002  0.748  0.9581000000000002  1.0000
  O   O3        1.0  0.5621000000000002  0.7441  0.8048  1.0000
  O   O4        1.0  0.5599000000000001  0.7938  0.8526  1.0000
  O   O5        1.0  0.7835  0.6491  0.7090000000000002  1.0000
  O   O6        1.0  0.7147000000000001  0.6147  0.6745  1.0000
  O   O7        1.0  0.5606  0.541  0.8160000000000002  1.0000
  O   O8        1.0  0.5613  0.5419  0.7462  1.0000
  O   O9        1.0  0.7996  0.8541  0.0426  1.0000
  O   O10       1.0  0.8696000000000002  0.8048  0.0428  1.0000
  O   O11       1.0  0.87  0.6083  0.6688000000000002  1.0000
  O   O12       1.0  0.8014  0.5744  0.6317  1.0000
  O   O13       1.0  0.7106  0.2027  0.0424  1.0000
  O   O14       1.0  0.7794000000000002  0.252  0.0419  1.0000
  O   O15       1.0  0.5621000000000002  0.2559  0.1952  1.0000
  O   O16       1.0  0.5599000000000001  0.2062  0.14740000000000006  1.0000
  O   O17       1.0  0.7835  0.35090000000000005  0.291  1.0000
  O   O18       1.0  0.7147000000000001  0.3853  0.3255  1.0000
  O   O19       1.0  0.5606  0.459  0.18400000000000005  1.0000
  O   O20       1.0  0.5613  0.4581000000000001  0.2538  1.0000
  O   O21       1.0  0.7996  0.1459  0.9574  1.0000
  O   O22       1.0  0.8696000000000002  0.1952  0.9572  1.0000
  O   O23       1.0  0.87  0.3917  0.3312000000000001  1.0000
  O   O24       1.0  0.8014  0.4256  0.3683000000000001  1.0000
  O   O25       1.0  0.7106  0.0424  0.7973  1.0000
  O   O26       1.0  0.7794000000000002  0.0419  0.748  1.0000
  O   O27       1.0  0.5621000000000002  0.1952  0.7441  1.0000
  O   O28       1.0  0.5599000000000001  0.14740000000000006  0.7938  1.0000
  O   O29       1.0  0.7835  0.291  0.6491  1.0000
  O   O30       1.0  0.7147000000000001  0.3255  0.6147  1.0000
  O   O31       1.0  0.5606  0.18400000000000005  0.541  1.0000
  O   O32       1.0  0.5613  0.2538  0.5419  1.0000
  O   O33       1.0  0.7996  0.9574  0.8541  1.0000
  O   O34       1.0  0.8696000000000002  0.9572  0.8048  1.0000
  O   O35       1.0  0.87  0.3312000000000001  0.6083  1.0000
  O   O36       1.0  0.8014  0.3683000000000001  0.5744  1.0000
  O   O37       1.0  0.7106  0.9576  0.2027  1.0000
  O   O38       1.0  0.7794000000000002  0.9581000000000002  0.252  1.0000
  O   O39       1.0  0.5621000000000002  0.8048  0.2559  1.0000
  O   O40       1.0  0.5599000000000001  0.8526  0.2062  1.0000
  O   O41       1.0  0.7835  0.7090000000000002  0.35090000000000005  1.0000
  O   O42       1.0  0.7147000000000001  0.6745  0.3853  1.0000
  O   O43       1.0  0.5606  0.8160000000000002  0.459  1.0000
  O   O44       1.0  0.5613  0.7462  0.4581000000000001  1.0000
  O   O45       1.0  0.7996  0.0426  0.1459  1.0000
  O   O46       1.0  0.8696000000000002  0.0428  0.1952  1.0000
  O   O47       1.0  0.87  0.6688000000000002  0.3917  1.0000
  O   O48       1.0  0.8014  0.6317  0.4256  1.0000
  O   O49       1.0  0.2894  0.2027  0.9576  1.0000
  O   O50       1.0  0.22060000000000005  0.252  0.9581000000000002  1.0000
  O   O51       1.0  0.4379  0.2559  0.8048  1.0000
  O   O52       1.0  0.44010000000000005  0.2062  0.8526  1.0000
  O   O53       1.0  0.2165  0.35090000000000005  0.7090000000000002  1.0000
  O   O54       1.0  0.2853  0.3853  0.6745  1.0000
  O   O55       1.0  0.4394  0.459  0.8160000000000002  1.0000
  O   O56       1.0  0.4387000000000001  0.4581000000000001  0.7462  1.0000
  O   O57       1.0  0.2004  0.1459  0.0426  1.0000
  O   O58       1.0  0.1304  0.1952  0.0428  1.0000
  O   O59       1.0  0.13000000000000003  0.3917  0.6688000000000002  1.0000
  O   O60       1.0  0.1986  0.4256  0.6317  1.0000
  O   O61       1.0  0.2894  0.7973  0.0424  1.0000
  O   O62       1.0  0.22060000000000005  0.748  0.0419  1.0000
  O   O63       1.0  0.4379  0.7441  0.1952  1.0000
  O   O64       1.0  0.44010000000000005  0.7938  0.14740000000000006  1.0000
  O   O65       1.0  0.2165  0.6491  0.291  1.0000
  O   O66       1.0  0.2853  0.6147  0.3255  1.0000
  O   O67       1.0  0.4394  0.541  0.18400000000000005  1.0000
  O   O68       1.0  0.4387000000000001  0.5419  0.2538  1.0000
  O   O69       1.0  0.2004  0.8541  0.9574  1.0000
  O   O70       1.0  0.1304  0.8048  0.9572  1.0000
  O   O71       1.0  0.13000000000000003  0.6083  0.3312000000000001  1.0000
  O   O72       1.0  0.1986  0.5744  0.3683000000000001  1.0000
  O   O73       1.0  0.2894  0.9576  0.7973  1.0000
  O   O74       1.0  0.22060000000000005  0.9581000000000002  0.748  1.0000
  O   O75       1.0  0.4379  0.8048  0.7441  1.0000
  O   O76       1.0  0.44010000000000005  0.8526  0.7938  1.0000
  O   O77       1.0  0.2165  0.7090000000000002  0.6491  1.0000
  O   O78       1.0  0.2853  0.6745  0.6147  1.0000
  O   O79       1.0  0.4394  0.8160000000000002  0.541  1.0000
  O   O80       1.0  0.4387000000000001  0.7462  0.5419  1.0000
  O   O81       1.0  0.2004  0.0426  0.8541  1.0000
  O   O82       1.0  0.1304  0.0428  0.8048  1.0000
  O   O83       1.0  0.13000000000000003  0.6688000000000002  0.6083  1.0000
  O   O84       1.0  0.1986  0.6317  0.5744  1.0000
  O   O85       1.0  0.2894  0.0424  0.2027  1.0000
  O   O86       1.0  0.22060000000000005  0.0419  0.252  1.0000
  O   O87       1.0  0.4379  0.1952  0.2559  1.0000
  O   O88       1.0  0.44010000000000005  0.14740000000000006  0.2062  1.0000
  O   O89       1.0  0.2165  0.291  0.35090000000000005  1.0000
  O   O90       1.0  0.2853  0.3255  0.3853  1.0000
  O   O91       1.0  0.4394  0.18400000000000005  0.459  1.0000
  O   O92       1.0  0.4387000000000001  0.2538  0.4581000000000001  1.0000
  O   O93       1.0  0.2004  0.9574  0.1459  1.0000
  O   O94       1.0  0.1304  0.9572  0.1952  1.0000
  O   O95       1.0  0.13000000000000003  0.3312000000000001  0.3917  1.0000
  O   O96       1.0  0.1986  0.3683000000000001  0.4256  1.0000
  O   O97       1.0  0.2894  0.2027  0.0424  1.0000
  O   O98       1.0  0.22060000000000005  0.252  0.0419  1.0000
  O   O99       1.0  0.4379  0.2559  0.1952  1.0000
  O   O100      1.0  0.44010000000000005  0.2062  0.14740000000000006  1.0000
  O   O101      1.0  0.2165  0.35090000000000005  0.291  1.0000
  O   O102      1.0  0.2853  0.3853  0.3255  1.0000
  O   O103      1.0  0.4394  0.459  0.18400000000000005  1.0000
  O   O104      1.0  0.4387000000000001  0.4581000000000001  0.2538  1.0000
  O   O105      1.0  0.2004  0.1459  0.9574  1.0000
  O   O106      1.0  0.1304  0.1952  0.9572  1.0000
  O   O107      1.0  0.13000000000000003  0.3917  0.3312000000000001  1.0000
  O   O108      1.0  0.1986  0.4256  0.3683000000000001  1.0000
  O   O109      1.0  0.2894  0.7973  0.9576  1.0000
  O   O110      1.0  0.22060000000000005  0.748  0.9581000000000002  1.0000
  O   O111      1.0  0.4379  0.7441  0.8048  1.0000
  O   O112      1.0  0.44010000000000005  0.7938  0.8526  1.0000
  O   O113      1.0  0.2165  0.6491  0.7090000000000002  1.0000
  O   O114      1.0  0.2853  0.6147  0.6745  1.0000
  O   O115      1.0  0.4394  0.541  0.8160000000000002  1.0000
  O   O116      1.0  0.4387000000000001  0.5419  0.7462  1.0000
  O   O117      1.0  0.2004  0.8541  0.0426  1.0000
  O   O118      1.0  0.1304  0.8048  0.0428  1.0000
  O   O119      1.0  0.13000000000000003  0.6083  0.6688000000000002  1.0000
  O   O120      1.0  0.1986  0.5744  0.6317  1.0000
  O   O121      1.0  0.2894  0.9576  0.2027  1.0000
  O   O122      1.0  0.22060000000000005  0.9581000000000002  0.252  1.0000
  O   O123      1.0  0.4379  0.8048  0.2559  1.0000
  O   O124      1.0  0.44010000000000005  0.8526  0.2062  1.0000
  O   O125      1.0  0.2165  0.7090000000000002  0.35090000000000005  1.0000
  O   O126      1.0  0.2853  0.6745  0.3853  1.0000
  O   O127      1.0  0.4394  0.8160000000000002  0.459  1.0000
  O   O128      1.0  0.4387000000000001  0.7462  0.4581000000000001  1.0000
  O   O129      1.0  0.2004  0.0426  0.1459  1.0000
  O   O130      1.0  0.1304  0.0428  0.1952  1.0000
  O   O131      1.0  0.13000000000000003  0.6688000000000002  0.3917  1.0000
  O   O132      1.0  0.1986  0.6317  0.4256  1.0000
  O   O133      1.0  0.2894  0.0424  0.7973  1.0000
  O   O134      1.0  0.22060000000000005  0.0419  0.748  1.0000
  O   O135      1.0  0.4379  0.1952  0.7441  1.0000
  O   O136      1.0  0.44010000000000005  0.14740000000000006  0.7938  1.0000
  O   O137      1.0  0.2165  0.291  0.6491  1.0000
  O   O138      1.0  0.2853  0.3255  0.6147  1.0000
  O   O139      1.0  0.4394  0.18400000000000005  0.541  1.0000
  O   O140      1.0  0.4387000000000001  0.2538  0.5419  1.0000
  O   O141      1.0  0.2004  0.9574  0.8541  1.0000
  O   O142      1.0  0.1304  0.9572  0.8048  1.0000
  O   O143      1.0  0.13000000000000003  0.3312000000000001  0.6083  1.0000
  O   O144      1.0  0.1986  0.3683000000000001  0.5744  1.0000
  O   O145      1.0  0.7106  0.7973  0.0424  1.0000
  O   O146      1.0  0.7794000000000002  0.748  0.0419  1.0000
  O   O147      1.0  0.5621000000000002  0.7441  0.1952  1.0000
  O   O148      1.0  0.5599000000000001  0.7938  0.14740000000000006  1.0000
  O   O149      1.0  0.7835  0.6491  0.291  1.0000
  O   O150      1.0  0.7147000000000001  0.6147  0.3255  1.0000
  O   O151      1.0  0.5606  0.541  0.18400000000000005  1.0000
  O   O152      1.0  0.5613  0.5419  0.2538  1.0000
  O   O153      1.0  0.7996  0.8541  0.9574  1.0000
  O   O154      1.0  0.8696000000000002  0.8048  0.9572  1.0000
  O   O155      1.0  0.87  0.6083  0.3312000000000001  1.0000
  O   O156      1.0  0.8014  0.5744  0.3683000000000001  1.0000
  O   O157      1.0  0.7106  0.2027  0.9576  1.0000
  O   O158      1.0  0.7794000000000002  0.252  0.9581000000000002  1.0000
  O   O159      1.0  0.5621000000000002  0.2559  0.8048  1.0000
  O   O160      1.0  0.5599000000000001  0.2062  0.8526  1.0000
  O   O161      1.0  0.7835  0.35090000000000005  0.7090000000000002  1.0000
  O   O162      1.0  0.7147000000000001  0.3853  0.6745  1.0000
  O   O163      1.0  0.5606  0.459  0.8160000000000002  1.0000
  O   O164      1.0  0.5613  0.4581000000000001  0.7462  1.0000
  O   O165      1.0  0.7996  0.1459  0.0426  1.0000
  O   O166      1.0  0.8696000000000002  0.1952  0.0428  1.0000
  O   O167      1.0  0.87  0.3917  0.6688000000000002  1.0000
  O   O168      1.0  0.8014  0.4256  0.6317  1.0000
  O   O169      1.0  0.7106  0.0424  0.2027  1.0000
  O   O170      1.0  0.7794000000000002  0.0419  0.252  1.0000
  O   O171      1.0  0.5621000000000002  0.1952  0.2559  1.0000
  O   O172      1.0  0.5599000000000001  0.14740000000000006  0.2062  1.0000
  O   O173      1.0  0.7835  0.291  0.35090000000000005  1.0000
  O   O174      1.0  0.7147000000000001  0.3255  0.3853  1.0000
  O   O175      1.0  0.5606  0.18400000000000005  0.459  1.0000
  O   O176      1.0  0.5613  0.2538  0.4581000000000001  1.0000
  O   O177      1.0  0.7996  0.9574  0.1459  1.0000
  O   O178      1.0  0.8696000000000002  0.9572  0.1952  1.0000
  O   O179      1.0  0.87  0.3312000000000001  0.3917  1.0000
  O   O180      1.0  0.8014  0.3683000000000001  0.4256  1.0000
  O   O181      1.0  0.7106  0.9576  0.7973  1.0000
  O   O182      1.0  0.7794000000000002  0.9581000000000002  0.748  1.0000
  O   O183      1.0  0.5621000000000002  0.8048  0.7441  1.0000
  O   O184      1.0  0.5599000000000001  0.8526  0.7938  1.0000
  O   O185      1.0  0.7835  0.7090000000000002  0.6491  1.0000
  O   O186      1.0  0.7147000000000001  0.6745  0.6147  1.0000
  O   O187      1.0  0.5606  0.8160000000000002  0.541  1.0000
  O   O188      1.0  0.5613  0.7462  0.5419  1.0000
  O   O189      1.0  0.7996  0.0426  0.8541  1.0000
  O   O190      1.0  0.8696000000000002  0.0428  0.8048  1.0000
  O   O191      1.0  0.87  0.6688000000000002  0.6083  1.0000
  O   O192      1.0  0.8014  0.6317  0.5744  1.0000
