data_image0
_chemical_formula_structural       Cu12H165C261N9O48Cu12H165C261N9O48
_chemical_formula_sum              "Cu24 H330 C522 N18 O96"
_cell_length_a       33.4232
_cell_length_b       33.423199999999994
_cell_length_c       33.423199999999994
_cell_angle_alpha    60.49519999999998
_cell_angle_beta     60.49519999999999
_cell_angle_gamma    60.49519999999999

_symmetry_space_group_name_H-M    'P 1'
_symmetry_Int_Tables_number       1

loop_
  _symmetry_equiv_pos_as_xyz
  'x,y,z'

loop_
  _atom_site_type_symbol
  _atom_site_label
  _atom_site_symmetry_multiplicity
  _atom_site_fract_x
  _atom_site_fract_y
  _atom_site_fract_z
  _atom_site_occupancy
  Cu  Cu1       1.0  0.13285999999999998  0.5942299999999999  0.054620000000000016  1.0000
  Cu  Cu2       1.0  0.05461999999999994  0.13285999999999992  0.5942300000000003  1.0000
  Cu  Cu3       1.0  0.5942300000000003  0.05462000000000001  0.13286  1.0000
  Cu  Cu4       1.0  0.5942300000000003  0.13286  0.054620000000000016  1.0000
  Cu  Cu5       1.0  0.13285999999999995  0.05461999999999994  0.5942300000000003  1.0000
  Cu  Cu6       1.0  0.05462000000000005  0.5942299999999999  0.13286  1.0000
  Cu  Cu7       1.0  0.055529999999999836  0.5931  0.5931000000000002  1.0000
  Cu  Cu8       1.0  0.13299999999999995  0.59467  0.59467  1.0000
  Cu  Cu9       1.0  0.5930999999999998  0.05552999999999992  0.5931000000000002  1.0000
  Cu  Cu10      1.0  0.59467  0.13299999999999998  0.59467  1.0000
  Cu  Cu11      1.0  0.5931  0.5931  0.05553  1.0000
  Cu  Cu12      1.0  0.59467  0.59467  0.133  1.0000
  H   H1        1.0  0.9725000000000001  0.5655  0.0881  1.0000
  H   H2        1.0  0.9324999999999999  0.5657  0.0481  1.0000
  H   H3        1.0  0.014499999999999983  0.5670999999999999  0.8963000000000001  1.0000
  H   H4        1.0  0.029099999999999907  0.6034  0.8175  1.0000
  H   H5        1.0  0.0703  0.6047  0.7384  1.0000
  H   H6        1.0  0.9498999999999996  0.5335  0.8349000000000002  1.0000
  H   H7        1.0  0.9887  0.5387999999999997  0.7542  1.0000
  H   H8        1.0  0.10089999999999992  0.6199  0.21470000000000006  1.0000
  H   H9        1.0  0.13860000000000022  0.6263999999999997  0.253  1.0000
  H   H10       1.0  0.17239999999999994  0.6216999999999999  0.2911000000000001  1.0000
  H   H11       1.0  0.1514  0.5932  0.3685000000000001  1.0000
  H   H12       1.0  0.11319999999999998  0.59  0.4477  1.0000
  H   H13       1.0  0.21320000000000006  0.6271999999999999  0.4392000000000001  1.0000
  H   H14       1.0  0.25040000000000007  0.634  0.35830000000000006  1.0000
  H   H15       1.0  0.969  0.7462  0.08400000000000003  1.0000
  H   H16       1.0  0.9302000000000001  0.8246  0.04590000000000002  1.0000
  H   H17       1.0  0.10569999999999999  0.4441  0.22270000000000004  1.0000
  H   H18       1.0  0.1458  0.3669  0.2619  1.0000
  H   H19       1.0  0.29199999999999987  0.6014  0.8722000000000001  1.0000
  H   H20       1.0  0.1744999999999999  0.5610999999999999  0.9712000000000002  1.0000
  H   H21       1.0  0.23779999999999998  0.5631  0.8969000000000003  1.0000
  H   H22       1.0  0.2837999999999999  0.6367999999999998  0.9218000000000002  1.0000
  H   H23       1.0  0.22019999999999984  0.6345999999999999  0.9960000000000002  1.0000
  H   H24       1.0  0.08809999999999987  0.9724999999999999  0.5655000000000002  1.0000
  H   H25       1.0  0.04809999999999992  0.9324999999999999  0.5657000000000001  1.0000
  H   H26       1.0  0.8962999999999999  0.014500000000000002  0.5671  1.0000
  H   H27       1.0  0.8174999999999999  0.029099999999999987  0.6034  1.0000
  H   H28       1.0  0.7384  0.07030000000000002  0.6047  1.0000
  H   H29       1.0  0.8348999999999998  0.9499  0.5335000000000001  1.0000
  H   H30       1.0  0.7541999999999998  0.9887  0.5388000000000001  1.0000
  H   H31       1.0  0.21469999999999992  0.10089999999999992  0.6199000000000002  1.0000
  H   H32       1.0  0.25300000000000006  0.1386  0.6264  1.0000
  H   H33       1.0  0.2911000000000002  0.1723999999999999  0.6217000000000003  1.0000
  H   H34       1.0  0.3685000000000002  0.1514  0.5932  1.0000
  H   H35       1.0  0.4476999999999999  0.11319999999999993  0.5900000000000002  1.0000
  H   H36       1.0  0.4391999999999998  0.21319999999999992  0.6272000000000002  1.0000
  H   H37       1.0  0.3583000000000004  0.2504  0.634  1.0000
  H   H38       1.0  0.08400000000000009  0.9689999999999999  0.7462  1.0000
  H   H39       1.0  0.04589999999999985  0.9302  0.8246000000000001  1.0000
  H   H40       1.0  0.22269999999999998  0.10569999999999993  0.4441000000000001  1.0000
  H   H41       1.0  0.2619  0.1458  0.3669  1.0000
  H   H42       1.0  0.8721999999999999  0.2920000000000001  0.6014  1.0000
  H   H43       1.0  0.9711999999999997  0.17450000000000002  0.5611  1.0000
  H   H44       1.0  0.8969000000000003  0.23780000000000004  0.5631  1.0000
  H   H45       1.0  0.9218000000000003  0.2838  0.6368  1.0000
  H   H46       1.0  0.9960000000000001  0.2202  0.6346  1.0000
  H   H47       1.0  0.5655000000000001  0.08809999999999994  0.9725000000000003  1.0000
  H   H48       1.0  0.5657000000000001  0.04809999999999991  0.9325000000000002  1.0000
  H   H49       1.0  0.5671  0.8963  0.014500000000000004  1.0000
  H   H50       1.0  0.6033999999999999  0.8175  0.029100000000000008  1.0000
  H   H51       1.0  0.6047  0.7384  0.07030000000000003  1.0000
  H   H52       1.0  0.5334999999999999  0.8348999999999999  0.9499000000000002  1.0000
  H   H53       1.0  0.5388000000000002  0.7542  0.9887000000000002  1.0000
  H   H54       1.0  0.6199  0.2147  0.10090000000000003  1.0000
  H   H55       1.0  0.6263999999999998  0.25300000000000006  0.13860000000000003  1.0000
  H   H56       1.0  0.6217000000000001  0.2911  0.17240000000000003  1.0000
  H   H57       1.0  0.5932  0.3685  0.1514  1.0000
  H   H58       1.0  0.5900000000000002  0.4477  0.11320000000000001  1.0000
  H   H59       1.0  0.6272000000000001  0.4392  0.21320000000000006  1.0000
  H   H60       1.0  0.634  0.3583  0.2504  1.0000
  H   H61       1.0  0.7462  0.08399999999999995  0.9690000000000002  1.0000
  H   H62       1.0  0.8245999999999999  0.04589999999999994  0.9302000000000001  1.0000
  H   H63       1.0  0.4441  0.2227  0.1057  1.0000
  H   H64       1.0  0.3669  0.2619  0.14580000000000007  1.0000
  H   H65       1.0  0.6014  0.8722  0.29200000000000004  1.0000
  H   H66       1.0  0.5611  0.9712  0.17450000000000002  1.0000
  H   H67       1.0  0.5631000000000003  0.8969  0.2378  1.0000
  H   H68       1.0  0.6368  0.9218  0.2838000000000001  1.0000
  H   H69       1.0  0.6346  0.996  0.2202  1.0000
  H   H70       1.0  0.5655000000000002  0.9725  0.0881  1.0000
  H   H71       1.0  0.5657000000000003  0.9324999999999999  0.0481  1.0000
  H   H72       1.0  0.5671  0.014499999999999942  0.8963000000000001  1.0000
  H   H73       1.0  0.6034  0.029100000000000018  0.8175  1.0000
  H   H74       1.0  0.6047000000000001  0.07030000000000002  0.7384  1.0000
  H   H75       1.0  0.5334999999999996  0.9499  0.8349000000000002  1.0000
  H   H76       1.0  0.5388000000000002  0.9886999999999999  0.7542  1.0000
  H   H77       1.0  0.6199  0.10089999999999999  0.21470000000000006  1.0000
  H   H78       1.0  0.6264000000000001  0.1386  0.253  1.0000
  H   H79       1.0  0.6217000000000001  0.17239999999999997  0.2911000000000001  1.0000
  H   H80       1.0  0.5932  0.15139999999999998  0.3685000000000001  1.0000
  H   H81       1.0  0.5900000000000003  0.11319999999999998  0.4477  1.0000
  H   H82       1.0  0.6272  0.21319999999999997  0.4392000000000001  1.0000
  H   H83       1.0  0.6340000000000001  0.25040000000000007  0.35830000000000006  1.0000
  H   H84       1.0  0.7461999999999996  0.969  0.08400000000000003  1.0000
  H   H85       1.0  0.8246  0.9302  0.04590000000000002  1.0000
  H   H86       1.0  0.44410000000000005  0.10569999999999997  0.22270000000000004  1.0000
  H   H87       1.0  0.3669  0.1458  0.2619  1.0000
  H   H88       1.0  0.6014000000000002  0.2919999999999999  0.8722000000000001  1.0000
  H   H89       1.0  0.5610999999999999  0.17449999999999988  0.9712000000000002  1.0000
  H   H90       1.0  0.5631000000000003  0.23779999999999993  0.8969000000000003  1.0000
  H   H91       1.0  0.6367999999999999  0.28379999999999994  0.9218000000000002  1.0000
  H   H92       1.0  0.6345999999999998  0.22019999999999998  0.9960000000000002  1.0000
  H   H93       1.0  0.9724999999999999  0.08809999999999994  0.5655000000000002  1.0000
  H   H94       1.0  0.9325  0.04809999999999997  0.5657000000000001  1.0000
  H   H95       1.0  0.01449999999999993  0.8963000000000001  0.5671  1.0000
  H   H96       1.0  0.02910000000000001  0.8175  0.6034  1.0000
  H   H97       1.0  0.0703  0.7384  0.6047  1.0000
  H   H98       1.0  0.9498999999999997  0.8349  0.5335000000000001  1.0000
  H   H99       1.0  0.9886999999999999  0.7542  0.5388000000000001  1.0000
  H   H100      1.0  0.10089999999999989  0.21469999999999992  0.6199000000000002  1.0000
  H   H101      1.0  0.13859999999999997  0.253  0.6264  1.0000
  H   H102      1.0  0.17239999999999997  0.29109999999999997  0.6217000000000003  1.0000
  H   H103      1.0  0.15140000000000003  0.3685  0.5932  1.0000
  H   H104      1.0  0.11319999999999991  0.44769999999999993  0.5900000000000002  1.0000
  H   H105      1.0  0.2131999999999999  0.4391999999999999  0.6272000000000002  1.0000
  H   H106      1.0  0.25040000000000007  0.3583  0.634  1.0000
  H   H107      1.0  0.969  0.084  0.7462  1.0000
  H   H108      1.0  0.9302  0.04589999999999997  0.8246000000000001  1.0000
  H   H109      1.0  0.10569999999999995  0.22269999999999998  0.4441000000000001  1.0000
  H   H110      1.0  0.14580000000000007  0.2618999999999999  0.3669  1.0000
  H   H111      1.0  0.29200000000000004  0.8722  0.6014  1.0000
  H   H112      1.0  0.17449999999999996  0.9712  0.5611  1.0000
  H   H113      1.0  0.23779999999999998  0.8969000000000001  0.5631  1.0000
  H   H114      1.0  0.28379999999999983  0.9218  0.6368  1.0000
  H   H115      1.0  0.22019999999999984  0.996  0.6346  1.0000
  H   H116      1.0  0.08809999999999998  0.5654999999999999  0.9725000000000003  1.0000
  H   H117      1.0  0.048099999999999865  0.5657  0.9325000000000002  1.0000
  H   H118      1.0  0.8963  0.5671  0.014500000000000004  1.0000
  H   H119      1.0  0.8175  0.6034  0.029100000000000008  1.0000
  H   H120      1.0  0.7384000000000001  0.6047  0.07030000000000003  1.0000
  H   H121      1.0  0.8348999999999999  0.5335  0.9499000000000002  1.0000
  H   H122      1.0  0.7542  0.5387999999999998  0.9887000000000002  1.0000
  H   H123      1.0  0.21469999999999997  0.6199  0.10090000000000003  1.0000
  H   H124      1.0  0.25300000000000006  0.6263999999999997  0.13860000000000003  1.0000
  H   H125      1.0  0.2911000000000002  0.6216999999999999  0.17240000000000003  1.0000
  H   H126      1.0  0.3685000000000002  0.5932  0.1514  1.0000
  H   H127      1.0  0.4476999999999999  0.59  0.11320000000000001  1.0000
  H   H128      1.0  0.4392  0.6272  0.21320000000000006  1.0000
  H   H129      1.0  0.3583000000000003  0.634  0.2504  1.0000
  H   H130      1.0  0.08399999999999992  0.7462  0.9690000000000002  1.0000
  H   H131      1.0  0.045899999999999955  0.8246  0.9302000000000001  1.0000
  H   H132      1.0  0.22270000000000004  0.4441  0.1057  1.0000
  H   H133      1.0  0.2619  0.3669  0.14580000000000007  1.0000
  H   H134      1.0  0.8722  0.6014  0.29200000000000004  1.0000
  H   H135      1.0  0.9712  0.5611  0.17450000000000002  1.0000
  H   H136      1.0  0.8969000000000001  0.5631  0.2378  1.0000
  H   H137      1.0  0.9218000000000001  0.6368  0.2838000000000001  1.0000
  H   H138      1.0  0.9960000000000001  0.6346  0.2202  1.0000
  H   H139      1.0  0.024299999999999943  0.55175  0.5517500000000001  1.0000
  H   H140      1.0  0.9454  0.5564  0.5564000000000001  1.0000
  H   H141      1.0  0.8869  0.5891  0.5891000000000001  1.0000
  H   H142      1.0  0.8739000000000001  0.6336999999999997  0.6337000000000003  1.0000
  H   H143      1.0  0.9474999999999999  0.63245  0.63245  1.0000
  H   H144      1.0  0.5517499999999999  0.02429999999999997  0.5517500000000001  1.0000
  H   H145      1.0  0.5564000000000001  0.9454  0.5564000000000001  1.0000
  H   H146      1.0  0.5891  0.8869  0.5891000000000001  1.0000
  H   H147      1.0  0.6337000000000002  0.8738999999999999  0.6337000000000003  1.0000
  H   H148      1.0  0.6324500000000002  0.9475000000000001  0.63245  1.0000
  H   H149      1.0  0.5517499999999999  0.55175  0.0243  1.0000
  H   H150      1.0  0.5564000000000001  0.5564  0.9454  1.0000
  H   H151      1.0  0.5890999999999995  0.5891  0.8869000000000002  1.0000
  H   H152      1.0  0.6336999999999999  0.6337  0.8739  1.0000
  H   H153      1.0  0.6324500000000001  0.63245  0.9475000000000002  1.0000
  H   H154      1.0  0.8953000000000002  0.5666999999999999  0.8953000000000002  1.0000
  H   H155      1.0  0.8953  0.8953  0.5667000000000001  1.0000
  H   H156      1.0  0.5667000000000001  0.8952999999999997  0.8953000000000002  1.0000
  H   H157      1.0  0.2943  0.6136  0.2943  1.0000
  H   H158      1.0  0.29429999999999995  0.2943  0.6136  1.0000
  H   H159      1.0  0.6136  0.2943  0.2943  1.0000
  H   H160      1.0  0.89505  0.89505  0.013300000000000003  1.0000
  H   H161      1.0  0.013299999999999952  0.8950499999999998  0.8950500000000002  1.0000
  H   H162      1.0  0.8950499999999999  0.013299999999999914  0.8950500000000002  1.0000
  H   H163      1.0  0.2972000000000001  0.2972  0.17810000000000004  1.0000
  H   H164      1.0  0.17810000000000004  0.29719999999999996  0.2972  1.0000
  H   H165      1.0  0.29719999999999996  0.1781  0.2972  1.0000
  C   C1        1.0  0.9878900000000002  0.56778  0.055430000000000014  1.0000
  C   C2        1.0  0.9642100000000001  0.5667899999999999  0.03147  1.0000
  C   C3        1.0  0.9826499999999998  0.5666999999999999  0.9121700000000003  1.0000
  C   C4        1.0  0.9841900000000001  0.56844  0.8361700000000002  1.0000
  C   C5        1.0  0.020839999999999973  0.5899799999999998  0.8052500000000002  1.0000
  C   C6        1.0  0.04490000000000007  0.5918699999999998  0.7574000000000002  1.0000
  C   C7        1.0  0.9732399999999999  0.5488699999999997  0.8156000000000002  1.0000
  C   C8        1.0  0.99669  0.55214  0.7668  1.0000
  C   C9        1.0  0.030849999999999822  0.57426  0.7372500000000002  1.0000
  C   C10       1.0  0.05528999999999983  0.57937  0.6844200000000003  1.0000
  C   C11       1.0  0.9593499999999999  0.56666  0.88691  1.0000
  C   C12       1.0  0.13279000000000002  0.62025  0.19848000000000005  1.0000
  C   C13       1.0  0.15609  0.62352  0.22207000000000002  1.0000
  C   C14       1.0  0.20475000000000004  0.62081  0.27563  1.0000
  C   C15       1.0  0.22937000000000007  0.6178799999999998  0.3014600000000001  1.0000
  C   C16       1.0  0.20451000000000003  0.6152399999999999  0.3536200000000001  1.0000
  C   C17       1.0  0.16396999999999992  0.6013  0.3820600000000001  1.0000
  C   C18       1.0  0.14127000000000003  0.5988100000000001  0.42990000000000006  1.0000
  C   C19       1.0  0.15879000000000001  0.60873  0.45199  1.0000
  C   C20       1.0  0.20006000000000002  0.62119  0.4247800000000001  1.0000
  C   C21       1.0  0.22269  0.62493  0.37612  1.0000
  C   C22       1.0  0.13373999999999991  0.60602  0.50384  1.0000
  C   C23       1.0  0.9851999999999997  0.7617  0.05194  1.0000
  C   C24       1.0  0.9619200000000001  0.80927  0.029120000000000007  1.0000
  C   C25       1.0  0.13766  0.42894  0.20629  1.0000
  C   C26       1.0  0.16179  0.38216  0.22969  1.0000
  C   C27       1.0  0.2669499999999999  0.6002799999999999  0.9019700000000003  1.0000
  C   C28       1.0  0.1970699999999998  0.5755  0.9612300000000003  1.0000
  C   C29       1.0  0.2344800000000002  0.5772799999999999  0.91676  1.0000
  C   C30       1.0  0.26201  0.6215099999999999  0.9316400000000002  1.0000
  C   C31       1.0  0.2246100000000002  0.6197299999999999  0.97613  1.0000
  C   C32       1.0  0.05543000000000011  0.98789  0.56778  1.0000
  C   C33       1.0  0.0314699999999999  0.96421  0.5667900000000001  1.0000
  C   C34       1.0  0.91217  0.9826499999999999  0.5667000000000001  1.0000
  C   C35       1.0  0.8361699999999999  0.9841899999999999  0.5684400000000001  1.0000
  C   C36       1.0  0.8052499999999998  0.02083999999999993  0.5899800000000002  1.0000
  C   C37       1.0  0.7574000000000003  0.044899999999999905  0.5918700000000002  1.0000
  C   C38       1.0  0.8156000000000001  0.97324  0.54887  1.0000
  C   C39       1.0  0.7667999999999999  0.99669  0.55214  1.0000
  C   C40       1.0  0.7372500000000001  0.030849999999999916  0.5742600000000002  1.0000
  C   C41       1.0  0.68442  0.05528999999999996  0.5793700000000002  1.0000
  C   C42       1.0  0.8869100000000003  0.95935  0.56666  1.0000
  C   C43       1.0  0.19847999999999993  0.13279000000000002  0.62025  1.0000
  C   C44       1.0  0.22206999999999985  0.15608999999999995  0.6235200000000002  1.0000
  C   C45       1.0  0.27563000000000004  0.20475  0.62081  1.0000
  C   C46       1.0  0.3014599999999998  0.2293699999999999  0.6178800000000002  1.0000
  C   C47       1.0  0.35362000000000016  0.20451  0.61524  1.0000
  C   C48       1.0  0.3820599999999999  0.16396999999999995  0.6013000000000002  1.0000
  C   C49       1.0  0.42989999999999995  0.14126999999999992  0.5988100000000002  1.0000
  C   C50       1.0  0.45199000000000006  0.15879  0.60873  1.0000
  C   C51       1.0  0.42477999999999994  0.20006  0.62119  1.0000
  C   C52       1.0  0.37612  0.22268999999999992  0.6249300000000002  1.0000
  C   C53       1.0  0.50384  0.13373999999999991  0.6060200000000002  1.0000
  C   C54       1.0  0.051939999999999965  0.9852000000000001  0.7617  1.0000
  C   C55       1.0  0.029119999999999913  0.9619199999999999  0.8092700000000003  1.0000
  C   C56       1.0  0.20629000000000008  0.13765999999999998  0.4289400000000001  1.0000
  C   C57       1.0  0.22968999999999995  0.16179  0.3821600000000001  1.0000
  C   C58       1.0  0.90197  0.26695  0.60028  1.0000
  C   C59       1.0  0.96123  0.19707000000000002  0.5755  1.0000
  C   C60       1.0  0.9167600000000002  0.2344799999999999  0.5772800000000001  1.0000
  C   C61       1.0  0.93164  0.26201  0.62151  1.0000
  C   C62       1.0  0.9761300000000002  0.22461  0.61973  1.0000
  C   C63       1.0  0.5677799999999998  0.05542999999999991  0.9878900000000003  1.0000
  C   C64       1.0  0.56679  0.03146999999999994  0.9642100000000002  1.0000
  C   C65       1.0  0.5666999999999999  0.9121699999999999  0.9826500000000001  1.0000
  C   C66       1.0  0.5684400000000001  0.83617  0.9841900000000002  1.0000
  C   C67       1.0  0.58998  0.80525  0.02084  1.0000
  C   C68       1.0  0.5918700000000002  0.7574  0.044900000000000016  1.0000
  C   C69       1.0  0.5488699999999999  0.8156  0.9732400000000002  1.0000
  C   C70       1.0  0.5521399999999999  0.7668  0.9966900000000002  1.0000
  C   C71       1.0  0.57426  0.73725  0.030850000000000006  1.0000
  C   C72       1.0  0.57937  0.68442  0.05529  1.0000
  C   C73       1.0  0.5666599999999998  0.8869100000000001  0.95935  1.0000
  C   C74       1.0  0.62025  0.19848  0.13279  1.0000
  C   C75       1.0  0.62352  0.22207  0.15609  1.0000
  C   C76       1.0  0.62081  0.27562999999999993  0.20475  1.0000
  C   C77       1.0  0.61788  0.30146  0.22937  1.0000
  C   C78       1.0  0.61524  0.35361999999999993  0.20451000000000003  1.0000
  C   C79       1.0  0.6013  0.38205999999999996  0.16397  1.0000
  C   C80       1.0  0.5988100000000004  0.42989999999999995  0.14127  1.0000
  C   C81       1.0  0.60873  0.45199  0.15879  1.0000
  C   C82       1.0  0.6211900000000002  0.42478  0.20006  1.0000
  C   C83       1.0  0.6249299999999999  0.3761199999999999  0.22269000000000005  1.0000
  C   C84       1.0  0.60602  0.50384  0.13374000000000003  1.0000
  C   C85       1.0  0.7616999999999999  0.051939999999999924  0.9852000000000002  1.0000
  C   C86       1.0  0.8092699999999998  0.029119999999999972  0.9619200000000002  1.0000
  C   C87       1.0  0.42894  0.20629  0.13766000000000003  1.0000
  C   C88       1.0  0.38216000000000017  0.22968999999999998  0.16179  1.0000
  C   C89       1.0  0.60028  0.90197  0.26695  1.0000
  C   C90       1.0  0.5755  0.96123  0.19707000000000005  1.0000
  C   C91       1.0  0.5772800000000001  0.91676  0.23448  1.0000
  C   C92       1.0  0.6215100000000001  0.93164  0.2620100000000001  1.0000
  C   C93       1.0  0.6197300000000001  0.97613  0.22461000000000006  1.0000
  C   C94       1.0  0.5677799999999998  0.98789  0.055430000000000014  1.0000
  C   C95       1.0  0.5667900000000001  0.96421  0.03147  1.0000
  C   C96       1.0  0.5666999999999996  0.98265  0.9121700000000003  1.0000
  C   C97       1.0  0.5684400000000001  0.9841899999999998  0.8361700000000002  1.0000
  C   C98       1.0  0.5899800000000001  0.0208399999999999  0.8052500000000002  1.0000
  C   C99       1.0  0.5918700000000002  0.044899999999999905  0.7574000000000002  1.0000
  C   C100      1.0  0.5488699999999999  0.97324  0.8156000000000002  1.0000
  C   C101      1.0  0.5521399999999999  0.99669  0.7668  1.0000
  C   C102      1.0  0.57426  0.030849999999999947  0.7372500000000002  1.0000
  C   C103      1.0  0.5793699999999999  0.055289999999999895  0.6844200000000003  1.0000
  C   C104      1.0  0.5666599999999998  0.9593499999999999  0.88691  1.0000
  C   C105      1.0  0.62025  0.13278999999999996  0.19848000000000005  1.0000
  C   C106      1.0  0.62352  0.15609  0.22207000000000002  1.0000
  C   C107      1.0  0.6208099999999999  0.20474999999999996  0.27563  1.0000
  C   C108      1.0  0.6178800000000001  0.22936999999999996  0.3014600000000001  1.0000
  C   C109      1.0  0.61524  0.20450999999999997  0.3536200000000001  1.0000
  C   C110      1.0  0.6013000000000002  0.16396999999999998  0.3820600000000001  1.0000
  C   C111      1.0  0.5988100000000003  0.14127000000000003  0.42990000000000006  1.0000
  C   C112      1.0  0.60873  0.15879000000000001  0.45199  1.0000
  C   C113      1.0  0.6211900000000002  0.20006  0.4247800000000001  1.0000
  C   C114      1.0  0.6249299999999999  0.22268999999999997  0.37612  1.0000
  C   C115      1.0  0.6060199999999999  0.13373999999999997  0.50384  1.0000
  C   C116      1.0  0.7617  0.9852  0.05194  1.0000
  C   C117      1.0  0.80927  0.96192  0.029120000000000007  1.0000
  C   C118      1.0  0.42893999999999993  0.13766  0.20629  1.0000
  C   C119      1.0  0.38216000000000017  0.16179  0.22969  1.0000
  C   C120      1.0  0.60028  0.26694999999999985  0.9019700000000003  1.0000
  C   C121      1.0  0.5755  0.19706999999999997  0.9612300000000003  1.0000
  C   C122      1.0  0.5772800000000001  0.23447999999999997  0.91676  1.0000
  C   C123      1.0  0.6215099999999997  0.26200999999999997  0.9316400000000002  1.0000
  C   C124      1.0  0.6197300000000001  0.22460999999999998  0.97613  1.0000
  C   C125      1.0  0.9878900000000002  0.05543  0.56778  1.0000
  C   C126      1.0  0.9642099999999999  0.03146999999999994  0.5667900000000001  1.0000
  C   C127      1.0  0.9826499999999998  0.91217  0.5667000000000001  1.0000
  C   C128      1.0  0.9841899999999999  0.83617  0.5684400000000001  1.0000
  C   C129      1.0  0.020839999999999973  0.8052499999999999  0.5899800000000002  1.0000
  C   C130      1.0  0.04490000000000007  0.7573999999999997  0.5918700000000002  1.0000
  C   C131      1.0  0.9732399999999999  0.8156  0.54887  1.0000
  C   C132      1.0  0.99669  0.7668  0.55214  1.0000
  C   C133      1.0  0.030849999999999874  0.73725  0.5742600000000002  1.0000
  C   C134      1.0  0.05528999999999999  0.68442  0.5793700000000002  1.0000
  C   C135      1.0  0.9593499999999999  0.88691  0.56666  1.0000
  C   C136      1.0  0.13279000000000007  0.19848  0.62025  1.0000
  C   C137      1.0  0.15608999999999998  0.22206999999999993  0.6235200000000002  1.0000
  C   C138      1.0  0.20475000000000002  0.27562999999999993  0.62081  1.0000
  C   C139      1.0  0.2293699999999999  0.3014599999999999  0.6178800000000002  1.0000
  C   C140      1.0  0.2045100000000001  0.35361999999999993  0.61524  1.0000
  C   C141      1.0  0.1639699999999999  0.38205999999999996  0.6013000000000002  1.0000
  C   C142      1.0  0.14127  0.42989999999999984  0.5988100000000002  1.0000
  C   C143      1.0  0.15879000000000001  0.45199  0.60873  1.0000
  C   C144      1.0  0.20005999999999996  0.42478  0.62119  1.0000
  C   C145      1.0  0.22268999999999992  0.37611999999999984  0.6249300000000002  1.0000
  C   C146      1.0  0.13373999999999986  0.5038399999999998  0.6060200000000002  1.0000
  C   C147      1.0  0.9851999999999997  0.051939999999999986  0.7617  1.0000
  C   C148      1.0  0.9619199999999999  0.02911999999999994  0.8092700000000003  1.0000
  C   C149      1.0  0.13765999999999998  0.20628999999999995  0.4289400000000001  1.0000
  C   C150      1.0  0.16179  0.22968999999999998  0.3821600000000001  1.0000
  C   C151      1.0  0.2669499999999999  0.90197  0.60028  1.0000
  C   C152      1.0  0.19706999999999997  0.9612300000000001  0.5755  1.0000
  C   C153      1.0  0.23447999999999977  0.91676  0.5772800000000001  1.0000
  C   C154      1.0  0.26201000000000013  0.9316399999999999  0.62151  1.0000
  C   C155      1.0  0.2246100000000002  0.9761299999999999  0.61973  1.0000
  C   C156      1.0  0.05542999999999995  0.5677799999999997  0.9878900000000003  1.0000
  C   C157      1.0  0.0314699999999999  0.5667899999999999  0.9642100000000002  1.0000
  C   C158      1.0  0.9121700000000001  0.5667  0.9826500000000001  1.0000
  C   C159      1.0  0.83617  0.56844  0.9841900000000002  1.0000
  C   C160      1.0  0.8052500000000004  0.58998  0.02084  1.0000
  C   C161      1.0  0.7573999999999999  0.59187  0.044900000000000016  1.0000
  C   C162      1.0  0.8155999999999999  0.5488699999999999  0.9732400000000002  1.0000
  C   C163      1.0  0.7667999999999999  0.55214  0.9966900000000002  1.0000
  C   C164      1.0  0.73725  0.57426  0.030850000000000006  1.0000
  C   C165      1.0  0.6844199999999999  0.57937  0.05529  1.0000
  C   C166      1.0  0.8869100000000003  0.5666600000000002  0.95935  1.0000
  C   C167      1.0  0.19848000000000005  0.62025  0.13279  1.0000
  C   C168      1.0  0.22207000000000002  0.62352  0.15609  1.0000
  C   C169      1.0  0.27563000000000004  0.62081  0.20475  1.0000
  C   C170      1.0  0.3014600000000001  0.61788  0.22937  1.0000
  C   C171      1.0  0.3536200000000002  0.6152399999999999  0.20451000000000003  1.0000
  C   C172      1.0  0.38205999999999996  0.6013  0.16397  1.0000
  C   C173      1.0  0.42989999999999995  0.5988100000000001  0.14127  1.0000
  C   C174      1.0  0.4519900000000002  0.60873  0.15879  1.0000
  C   C175      1.0  0.42477999999999994  0.62119  0.20006  1.0000
  C   C176      1.0  0.37611999999999995  0.62493  0.22269000000000005  1.0000
  C   C177      1.0  0.5038400000000001  0.60602  0.13374000000000003  1.0000
  C   C178      1.0  0.05193999999999986  0.7617  0.9852000000000002  1.0000
  C   C179      1.0  0.02911999999999986  0.80927  0.9619200000000002  1.0000
  C   C180      1.0  0.20628999999999997  0.42894  0.13766000000000003  1.0000
  C   C181      1.0  0.22968999999999998  0.38216  0.16179  1.0000
  C   C182      1.0  0.90197  0.60028  0.26695  1.0000
  C   C183      1.0  0.96123  0.5755  0.19707000000000005  1.0000
  C   C184      1.0  0.9167600000000005  0.5772799999999999  0.23448  1.0000
  C   C185      1.0  0.9316399999999999  0.6215099999999999  0.2620100000000001  1.0000
  C   C186      1.0  0.9761300000000002  0.6197299999999999  0.22461000000000006  1.0000
  C   C187      1.0  0.9946500000000001  0.56936  0.5693600000000001  1.0000
  C   C188      1.0  0.94445  0.57287  0.57286  1.0000
  C   C189      1.0  0.9138499999999999  0.58996  0.5899600000000003  1.0000
  C   C190      1.0  0.9048699999999995  0.6169099999999998  0.6169100000000002  1.0000
  C   C191      1.0  0.9499500000000002  0.6155599999999998  0.6155600000000001  1.0000
  C   C192      1.0  0.5693599999999998  0.99465  0.5693600000000001  1.0000
  C   C193      1.0  0.5728600000000004  0.94445  0.57286  1.0000
  C   C194      1.0  0.5899599999999999  0.91385  0.5899600000000003  1.0000
  C   C195      1.0  0.6169099999999995  0.9048699999999998  0.6169100000000002  1.0000
  C   C196      1.0  0.61556  0.94995  0.6155600000000001  1.0000
  C   C197      1.0  0.5693600000000003  0.56936  0.9946500000000003  1.0000
  C   C198      1.0  0.5728699999999999  0.5728599999999998  0.9444500000000002  1.0000
  C   C199      1.0  0.5899599999999999  0.58996  0.9138500000000003  1.0000
  C   C200      1.0  0.6169099999999997  0.6169099999999998  0.9048700000000002  1.0000
  C   C201      1.0  0.61556  0.6155599999999998  0.9499500000000002  1.0000
  C   C202      1.0  0.05665999999999994  0.5765  0.056660000000000016  1.0000
  C   C203      1.0  0.032430000000000084  0.5718899999999999  0.03243  1.0000
  C   C204      1.0  0.98539  0.5672099999999999  0.9853900000000001  1.0000
  C   C205      1.0  0.9598100000000002  0.5661399999999999  0.9598100000000003  1.0000
  C   C206      1.0  0.9113900000000001  0.5666499999999998  0.91139  1.0000
  C   C207      1.0  0.054410000000000056  0.68411  0.05441000000000001  1.0000
  C   C208      1.0  0.029969999999999993  0.73674  0.029970000000000004  1.0000
  C   C209      1.0  0.9833999999999999  0.8343199999999998  0.9834000000000003  1.0000
  C   C210      1.0  0.95821  0.88632  0.9582100000000001  1.0000
  C   C211      1.0  0.13414999999999996  0.50498  0.13415000000000005  1.0000
  C   C212      1.0  0.15945000000000004  0.45353999999999994  0.15945000000000004  1.0000
  C   C213      1.0  0.20788999999999994  0.35705  0.20789  1.0000
  C   C214      1.0  0.23370000000000016  0.30635  0.2337  1.0000
  C   C215      1.0  0.05666000000000002  0.05666  0.5765  1.0000
  C   C216      1.0  0.032430000000000014  0.032429999999999945  0.5718900000000001  1.0000
  C   C217      1.0  0.9853900000000002  0.9853899999999999  0.56721  1.0000
  C   C218      1.0  0.9598100000000004  0.9598099999999998  0.5661400000000002  1.0000
  C   C219      1.0  0.91139  0.91139  0.56665  1.0000
  C   C220      1.0  0.054410000000000014  0.054409999999999986  0.68411  1.0000
  C   C221      1.0  0.029970000000000007  0.02997  0.73674  1.0000
  C   C222      1.0  0.9834000000000002  0.9834  0.83432  1.0000
  C   C223      1.0  0.95821  0.9582100000000001  0.88632  1.0000
  C   C224      1.0  0.13414999999999996  0.13415000000000002  0.50498  1.0000
  C   C225      1.0  0.15945  0.15945  0.45354  1.0000
  C   C226      1.0  0.20788999999999996  0.20789  0.35705  1.0000
  C   C227      1.0  0.23370000000000016  0.2337  0.30635  1.0000
  C   C228      1.0  0.5765  0.056659999999999995  0.056660000000000016  1.0000
  C   C229      1.0  0.5718900000000002  0.03243  0.03243  1.0000
  C   C230      1.0  0.56721  0.9853899999999999  0.9853900000000001  1.0000
  C   C231      1.0  0.5661400000000003  0.95981  0.9598100000000003  1.0000
  C   C232      1.0  0.5666499999999999  0.91139  0.91139  1.0000
  C   C233      1.0  0.6841100000000001  0.05440999999999999  0.05441000000000001  1.0000
  C   C234      1.0  0.73674  0.02997  0.029970000000000004  1.0000
  C   C235      1.0  0.8343200000000001  0.9833999999999998  0.9834000000000003  1.0000
  C   C236      1.0  0.88632  0.9582100000000001  0.9582100000000001  1.0000
  C   C237      1.0  0.50498  0.13415000000000002  0.13415000000000005  1.0000
  C   C238      1.0  0.45353999999999994  0.15945  0.15945000000000004  1.0000
  C   C239      1.0  0.35705  0.20789  0.20789  1.0000
  C   C240      1.0  0.30635000000000007  0.2337  0.2337  1.0000
  C   C241      1.0  0.1306  0.61214  0.1306  1.0000
  C   C242      1.0  0.15472000000000002  0.61766  0.15472  1.0000
  C   C243      1.0  0.20169999999999993  0.62264  0.2017  1.0000
  C   C244      1.0  0.22759  0.62216  0.22759  1.0000
  C   C245      1.0  0.2775  0.61612  0.27750000000000014  1.0000
  C   C246      1.0  0.1306  0.13059999999999997  0.61214  1.0000
  C   C247      1.0  0.15471999999999994  0.15471999999999994  0.6176600000000002  1.0000
  C   C248      1.0  0.20169999999999988  0.20169999999999993  0.6226400000000002  1.0000
  C   C249      1.0  0.22759  0.22759  0.62216  1.0000
  C   C250      1.0  0.2775000000000001  0.2775  0.61612  1.0000
  C   C251      1.0  0.6121400000000001  0.1306  0.1306  1.0000
  C   C252      1.0  0.61766  0.15472000000000002  0.15472  1.0000
  C   C253      1.0  0.62264  0.20170000000000005  0.2017  1.0000
  C   C254      1.0  0.6221600000000003  0.22759  0.22759  1.0000
  C   C255      1.0  0.61612  0.2775  0.27750000000000014  1.0000
  C   C256      1.0  0.9108699999999998  0.91087  0.9812700000000002  1.0000
  C   C257      1.0  0.9812699999999995  0.91087  0.9108700000000002  1.0000
  C   C258      1.0  0.9108699999999998  0.98127  0.9108700000000002  1.0000
  C   C259      1.0  0.28151000000000004  0.28151  0.21026  1.0000
  C   C260      1.0  0.21026000000000009  0.2815099999999999  0.28151  1.0000
  C   C261      1.0  0.28151000000000004  0.21026  0.28151  1.0000
  N   N1        1.0  0.19452999999999998  0.5952899999999999  0.9898500000000002  1.0000
  N   N2        1.0  0.98985  0.19453  0.59529  1.0000
  N   N3        1.0  0.5952900000000001  0.98985  0.19453  1.0000
  N   N4        1.0  0.59529  0.1945299999999999  0.9898500000000002  1.0000
  N   N5        1.0  0.19452999999999993  0.9898500000000001  0.59529  1.0000
  N   N6        1.0  0.98985  0.59529  0.19453  1.0000
  N   N7        1.0  0.99185  0.59296  0.59296  1.0000
  N   N8        1.0  0.5929599999999999  0.9918500000000001  0.59296  1.0000
  N   N9        1.0  0.5929599999999998  0.5929599999999999  0.9918500000000002  1.0000
  O   O1        1.0  0.0991200000000001  0.57879  0.03267  1.0000
  O   O2        1.0  0.03227000000000006  0.58079  0.66333  1.0000
  O   O3        1.0  0.09713999999999991  0.58328  0.6645800000000002  1.0000
  O   O4        1.0  0.15488  0.60941  0.08874  1.0000
  O   O5        1.0  0.15715999999999988  0.60621  0.5243600000000003  1.0000
  O   O6        1.0  0.09219999999999999  0.6037699999999999  0.5232100000000001  1.0000
  O   O7        1.0  0.09646000000000002  0.66381  0.030380000000000004  1.0000
  O   O8        1.0  0.15773000000000004  0.52501  0.09147000000000001  1.0000
  O   O9        1.0  0.03266999999999999  0.09912000000000001  0.57879  1.0000
  O   O10       1.0  0.66333  0.03226999999999995  0.58079  1.0000
  O   O11       1.0  0.66458  0.09713999999999999  0.58328  1.0000
  O   O12       1.0  0.08873999999999992  0.15487999999999993  0.6094100000000002  1.0000
  O   O13       1.0  0.52436  0.15716000000000002  0.60621  1.0000
  O   O14       1.0  0.5232099999999998  0.09219999999999996  0.6037700000000001  1.0000
  O   O15       1.0  0.030380000000000025  0.09646000000000005  0.66381  1.0000
  O   O16       1.0  0.09146999999999997  0.15772999999999993  0.5250100000000002  1.0000
  O   O17       1.0  0.5787899999999999  0.032669999999999984  0.09912000000000003  1.0000
  O   O18       1.0  0.5807900000000004  0.66333  0.03227  1.0000
  O   O19       1.0  0.5832800000000004  0.66458  0.09714000000000003  1.0000
  O   O20       1.0  0.6094099999999999  0.08873999999999999  0.15488000000000005  1.0000
  O   O21       1.0  0.6062100000000001  0.52436  0.15716000000000005  1.0000
  O   O22       1.0  0.60377  0.52321  0.0922  1.0000
  O   O23       1.0  0.66381  0.030379999999999994  0.09646000000000002  1.0000
  O   O24       1.0  0.5250100000000001  0.09147000000000001  0.15773  1.0000
  O   O25       1.0  0.57879  0.09912  0.03267  1.0000
  O   O26       1.0  0.5807900000000004  0.03226999999999995  0.66333  1.0000
  O   O27       1.0  0.58328  0.09713999999999993  0.6645800000000002  1.0000
  O   O28       1.0  0.60941  0.15488  0.08874  1.0000
  O   O29       1.0  0.6062100000000002  0.1571599999999999  0.5243600000000003  1.0000
  O   O30       1.0  0.6037699999999999  0.09219999999999996  0.5232100000000001  1.0000
  O   O31       1.0  0.66381  0.09646  0.030380000000000004  1.0000
  O   O32       1.0  0.5250100000000001  0.15773  0.09147000000000001  1.0000
  O   O33       1.0  0.09912000000000001  0.032670000000000005  0.57879  1.0000
  O   O34       1.0  0.03226999999999995  0.66333  0.58079  1.0000
  O   O35       1.0  0.09714000000000002  0.66458  0.58328  1.0000
  O   O36       1.0  0.1548799999999999  0.08873999999999989  0.6094100000000002  1.0000
  O   O37       1.0  0.15716  0.52436  0.60621  1.0000
  O   O38       1.0  0.09219999999999993  0.52321  0.6037700000000001  1.0000
  O   O39       1.0  0.0964600000000001  0.030380000000000015  0.66381  1.0000
  O   O40       1.0  0.15772999999999998  0.0914699999999999  0.5250100000000002  1.0000
  O   O41       1.0  0.03267000000000003  0.57879  0.09912000000000003  1.0000
  O   O42       1.0  0.66333  0.58079  0.03227  1.0000
  O   O43       1.0  0.66458  0.58328  0.09714000000000003  1.0000
  O   O44       1.0  0.08873999999999997  0.60941  0.15488000000000005  1.0000
  O   O45       1.0  0.52436  0.60621  0.15716000000000005  1.0000
  O   O46       1.0  0.52321  0.60377  0.0922  1.0000
  O   O47       1.0  0.030380000000000025  0.66381  0.09646000000000002  1.0000
  O   O48       1.0  0.09146999999999991  0.5250100000000002  0.15773  1.0000
  Cu  Cu13      1.0  0.40576999999999985  0.8671400000000001  0.94538  1.0000
  Cu  Cu14      1.0  0.86714  0.9453799999999999  0.40577000000000013  1.0000
  Cu  Cu15      1.0  0.94538  0.4057700000000001  0.86714  1.0000
  Cu  Cu16      1.0  0.8671400000000001  0.40577  0.94538  1.0000
  Cu  Cu17      1.0  0.94538  0.86714  0.40577000000000013  1.0000
  Cu  Cu18      1.0  0.4057699999999999  0.9453799999999999  0.86714  1.0000
  Cu  Cu19      1.0  0.4068999999999999  0.94447  0.4069000000000001  1.0000
  Cu  Cu20      1.0  0.4053300000000001  0.8669999999999999  0.40533000000000013  1.0000
  Cu  Cu21      1.0  0.9444700000000001  0.4069  0.4069000000000001  1.0000
  Cu  Cu22      1.0  0.8669999999999998  0.40533  0.40533000000000013  1.0000
  Cu  Cu23      1.0  0.40689999999999993  0.4068999999999999  0.9444700000000003  1.0000
  Cu  Cu24      1.0  0.40532999999999997  0.40533  0.8670000000000002  1.0000
  H   H166      1.0  0.4345000000000001  0.027499999999999972  0.9119000000000003  1.0000
  H   H167      1.0  0.43430000000000013  0.06749999999999988  0.9519000000000002  1.0000
  H   H168      1.0  0.4329  0.9854999999999998  0.10370000000000003  1.0000
  H   H169      1.0  0.3966  0.9709  0.1825  1.0000
  H   H170      1.0  0.39530000000000026  0.9297  0.26160000000000005  1.0000
  H   H171      1.0  0.4665000000000001  0.050099999999999985  0.16510000000000005  1.0000
  H   H172      1.0  0.46120000000000017  0.011299999999999987  0.24580000000000005  1.0000
  H   H173      1.0  0.3800999999999999  0.8990999999999999  0.7853000000000002  1.0000
  H   H174      1.0  0.3735999999999999  0.8614  0.7470000000000002  1.0000
  H   H175      1.0  0.3783  0.8275999999999999  0.7089000000000002  1.0000
  H   H176      1.0  0.4068  0.8486  0.6315  1.0000
  H   H177      1.0  0.4099999999999999  0.8868  0.5523000000000001  1.0000
  H   H178      1.0  0.3728000000000001  0.7868  0.5608  1.0000
  H   H179      1.0  0.3660000000000004  0.7496  0.6417  1.0000
  H   H180      1.0  0.2538  0.03100000000000001  0.916  1.0000
  H   H181      1.0  0.17539999999999986  0.06979999999999996  0.9541000000000002  1.0000
  H   H182      1.0  0.5558999999999998  0.8943  0.7773000000000002  1.0000
  H   H183      1.0  0.6331000000000001  0.8541999999999998  0.7381000000000002  1.0000
  H   H184      1.0  0.39860000000000007  0.708  0.1278  1.0000
  H   H185      1.0  0.43890000000000007  0.8255  0.028800000000000006  1.0000
  H   H186      1.0  0.43690000000000023  0.7622  0.1031  1.0000
  H   H187      1.0  0.3632  0.7162  0.0782  1.0000
  H   H188      1.0  0.3654  0.7798  0.004  1.0000
  H   H189      1.0  0.027500000000000007  0.9119  0.4345000000000001  1.0000
  H   H190      1.0  0.06750000000000002  0.9519  0.4343  1.0000
  H   H191      1.0  0.9855  0.10369999999999996  0.4329000000000001  1.0000
  H   H192      1.0  0.9709  0.18249999999999997  0.3966000000000001  1.0000
  H   H193      1.0  0.9297000000000001  0.2616  0.3953000000000001  1.0000
  H   H194      1.0  0.05009999999999998  0.16510000000000002  0.4665  1.0000
  H   H195      1.0  0.0113  0.2458  0.4612  1.0000
  H   H196      1.0  0.8991  0.7853  0.38010000000000005  1.0000
  H   H197      1.0  0.8614000000000005  0.7469999999999999  0.3736000000000001  1.0000
  H   H198      1.0  0.8276000000000001  0.7089  0.3783  1.0000
  H   H199      1.0  0.8486000000000004  0.6315  0.4068000000000001  1.0000
  H   H200      1.0  0.8867999999999998  0.5523  0.4100000000000001  1.0000
  H   H201      1.0  0.7868  0.5608  0.3728000000000001  1.0000
  H   H202      1.0  0.7496000000000005  0.6417  0.366  1.0000
  H   H203      1.0  0.030999999999999996  0.916  0.2538000000000001  1.0000
  H   H204      1.0  0.06980000000000003  0.9540999999999998  0.17540000000000006  1.0000
  H   H205      1.0  0.8943  0.7773  0.5559  1.0000
  H   H206      1.0  0.8542000000000001  0.7380999999999999  0.6331  1.0000
  H   H207      1.0  0.7080000000000001  0.12779999999999994  0.3986000000000001  1.0000
  H   H208      1.0  0.8255  0.028799999999999982  0.4389000000000001  1.0000
  H   H209      1.0  0.7622000000000003  0.10309999999999994  0.4369000000000001  1.0000
  H   H210      1.0  0.7162000000000001  0.07819999999999996  0.36320000000000013  1.0000
  H   H211      1.0  0.7798000000000002  0.003999999999999964  0.3654000000000001  1.0000
  H   H212      1.0  0.9119  0.4345  0.027500000000000007  1.0000
  H   H213      1.0  0.9519  0.4343  0.0675  1.0000
  H   H214      1.0  0.10369999999999997  0.4329  0.9855  1.0000
  H   H215      1.0  0.1825  0.3965999999999999  0.9709000000000001  1.0000
  H   H216      1.0  0.26160000000000005  0.3953  0.9297  1.0000
  H   H217      1.0  0.16510000000000002  0.4665  0.05010000000000001  1.0000
  H   H218      1.0  0.24580000000000002  0.4612  0.0113  1.0000
  H   H219      1.0  0.7852999999999994  0.3801  0.8991000000000002  1.0000
  H   H220      1.0  0.7470000000000003  0.3735999999999999  0.8614000000000003  1.0000
  H   H221      1.0  0.7089  0.37829999999999997  0.8276000000000002  1.0000
  H   H222      1.0  0.6315000000000003  0.40679999999999994  0.8486000000000002  1.0000
  H   H223      1.0  0.5523000000000001  0.40999999999999986  0.8868000000000001  1.0000
  H   H224      1.0  0.5607999999999999  0.37279999999999996  0.7868000000000003  1.0000
  H   H225      1.0  0.6417000000000003  0.3659999999999999  0.7496000000000002  1.0000
  H   H226      1.0  0.9160000000000001  0.2538  0.031000000000000007  1.0000
  H   H227      1.0  0.9541000000000001  0.1754  0.06980000000000001  1.0000
  H   H228      1.0  0.7773  0.5559  0.8943  1.0000
  H   H229      1.0  0.7381000000000005  0.6331  0.8542  1.0000
  H   H230      1.0  0.1277999999999999  0.39859999999999995  0.7080000000000002  1.0000
  H   H231      1.0  0.028799999999999923  0.43890000000000007  0.8255000000000001  1.0000
  H   H232      1.0  0.10310000000000001  0.43689999999999996  0.7622000000000001  1.0000
  H   H233      1.0  0.07819999999999995  0.3631999999999999  0.7162000000000002  1.0000
  H   H234      1.0  0.0039999999999999584  0.3654  0.7798000000000003  1.0000
  H   H235      1.0  0.027499999999999955  0.4345  0.9119000000000003  1.0000
  H   H236      1.0  0.06749999999999994  0.43429999999999996  0.9519000000000002  1.0000
  H   H237      1.0  0.9855  0.4329  0.10370000000000003  1.0000
  H   H238      1.0  0.9709  0.3966  0.1825  1.0000
  H   H239      1.0  0.9297  0.3953  0.26160000000000005  1.0000
  H   H240      1.0  0.0500999999999999  0.4665  0.16510000000000005  1.0000
  H   H241      1.0  0.011299999999999973  0.4612  0.24580000000000005  1.0000
  H   H242      1.0  0.8990999999999999  0.3800999999999999  0.7853000000000002  1.0000
  H   H243      1.0  0.8613999999999998  0.3736  0.7470000000000002  1.0000
  H   H244      1.0  0.8276  0.3782999999999999  0.7089000000000002  1.0000
  H   H245      1.0  0.8486000000000007  0.40680000000000005  0.6315  1.0000
  H   H246      1.0  0.8868000000000001  0.41  0.5523000000000001  1.0000
  H   H247      1.0  0.7868000000000002  0.3728  0.5608  1.0000
  H   H248      1.0  0.7496000000000005  0.366  0.6417  1.0000
  H   H249      1.0  0.030999999999999996  0.25379999999999997  0.916  1.0000
  H   H250      1.0  0.06979999999999988  0.17539999999999997  0.9541000000000002  1.0000
  H   H251      1.0  0.8942999999999999  0.5559  0.7773000000000002  1.0000
  H   H252      1.0  0.8542000000000002  0.6330999999999998  0.7381000000000002  1.0000
  H   H253      1.0  0.708  0.3986  0.1278  1.0000
  H   H254      1.0  0.8255  0.4389  0.028800000000000006  1.0000
  H   H255      1.0  0.7622000000000004  0.4369  0.1031  1.0000
  H   H256      1.0  0.7162000000000001  0.3632  0.0782  1.0000
  H   H257      1.0  0.7798000000000002  0.3654  0.004  1.0000
  H   H258      1.0  0.9118999999999999  0.027499999999999972  0.4345000000000001  1.0000
  H   H259      1.0  0.9519000000000007  0.0675  0.4343  1.0000
  H   H260      1.0  0.10370000000000006  0.9854999999999998  0.4329000000000001  1.0000
  H   H261      1.0  0.18249999999999994  0.9709  0.3966000000000001  1.0000
  H   H262      1.0  0.26160000000000005  0.9297  0.3953000000000001  1.0000
  H   H263      1.0  0.16510000000000002  0.050100000000000006  0.4665  1.0000
  H   H264      1.0  0.24580000000000002  0.011300000000000001  0.4612  1.0000
  H   H265      1.0  0.7853000000000001  0.8991  0.38010000000000005  1.0000
  H   H266      1.0  0.7470000000000001  0.8613999999999999  0.3736000000000001  1.0000
  H   H267      1.0  0.7088999999999999  0.8276  0.3783  1.0000
  H   H268      1.0  0.6315000000000003  0.8486  0.4068000000000001  1.0000
  H   H269      1.0  0.5522999999999997  0.8868  0.4100000000000001  1.0000
  H   H270      1.0  0.5607999999999996  0.7868  0.3728000000000001  1.0000
  H   H271      1.0  0.6417000000000002  0.7496  0.366  1.0000
  H   H272      1.0  0.9159999999999999  0.03099999999999998  0.2538000000000001  1.0000
  H   H273      1.0  0.9541000000000001  0.06979999999999999  0.17540000000000006  1.0000
  H   H274      1.0  0.7773000000000001  0.8943  0.5559  1.0000
  H   H275      1.0  0.7381000000000003  0.8542  0.6331  1.0000
  H   H276      1.0  0.12780000000000002  0.7079999999999999  0.3986000000000001  1.0000
  H   H277      1.0  0.02880000000000003  0.8255  0.4389000000000001  1.0000
  H   H278      1.0  0.10309999999999994  0.7622  0.4369000000000001  1.0000
  H   H279      1.0  0.07819999999999998  0.7162  0.36320000000000013  1.0000
  H   H280      1.0  0.004000000000000065  0.7797999999999999  0.3654000000000001  1.0000
  H   H281      1.0  0.4345000000000002  0.9119  0.027500000000000007  1.0000
  H   H282      1.0  0.4343000000000002  0.9519  0.0675  1.0000
  H   H283      1.0  0.43289999999999995  0.10369999999999999  0.9855  1.0000
  H   H284      1.0  0.3966  0.1824999999999999  0.9709000000000001  1.0000
  H   H285      1.0  0.3953  0.26160000000000005  0.9297  1.0000
  H   H286      1.0  0.4665000000000001  0.1651  0.05010000000000001  1.0000
  H   H287      1.0  0.46120000000000017  0.2458  0.0113  1.0000
  H   H288      1.0  0.3800999999999997  0.7853  0.8991000000000002  1.0000
  H   H289      1.0  0.3736  0.7469999999999999  0.8614000000000003  1.0000
  H   H290      1.0  0.3783000000000001  0.7089  0.8276000000000002  1.0000
  H   H291      1.0  0.4068  0.6314999999999997  0.8486000000000002  1.0000
  H   H292      1.0  0.41  0.5522999999999999  0.8868000000000001  1.0000
  H   H293      1.0  0.3728000000000001  0.5607999999999999  0.7868000000000003  1.0000
  H   H294      1.0  0.3660000000000002  0.6416999999999999  0.7496000000000002  1.0000
  H   H295      1.0  0.25379999999999997  0.916  0.031000000000000007  1.0000
  H   H296      1.0  0.17540000000000008  0.9541  0.06980000000000001  1.0000
  H   H297      1.0  0.5559  0.7773  0.8943  1.0000
  H   H298      1.0  0.6331000000000003  0.7380999999999999  0.8542  1.0000
  H   H299      1.0  0.3986000000000001  0.12779999999999994  0.7080000000000002  1.0000
  H   H300      1.0  0.4389  0.02879999999999995  0.8255000000000001  1.0000
  H   H301      1.0  0.4369000000000001  0.10309999999999997  0.7622000000000001  1.0000
  H   H302      1.0  0.3632  0.0781999999999999  0.7162000000000002  1.0000
  H   H303      1.0  0.3654  0.003999999999999948  0.7798000000000003  1.0000
  H   H304      1.0  0.4482499999999999  0.9757000000000001  0.44825  1.0000
  H   H305      1.0  0.44360000000000005  0.05460000000000002  0.4436  1.0000
  H   H306      1.0  0.41089999999999993  0.11309999999999996  0.4109000000000001  1.0000
  H   H307      1.0  0.3662999999999999  0.12609999999999996  0.3663000000000001  1.0000
  H   H308      1.0  0.36755  0.0525  0.36755  1.0000
  H   H309      1.0  0.9757000000000001  0.44825  0.44825  1.0000
  H   H310      1.0  0.05460000000000002  0.4436  0.4436  1.0000
  H   H311      1.0  0.11309999999999996  0.4109  0.4109000000000001  1.0000
  H   H312      1.0  0.12609999999999988  0.36629999999999996  0.3663000000000001  1.0000
  H   H313      1.0  0.05249999999999996  0.36755  0.36755  1.0000
  H   H314      1.0  0.44824999999999987  0.44825  0.9757000000000002  1.0000
  H   H315      1.0  0.4436  0.4436  0.05460000000000002  1.0000
  H   H316      1.0  0.4109  0.4109  0.11310000000000003  1.0000
  H   H317      1.0  0.36629999999999996  0.3663  0.1261  1.0000
  H   H318      1.0  0.36754999999999993  0.36755  0.05250000000000001  1.0000
  H   H319      1.0  0.43330000000000024  0.10469999999999999  0.1047  1.0000
  H   H320      1.0  0.10469999999999999  0.10469999999999999  0.4333  1.0000
  H   H321      1.0  0.10469999999999999  0.4333  0.1047  1.0000
  H   H322      1.0  0.3864000000000003  0.7057  0.7057  1.0000
  H   H323      1.0  0.7057000000000001  0.7057  0.3864  1.0000
  H   H324      1.0  0.7057000000000001  0.38639999999999997  0.7057  1.0000
  H   H325      1.0  0.10495000000000003  0.10494999999999992  0.9867000000000002  1.0000
  H   H326      1.0  0.10495  0.9867  0.10495  1.0000
  H   H327      1.0  0.9867  0.10494999999999999  0.10495  1.0000
  H   H328      1.0  0.7028  0.7028  0.8219  1.0000
  H   H329      1.0  0.7028  0.8218999999999999  0.7028  1.0000
  H   H330      1.0  0.8219000000000003  0.7028  0.7028  1.0000
  C   C262      1.0  0.43222  0.012110000000000001  0.94457  1.0000
  C   C263      1.0  0.43321  0.035789999999999884  0.9685300000000002  1.0000
  C   C264      1.0  0.4333  0.017349999999999997  0.08783  1.0000
  C   C265      1.0  0.43156  0.015809999999999998  0.16383000000000003  1.0000
  C   C266      1.0  0.41002  0.97916  0.19475  1.0000
  C   C267      1.0  0.40813  0.9551  0.24260000000000007  1.0000
  C   C268      1.0  0.45113000000000014  0.026759999999999992  0.1844  1.0000
  C   C269      1.0  0.44786000000000015  0.0033100000000000056  0.2332  1.0000
  C   C270      1.0  0.42574000000000006  0.96915  0.26275000000000004  1.0000
  C   C271      1.0  0.42063000000000006  0.94471  0.31558000000000014  1.0000
  C   C272      1.0  0.43334000000000006  0.040650000000000006  0.11309  1.0000
  C   C273      1.0  0.37974999999999975  0.8672099999999999  0.8015200000000002  1.0000
  C   C274      1.0  0.3764799999999999  0.8439099999999999  0.7779300000000002  1.0000
  C   C275      1.0  0.3791899999999999  0.79525  0.7243700000000001  1.0000
  C   C276      1.0  0.38211999999999996  0.77063  0.6985400000000002  1.0000
  C   C277      1.0  0.38475999999999994  0.7954899999999999  0.6463800000000001  1.0000
  C   C278      1.0  0.39870000000000005  0.83603  0.61794  1.0000
  C   C279      1.0  0.4011899999999999  0.85873  0.5701  1.0000
  C   C280      1.0  0.3912699999999999  0.84121  0.5480100000000001  1.0000
  C   C281      1.0  0.37881000000000004  0.79994  0.57522  1.0000
  C   C282      1.0  0.3750699999999999  0.7773099999999998  0.6238800000000002  1.0000
  C   C283      1.0  0.3939800000000001  0.8662599999999999  0.4961600000000001  1.0000
  C   C284      1.0  0.23829999999999993  0.014799999999999949  0.9480600000000002  1.0000
  C   C285      1.0  0.19072999999999993  0.038079999999999906  0.9708800000000002  1.0000
  C   C286      1.0  0.5710599999999999  0.8623400000000001  0.79371  1.0000
  C   C287      1.0  0.6178400000000001  0.83821  0.7703100000000002  1.0000
  C   C288      1.0  0.39971999999999996  0.73305  0.09803000000000003  1.0000
  C   C289      1.0  0.42449999999999993  0.80293  0.03877  1.0000
  C   C290      1.0  0.42271999999999993  0.76552  0.08324  1.0000
  C   C291      1.0  0.37849000000000016  0.73799  0.06836  1.0000
  C   C292      1.0  0.38027000000000005  0.7753899999999999  0.023870000000000006  1.0000
  C   C293      1.0  0.012109999999999874  0.94457  0.4322200000000001  1.0000
  C   C294      1.0  0.03579000000000006  0.9685299999999999  0.43321  1.0000
  C   C295      1.0  0.01735  0.08783  0.4333  1.0000
  C   C296      1.0  0.015809999999999998  0.16383  0.43156  1.0000
  C   C297      1.0  0.97916  0.19474999999999998  0.41002000000000005  1.0000
  C   C298      1.0  0.9551000000000001  0.24259999999999995  0.40813  1.0000
  C   C299      1.0  0.026759999999999954  0.18439999999999998  0.4511300000000001  1.0000
  C   C300      1.0  0.003310000000000008  0.23319999999999994  0.4478600000000001  1.0000
  C   C301      1.0  0.9691500000000001  0.2627499999999999  0.4257400000000001  1.0000
  C   C302      1.0  0.94471  0.31558  0.42063  1.0000
  C   C303      1.0  0.04064999999999999  0.11308999999999994  0.4333400000000001  1.0000
  C   C304      1.0  0.8672100000000001  0.8015199999999999  0.37975  1.0000
  C   C305      1.0  0.8439100000000004  0.77793  0.37648  1.0000
  C   C306      1.0  0.7952500000000001  0.72437  0.37919  1.0000
  C   C307      1.0  0.7706299999999999  0.69854  0.38212  1.0000
  C   C308      1.0  0.7954900000000004  0.6463799999999998  0.38476000000000005  1.0000
  C   C309      1.0  0.8360300000000002  0.6179399999999999  0.3987000000000001  1.0000
  C   C310      1.0  0.8587300000000001  0.5700999999999999  0.40119  1.0000
  C   C311      1.0  0.8412100000000001  0.5480099999999998  0.3912700000000001  1.0000
  C   C312      1.0  0.7999400000000001  0.57522  0.3788100000000001  1.0000
  C   C313      1.0  0.7773100000000001  0.62388  0.3750700000000001  1.0000
  C   C314      1.0  0.86626  0.49615999999999993  0.39398  1.0000
  C   C315      1.0  0.01480000000000007  0.9480599999999999  0.2383  1.0000
  C   C316      1.0  0.03807999999999986  0.97088  0.19073000000000004  1.0000
  C   C317      1.0  0.8623400000000001  0.7937099999999999  0.5710600000000002  1.0000
  C   C318      1.0  0.83821  0.77031  0.61784  1.0000
  C   C319      1.0  0.73305  0.09803000000000002  0.39972  1.0000
  C   C320      1.0  0.8029300000000001  0.038769999999999964  0.4245000000000001  1.0000
  C   C321      1.0  0.7655200000000001  0.08324000000000001  0.42272  1.0000
  C   C322      1.0  0.7379900000000004  0.06836  0.37849  1.0000
  C   C323      1.0  0.77539  0.02386999999999996  0.3802700000000001  1.0000
  C   C324      1.0  0.94457  0.43222  0.01211  1.0000
  C   C325      1.0  0.96853  0.43321  0.03579  1.0000
  C   C326      1.0  0.08783000000000002  0.4333  0.017350000000000004  1.0000
  C   C327      1.0  0.16383  0.43156  0.01581  1.0000
  C   C328      1.0  0.19474999999999995  0.4100199999999999  0.9791600000000003  1.0000
  C   C329      1.0  0.2425999999999999  0.40812999999999994  0.9551000000000002  1.0000
  C   C330      1.0  0.1844  0.45113  0.026760000000000006  1.0000
  C   C331      1.0  0.2332  0.44786  0.003310000000000001  1.0000
  C   C332      1.0  0.26274999999999976  0.42573999999999995  0.9691500000000002  1.0000
  C   C333      1.0  0.31557999999999997  0.42062999999999995  0.9447100000000002  1.0000
  C   C334      1.0  0.11309000000000001  0.43334  0.040650000000000006  1.0000
  C   C335      1.0  0.8015200000000002  0.37975  0.86721  1.0000
  C   C336      1.0  0.7779300000000005  0.37647999999999987  0.8439100000000003  1.0000
  C   C337      1.0  0.7243699999999998  0.3791899999999999  0.7952500000000002  1.0000
  C   C338      1.0  0.6985399999999999  0.38211999999999985  0.7706300000000003  1.0000
  C   C339      1.0  0.64638  0.38476  0.7954900000000001  1.0000
  C   C340      1.0  0.6179399999999996  0.3987  0.83603  1.0000
  C   C341      1.0  0.5700999999999999  0.4011899999999999  0.8587300000000002  1.0000
  C   C342      1.0  0.5480100000000003  0.3912699999999999  0.8412100000000002  1.0000
  C   C343      1.0  0.57522  0.37880999999999987  0.7999400000000002  1.0000
  C   C344      1.0  0.6238800000000004  0.37507  0.77731  1.0000
  C   C345      1.0  0.49615999999999993  0.39398  0.8662600000000003  1.0000
  C   C346      1.0  0.9480600000000005  0.2383  0.0148  1.0000
  C   C347      1.0  0.9708800000000001  0.19072999999999998  0.03808000000000002  1.0000
  C   C348      1.0  0.7937099999999997  0.5710599999999999  0.8623400000000002  1.0000
  C   C349      1.0  0.7703100000000004  0.61784  0.83821  1.0000
  C   C350      1.0  0.09802999999999992  0.3997199999999999  0.7330500000000002  1.0000
  C   C351      1.0  0.038769999999999916  0.4244999999999999  0.8029300000000003  1.0000
  C   C352      1.0  0.08324000000000002  0.42271999999999993  0.76552  1.0000
  C   C353      1.0  0.06836000000000002  0.37848999999999994  0.7379900000000003  1.0000
  C   C354      1.0  0.02386999999999998  0.38026999999999994  0.7753900000000002  1.0000
  C   C355      1.0  0.01210999999999998  0.43222  0.94457  1.0000
  C   C356      1.0  0.0357899999999999  0.4332099999999999  0.9685300000000002  1.0000
  C   C357      1.0  0.017349999999999987  0.4333  0.08783  1.0000
  C   C358      1.0  0.015809999999999984  0.43156  0.16383000000000003  1.0000
  C   C359      1.0  0.97916  0.41002  0.19475  1.0000
  C   C360      1.0  0.9551  0.40813  0.24260000000000007  1.0000
  C   C361      1.0  0.026760000000000006  0.45113  0.1844  1.0000
  C   C362      1.0  0.0033100000000000343  0.44786  0.2332  1.0000
  C   C363      1.0  0.9691500000000001  0.42574  0.26275000000000004  1.0000
  C   C364      1.0  0.9447099999999999  0.42062999999999995  0.31558000000000014  1.0000
  C   C365      1.0  0.04065000000000002  0.43334  0.11309  1.0000
  C   C366      1.0  0.8672099999999998  0.37974999999999987  0.8015200000000002  1.0000
  C   C367      1.0  0.8439100000000003  0.37647999999999987  0.7779300000000002  1.0000
  C   C368      1.0  0.7952499999999999  0.3791900000000001  0.7243700000000001  1.0000
  C   C369      1.0  0.7706299999999999  0.38211999999999996  0.6985400000000002  1.0000
  C   C370      1.0  0.7954900000000005  0.38475999999999994  0.6463800000000001  1.0000
  C   C371      1.0  0.83603  0.3987  0.61794  1.0000
  C   C372      1.0  0.8587300000000002  0.40119  0.5701  1.0000
  C   C373      1.0  0.8412099999999999  0.39127  0.5480100000000001  1.0000
  C   C374      1.0  0.79994  0.37881  0.57522  1.0000
  C   C375      1.0  0.7773100000000002  0.3750699999999999  0.6238800000000002  1.0000
  C   C376      1.0  0.8662600000000001  0.39397999999999994  0.4961600000000001  1.0000
  C   C377      1.0  0.014799999999999924  0.23829999999999987  0.9480600000000002  1.0000
  C   C378      1.0  0.03807999999999996  0.19072999999999993  0.9708800000000002  1.0000
  C   C379      1.0  0.86234  0.57106  0.79371  1.0000
  C   C380      1.0  0.83821  0.61784  0.7703100000000002  1.0000
  C   C381      1.0  0.7330500000000003  0.39971999999999996  0.09803000000000003  1.0000
  C   C382      1.0  0.8029300000000001  0.4245  0.03877  1.0000
  C   C383      1.0  0.76552  0.42272  0.08324  1.0000
  C   C384      1.0  0.7379900000000004  0.37849  0.06836  1.0000
  C   C385      1.0  0.7753900000000001  0.38027  0.023870000000000006  1.0000
  C   C386      1.0  0.94457  0.012109999999999971  0.4322200000000001  1.0000
  C   C387      1.0  0.96853  0.03579  0.43321  1.0000
  C   C388      1.0  0.08783  0.017350000000000008  0.4333  1.0000
  C   C389      1.0  0.16383000000000003  0.015810000000000005  0.43156  1.0000
  C   C390      1.0  0.19474999999999992  0.97916  0.41002000000000005  1.0000
  C   C391      1.0  0.2426  0.9551  0.40813  1.0000
  C   C392      1.0  0.18439999999999998  0.026759999999999947  0.4511300000000001  1.0000
  C   C393      1.0  0.2332  0.003309999999999945  0.4478600000000001  1.0000
  C   C394      1.0  0.26274999999999993  0.96915  0.4257400000000001  1.0000
  C   C395      1.0  0.31557999999999997  0.94471  0.42063  1.0000
  C   C396      1.0  0.11308999999999993  0.04064999999999994  0.4333400000000001  1.0000
  C   C397      1.0  0.8015200000000002  0.86721  0.37975  1.0000
  C   C398      1.0  0.7779300000000003  0.84391  0.37648  1.0000
  C   C399      1.0  0.72437  0.79525  0.37919  1.0000
  C   C400      1.0  0.6985400000000004  0.77063  0.38212  1.0000
  C   C401      1.0  0.6463800000000002  0.7954899999999999  0.38476000000000005  1.0000
  C   C402      1.0  0.6179399999999998  0.8360299999999999  0.3987000000000001  1.0000
  C   C403      1.0  0.5700999999999999  0.85873  0.40119  1.0000
  C   C404      1.0  0.5480100000000001  0.84121  0.3912700000000001  1.0000
  C   C405      1.0  0.5752200000000001  0.79994  0.3788100000000001  1.0000
  C   C406      1.0  0.6238800000000001  0.77731  0.3750700000000001  1.0000
  C   C407      1.0  0.49616000000000005  0.8662599999999999  0.39398  1.0000
  C   C408      1.0  0.9480600000000005  0.014799999999999994  0.2383  1.0000
  C   C409      1.0  0.9708800000000001  0.03807999999999999  0.19073000000000004  1.0000
  C   C410      1.0  0.79371  0.8623399999999999  0.5710600000000002  1.0000
  C   C411      1.0  0.7703100000000005  0.83821  0.61784  1.0000
  C   C412      1.0  0.09802999999999995  0.73305  0.39972  1.0000
  C   C413      1.0  0.038769999999999916  0.80293  0.4245000000000001  1.0000
  C   C414      1.0  0.08324  0.76552  0.42272  1.0000
  C   C415      1.0  0.06835999999999999  0.73799  0.37849  1.0000
  C   C416      1.0  0.023870000000000117  0.7753899999999998  0.3802700000000001  1.0000
  C   C417      1.0  0.43222000000000005  0.94457  0.01211  1.0000
  C   C418      1.0  0.43321  0.96853  0.03579  1.0000
  C   C419      1.0  0.43330000000000024  0.08783  0.017350000000000004  1.0000
  C   C420      1.0  0.43156000000000005  0.16383  0.01581  1.0000
  C   C421      1.0  0.41001999999999994  0.19474999999999992  0.9791600000000003  1.0000
  C   C422      1.0  0.40813  0.2425999999999999  0.9551000000000002  1.0000
  C   C423      1.0  0.45113000000000014  0.1844  0.026760000000000006  1.0000
  C   C424      1.0  0.4478600000000002  0.2332  0.003310000000000001  1.0000
  C   C425      1.0  0.42574000000000006  0.2627499999999999  0.9691500000000002  1.0000
  C   C426      1.0  0.4206299999999999  0.31558  0.9447100000000002  1.0000
  C   C427      1.0  0.43334000000000006  0.11309  0.040650000000000006  1.0000
  C   C428      1.0  0.3797499999999999  0.80152  0.86721  1.0000
  C   C429      1.0  0.37648  0.7779299999999998  0.8439100000000003  1.0000
  C   C430      1.0  0.37919  0.7243699999999996  0.7952500000000002  1.0000
  C   C431      1.0  0.3821199999999999  0.69854  0.7706300000000003  1.0000
  C   C432      1.0  0.3847600000000001  0.6463799999999998  0.7954900000000001  1.0000
  C   C433      1.0  0.39870000000000005  0.61794  0.83603  1.0000
  C   C434      1.0  0.4011900000000001  0.5700999999999999  0.8587300000000002  1.0000
  C   C435      1.0  0.39127000000000006  0.5480099999999998  0.8412100000000002  1.0000
  C   C436      1.0  0.3788099999999999  0.5752199999999998  0.7999400000000002  1.0000
  C   C437      1.0  0.37507000000000007  0.62388  0.77731  1.0000
  C   C438      1.0  0.39398  0.49616  0.8662600000000003  1.0000
  C   C439      1.0  0.23830000000000007  0.9480599999999999  0.0148  1.0000
  C   C440      1.0  0.19072999999999996  0.97088  0.03808000000000002  1.0000
  C   C441      1.0  0.5710599999999997  0.7937099999999999  0.8623400000000002  1.0000
  C   C442      1.0  0.6178400000000004  0.77031  0.83821  1.0000
  C   C443      1.0  0.3997199999999999  0.09802999999999992  0.7330500000000002  1.0000
  C   C444      1.0  0.4244999999999999  0.03876999999999991  0.8029300000000003  1.0000
  C   C445      1.0  0.42272  0.08324000000000001  0.76552  1.0000
  C   C446      1.0  0.37849000000000005  0.06835999999999993  0.7379900000000003  1.0000
  C   C447      1.0  0.38026999999999994  0.023869999999999916  0.7753900000000002  1.0000
  C   C448      1.0  0.43064  0.005350000000000009  0.43064  1.0000
  C   C449      1.0  0.4271400000000001  0.05554999999999997  0.42714000000000013  1.0000
  C   C450      1.0  0.41004  0.08614999999999999  0.41004  1.0000
  C   C451      1.0  0.3830899999999999  0.09512999999999998  0.3830900000000001  1.0000
  C   C452      1.0  0.3844399999999999  0.050049999999999956  0.3844400000000001  1.0000
  C   C453      1.0  0.005350000000000006  0.43064  0.43064  1.0000
  C   C454      1.0  0.0555499999999999  0.42714  0.4271300000000001  1.0000
  C   C455      1.0  0.08614999999999992  0.41004  0.41004  1.0000
  C   C456      1.0  0.09512999999999987  0.38309  0.3830900000000001  1.0000
  C   C457      1.0  0.05005000000000004  0.38444  0.38443  1.0000
  C   C458      1.0  0.43064  0.43064  0.0053500000000000015  1.0000
  C   C459      1.0  0.42714000000000013  0.42714  0.05555000000000001  1.0000
  C   C460      1.0  0.41003999999999996  0.41004  0.08615000000000003  1.0000
  C   C461      1.0  0.38309  0.38309  0.09513000000000003  1.0000
  C   C462      1.0  0.38443999999999995  0.38444  0.05005000000000001  1.0000
  C   C463      1.0  0.4234999999999997  0.9433400000000001  0.9433400000000002  1.0000
  C   C464      1.0  0.42810999999999977  0.96757  0.9675700000000003  1.0000
  C   C465      1.0  0.43279000000000006  0.01461  0.014610000000000003  1.0000
  C   C466      1.0  0.4338600000000001  0.04018999999999999  0.04019000000000001  1.0000
  C   C467      1.0  0.43335  0.08860999999999998  0.08861000000000002  1.0000
  C   C468      1.0  0.3158899999999998  0.94559  0.9455900000000003  1.0000
  C   C469      1.0  0.26325999999999994  0.9700299999999997  0.9700300000000002  1.0000
  C   C470      1.0  0.16568  0.0166  0.0166  1.0000
  C   C471      1.0  0.11368  0.04179  0.04179000000000001  1.0000
  C   C472      1.0  0.4950200000000001  0.8658499999999999  0.8658500000000002  1.0000
  C   C473      1.0  0.5464600000000002  0.8405499999999999  0.8405500000000001  1.0000
  C   C474      1.0  0.6429499999999999  0.7921100000000001  0.79211  1.0000
  C   C475      1.0  0.69365  0.7663  0.7663  1.0000
  C   C476      1.0  0.9433400000000001  0.9433399999999997  0.4235000000000001  1.0000
  C   C477      1.0  0.9675700000000002  0.96757  0.42811  1.0000
  C   C478      1.0  0.014609999999999974  0.014609999999999977  0.4327900000000001  1.0000
  C   C479      1.0  0.04018999999999998  0.040189999999999976  0.43386000000000013  1.0000
  C   C480      1.0  0.08860999999999995  0.08860999999999997  0.4333500000000001  1.0000
  C   C481      1.0  0.9455900000000003  0.94559  0.31589000000000006  1.0000
  C   C482      1.0  0.9700300000000001  0.97003  0.26326  1.0000
  C   C483      1.0  0.016599999999999983  0.01659999999999999  0.16568000000000005  1.0000
  C   C484      1.0  0.04179  0.04179  0.11368  1.0000
  C   C485      1.0  0.86585  0.86585  0.49502000000000007  1.0000
  C   C486      1.0  0.8405500000000001  0.84055  0.5464600000000001  1.0000
  C   C487      1.0  0.7921100000000001  0.7921099999999999  0.6429500000000002  1.0000
  C   C488      1.0  0.7663  0.7663  0.6936500000000002  1.0000
  C   C489      1.0  0.9433399999999998  0.4235  0.9433400000000002  1.0000
  C   C490      1.0  0.9675699999999999  0.42810999999999994  0.9675700000000003  1.0000
  C   C491      1.0  0.014610000000000007  0.43279  0.014610000000000003  1.0000
  C   C492      1.0  0.04018999999999994  0.43386  0.04019000000000001  1.0000
  C   C493      1.0  0.08860999999999988  0.43335  0.08861000000000002  1.0000
  C   C494      1.0  0.9455900000000002  0.3158899999999999  0.9455900000000003  1.0000
  C   C495      1.0  0.9700299999999998  0.26325999999999994  0.9700300000000002  1.0000
  C   C496      1.0  0.016600000000000007  0.16568  0.0166  1.0000
  C   C497      1.0  0.04179000000000001  0.11368  0.04179000000000001  1.0000
  C   C498      1.0  0.8658500000000002  0.4950199999999999  0.8658500000000002  1.0000
  C   C499      1.0  0.84055  0.54646  0.8405500000000001  1.0000
  C   C500      1.0  0.7921099999999999  0.64295  0.79211  1.0000
  C   C501      1.0  0.7663000000000001  0.6936499999999999  0.7663  1.0000
  C   C502      1.0  0.38785999999999987  0.8694  0.8694000000000002  1.0000
  C   C503      1.0  0.38234000000000007  0.8452799999999999  0.8452800000000003  1.0000
  C   C504      1.0  0.37736000000000003  0.7982999999999999  0.7983000000000002  1.0000
  C   C505      1.0  0.3778400000000003  0.7724099999999999  0.7724100000000003  1.0000
  C   C506      1.0  0.38388  0.7225  0.7225  1.0000
  C   C507      1.0  0.8694  0.8694  0.38786000000000004  1.0000
  C   C508      1.0  0.84528  0.84528  0.3823400000000001  1.0000
  C   C509      1.0  0.7982999999999998  0.7983  0.3773600000000001  1.0000
  C   C510      1.0  0.77241  0.77241  0.37784  1.0000
  C   C511      1.0  0.7225000000000001  0.7225  0.38388  1.0000
  C   C512      1.0  0.8693999999999995  0.3878599999999999  0.8694000000000002  1.0000
  C   C513      1.0  0.8452799999999999  0.38233999999999996  0.8452800000000003  1.0000
  C   C514      1.0  0.7983  0.3773599999999999  0.7983000000000002  1.0000
  C   C515      1.0  0.7724099999999998  0.3778399999999999  0.7724100000000003  1.0000
  C   C516      1.0  0.7225  0.38388  0.7225  1.0000
  C   C517      1.0  0.08913  0.08913  0.01873  1.0000
  C   C518      1.0  0.08913  0.018729999999999997  0.08913  1.0000
  C   C519      1.0  0.01873000000000001  0.08913  0.08913  1.0000
  C   C520      1.0  0.7184900000000001  0.7184899999999999  0.7897400000000002  1.0000
  C   C521      1.0  0.7184899999999997  0.78974  0.7184900000000002  1.0000
  C   C522      1.0  0.7897399999999999  0.71849  0.7184900000000002  1.0000
  N   N10       1.0  0.40470999999999996  0.80547  0.010150000000000003  1.0000
  N   N11       1.0  0.80547  0.010149999999999966  0.4047100000000001  1.0000
  N   N12       1.0  0.010149999999999913  0.40470999999999996  0.8054700000000002  1.0000
  N   N13       1.0  0.8054700000000001  0.40471  0.010150000000000003  1.0000
  N   N14       1.0  0.010149999999999966  0.80547  0.4047100000000001  1.0000
  N   N15       1.0  0.4047099999999999  0.010149999999999904  0.8054700000000002  1.0000
  N   N16       1.0  0.4070400000000002  0.00814999999999999  0.40704  1.0000
  N   N17       1.0  0.008150000000000093  0.40704  0.40704  1.0000
  N   N18       1.0  0.40704000000000023  0.40704  0.00815  1.0000
  O   O49       1.0  0.4212099999999999  0.9008799999999999  0.9673300000000001  1.0000
  O   O50       1.0  0.4192100000000001  0.96773  0.33667000000000014  1.0000
  O   O51       1.0  0.41672000000000003  0.90286  0.33542  1.0000
  O   O52       1.0  0.3905899999999999  0.84512  0.9112600000000001  1.0000
  O   O53       1.0  0.39379000000000003  0.84284  0.4756400000000001  1.0000
  O   O54       1.0  0.3962299999999999  0.9078  0.47679  1.0000
  O   O55       1.0  0.33619000000000004  0.9035399999999999  0.96962  1.0000
  O   O56       1.0  0.4749899999999999  0.8422699999999997  0.9085300000000002  1.0000
  O   O57       1.0  0.90088  0.9673299999999999  0.4212100000000001  1.0000
  O   O58       1.0  0.9677300000000001  0.33667  0.41921000000000014  1.0000
  O   O59       1.0  0.9028600000000001  0.33542  0.4167200000000001  1.0000
  O   O60       1.0  0.8451200000000003  0.91126  0.39059000000000005  1.0000
  O   O61       1.0  0.8428400000000001  0.47564  0.39379000000000003  1.0000
  O   O62       1.0  0.9078  0.47678999999999994  0.39623000000000014  1.0000
  O   O63       1.0  0.90354  0.9696199999999999  0.3361900000000001  1.0000
  O   O64       1.0  0.84227  0.9085299999999998  0.47499000000000013  1.0000
  O   O65       1.0  0.96733  0.42121000000000003  0.90088  1.0000
  O   O66       1.0  0.33667  0.41921  0.96773  1.0000
  O   O67       1.0  0.33542  0.41672  0.9028600000000001  1.0000
  O   O68       1.0  0.91126  0.3905899999999999  0.8451200000000002  1.0000
  O   O69       1.0  0.47564  0.3937899999999999  0.8428400000000001  1.0000
  O   O70       1.0  0.4767899999999999  0.3962300000000001  0.9078  1.0000
  O   O71       1.0  0.96962  0.33618999999999993  0.9035400000000002  1.0000
  O   O72       1.0  0.90853  0.47498999999999997  0.84227  1.0000
  O   O73       1.0  0.9008800000000003  0.42121  0.9673300000000001  1.0000
  O   O74       1.0  0.9677300000000001  0.41921  0.33667000000000014  1.0000
  O   O75       1.0  0.9028600000000001  0.41672  0.33542  1.0000
  O   O76       1.0  0.8451200000000001  0.39058999999999994  0.9112600000000001  1.0000
  O   O77       1.0  0.84284  0.39379  0.4756400000000001  1.0000
  O   O78       1.0  0.9078  0.3962299999999999  0.47679  1.0000
  O   O79       1.0  0.90354  0.33619000000000004  0.96962  1.0000
  O   O80       1.0  0.8422699999999997  0.47498999999999997  0.9085300000000002  1.0000
  O   O81       1.0  0.9673300000000002  0.9008799999999999  0.4212100000000001  1.0000
  O   O82       1.0  0.33666999999999986  0.9677300000000001  0.41921000000000014  1.0000
  O   O83       1.0  0.33542  0.90286  0.4167200000000001  1.0000
  O   O84       1.0  0.91126  0.84512  0.39059000000000005  1.0000
  O   O85       1.0  0.47564000000000006  0.84284  0.39379000000000003  1.0000
  O   O86       1.0  0.4767900000000001  0.9078  0.39623000000000014  1.0000
  O   O87       1.0  0.96962  0.90354  0.3361900000000001  1.0000
  O   O88       1.0  0.90853  0.8422699999999997  0.47499000000000013  1.0000
  O   O89       1.0  0.42120999999999975  0.9673300000000001  0.90088  1.0000
  O   O90       1.0  0.41920999999999997  0.33667  0.96773  1.0000
  O   O91       1.0  0.41672000000000026  0.33541999999999994  0.9028600000000001  1.0000
  O   O92       1.0  0.3905899999999999  0.91126  0.8451200000000002  1.0000
  O   O93       1.0  0.3937900000000001  0.47564  0.8428400000000001  1.0000
  O   O94       1.0  0.3962299999999999  0.47679000000000005  0.9078  1.0000
  O   O95       1.0  0.33618999999999993  0.9696199999999997  0.9035400000000002  1.0000
  O   O96       1.0  0.4749899999999999  0.90853  0.84227  1.0000
