data_image0
_chemical_formula_structural       C3HCHC4HCHCHCHC4HCHCHCHC3HCHC3HCHC4HCHCHCHC8HCHC4HCHCHCHC3HCHC4HCHCHCHC3HCHC4HCHCHCHCO26Zn8C3HCHC4HCHCHCHC4HCHCHCHC3HCHC3HCHC4HCHCHCHC8HCHC4HCHCHCHC3HCHC4HCHCHCHC3HCHC4HCHCHCHCO26Zn8C3HCHC4HCHCHCHC4HCHCHCHC3HCHC3HCHC4HCHCHCHC8HCHC4HCHCHCHC3HCHC4HCHCHCHC3HCHC4HCHCHCHCO26Zn8C3HCHC4HCHCHCHC4HCHCHCHC3HCHC3HCHC4HCHCHCHC8HCHC4HCHCHCHC3HCHC4HCHCHCHC3HCHC4HCHCHCHCO26Zn8
_chemical_formula_sum              "C288 H144 O104 Zn32"
_cell_length_a       18.0784
_cell_length_b       18.7538
_cell_length_c       25.801100000000005
_cell_angle_alpha    90.0
_cell_angle_beta     108.992
_cell_angle_gamma    90.0

_symmetry_space_group_name_H-M    'P 1'
_symmetry_Int_Tables_number       1

loop_
  _symmetry_equiv_pos_as_xyz
  'x,y,z'

loop_
  _atom_site_type_symbol
  _atom_site_label
  _atom_site_symmetry_multiplicity
  _atom_site_fract_x
  _atom_site_fract_y
  _atom_site_fract_z
  _atom_site_occupancy
  C   C1        1.0  0.55813  0.87744  0.55292  1.0000
  C   C2        1.0  0.60722  0.9290900000000001  0.53388  1.0000
  C   C3        1.0  0.5976  0.99951  0.54308  1.0000
  H   H1        1.0  0.5671  0.0123  0.5645  1.0000
  C   C4        1.0  0.6323  0.05258  0.52129  1.0000
  H   H2        1.0  0.6223  0.1003  0.5264  1.0000
  C   C5        1.0  0.68131  0.03492  0.49209  1.0000
  C   C6        1.0  0.69644  0.9623500000000001  0.48381  1.0000
  C   C7        1.0  0.65794  0.9078699999999998  0.50397  1.0000
  C   C8        1.0  0.6719  0.8361  0.49305  1.0000
  H   H3        1.0  0.648  0.7998  0.5064  1.0000
  C   C9        1.0  0.7194  0.8189  0.4635099999999999  1.0000
  H   H4        1.0  0.727  0.7713  0.45659999999999995  1.0000
  C   C10       1.0  0.757  0.8725  0.44335  1.0000
  H   H5        1.0  0.7891  0.8602  0.42299999999999993  1.0000
  C   C11       1.0  0.7467  0.9420999999999999  0.45359  1.0000
  H   H6        1.0  0.7727  0.9771000000000001  0.4407  1.0000
  C   C12       1.0  0.55881  0.6188  0.55772  1.0000
  C   C13       1.0  0.6055  0.56396  0.53942  1.0000
  C   C14       1.0  0.6757  0.5339  0.57426  1.0000
  C   C15       1.0  0.7112  0.5553  0.6296  1.0000
  H   H7        1.0  0.6873  0.5902  0.6443  1.0000
  C   C16       1.0  0.7786999999999998  0.5259  0.6610999999999999  1.0000
  H   H8        1.0  0.8007  0.5408000000000001  0.6973  1.0000
  C   C17       1.0  0.8163999999999999  0.4732  0.64044  1.0000
  H   H9        1.0  0.8628  0.4532  0.663  1.0000
  C   C18       1.0  0.7856  0.4514  0.58785  1.0000
  H   H10       1.0  0.8111000000000002  0.4165  0.5745  1.0000
  C   C19       1.0  0.7148000000000002  0.48109  0.55261  1.0000
  C   C20       1.0  0.6795000000000001  0.45862  0.49715000000000004  1.0000
  C   C21       1.0  0.6116  0.4888  0.46592  1.0000
  H   H11       1.0  0.5885  0.4731  0.4301  1.0000
  C   C22       1.0  0.5756  0.5422  0.486  1.0000
  H   H12       1.0  0.5305  0.5637  0.4629  1.0000
  C   C23       1.0  0.30723  0.74912  0.45136  1.0000
  C   C24       1.0  0.25727  0.74977  0.39175  1.0000
  C   C25       1.0  0.17845000000000003  0.7504000000000001  0.38154999999999994  1.0000
  H   H13       1.0  0.15929999999999997  0.7513  0.41089999999999993  1.0000
  C   C26       1.0  0.1253  0.7498  0.32802  1.0000
  H   H14       1.0  0.0718  0.7508  0.3224  1.0000
  C   C27       1.0  0.15177  0.7476  0.28391  1.0000
  C   C28       1.0  0.23340999999999998  0.7489  0.29258  1.0000
  C   C29       1.0  0.28755  0.7503  0.34645999999999993  1.0000
  C   C30       1.0  0.36860000000000004  0.7517  0.3516  1.0000
  H   H15       1.0  0.4058  0.7522000000000001  0.3864  1.0000
  C   C31       1.0  0.39260000000000006  0.7523  0.30674  1.0000
  H   H16       1.0  0.44580000000000003  0.7537  0.3114  1.0000
  C   C32       1.0  0.339  0.7507  0.25419  1.0000
  H   H17       1.0  0.3565  0.7504000000000001  0.22400000000000003  1.0000
  C   C33       1.0  0.2609  0.7497000000000001  0.24660999999999997  1.0000
  H   H18       1.0  0.22520000000000004  0.7495  0.2113  1.0000
  C   C34       1.0  0.10583000000000002  0.10532000000000001  0.80743  1.0000
  C   C35       1.0  0.7109000000000001  0.09578  0.46609  1.0000
  C   C36       1.0  0.09294999999999999  0.7475  0.22703999999999996  1.0000
  C   C37       1.0  0.54483  0.7548  0.00687  1.0000
  C   C38       1.0  0.33230000000000004  0.11248  0.8290400000000001  1.0000
  C   C39       1.0  0.39136999999999994  0.88849  0.6922999999999999  1.0000
  C   C40       1.0  0.3735800000000001  0.94349  0.72925  1.0000
  C   C41       1.0  0.3264000000000001  0.00014  0.7067599999999999  1.0000
  H   H19       1.0  0.3015  0.0021  0.6691  1.0000
  C   C42       1.0  0.31527  0.05516999999999999  0.74006  1.0000
  H   H20       1.0  0.28220000000000006  0.0929  0.7242000000000001  1.0000
  C   C43       1.0  0.35225  0.05456  0.79571  1.0000
  C   C44       1.0  0.40364  0.99694  0.8207299999999998  1.0000
  C   C45       1.0  0.41306  0.94033  0.78685  1.0000
  C   C46       1.0  0.4639  0.88337  0.81078  1.0000
  H   H21       1.0  0.4692  0.8456  0.7889  1.0000
  C   C47       1.0  0.5048  0.8828000000000001  0.86487  1.0000
  H   H22       1.0  0.5381  0.8449000000000001  0.8799  1.0000
  C   C48       1.0  0.4972999999999999  0.9391000000000002  0.8984999999999999  1.0000
  H   H23       1.0  0.5263  0.9386  0.9356000000000001  1.0000
  C   C49       1.0  0.4482  0.9943  0.87755  1.0000
  H   H24       1.0  0.4436  0.031000000000000003  0.9006  1.0000
  C   C50       1.0  0.28701  0.74925  0.80344  1.0000
  C   C51       1.0  0.34625  0.7512200000000001  0.86006  1.0000
  C   C52       1.0  0.40519999999999995  0.7025  0.8712999999999999  1.0000
  H   H25       1.0  0.40490000000000004  0.6684  0.845  1.0000
  C   C53       1.0  0.46560000000000007  0.7023  0.92089  1.0000
  H   H26       1.0  0.5034  0.6666  0.9281  1.0000
  C   C54       1.0  0.47068  0.75411  0.95961  1.0000
  C   C55       1.0  0.40946  0.8060200000000001  0.95047  1.0000
  C   C56       1.0  0.34526000000000007  0.80268  0.90079  1.0000
  C   C57       1.0  0.2835  0.8526  0.89227  1.0000
  H   H27       1.0  0.24059999999999995  0.8506  0.8603999999999999  1.0000
  C   C58       1.0  0.2866000000000001  0.9037  0.93073  1.0000
  H   H28       1.0  0.2461  0.9365  0.9246  1.0000
  C   C59       1.0  0.35020000000000007  0.907  0.97916  1.0000
  H   H29       1.0  0.3516  0.9422  0.0049  1.0000
  C   C60       1.0  0.40970000000000006  0.8596000000000001  0.9890399999999999  1.0000
  H   H30       1.0  0.4513  0.8624  0.0217  1.0000
  C   C61       1.0  0.1643  0.88301  0.67035  1.0000
  C   C62       1.0  0.14295  0.93882  0.70395  1.0000
  C   C63       1.0  0.18906999999999993  0.94469  0.75762  1.0000
  H   H31       1.0  0.22839999999999994  0.9113  0.7721  1.0000
  C   C64       1.0  0.1785999999999999  0.99954  0.7912699999999999  1.0000
  H   H32       1.0  0.21200000000000005  0.0034  0.8272  1.0000
  C   C65       1.0  0.1189  0.04768  0.77098  1.0000
  C   C66       1.0  0.06659999999999995  0.04069  0.7165799999999999  1.0000
  C   C67       1.0  0.0796  0.9870400000000001  0.68171  1.0000
  C   C68       1.0  0.026899999999999986  0.9816  0.62738  1.0000
  H   H33       1.0  0.035999999999999956  0.9479000000000001  0.6037  1.0000
  C   C69       1.0  0.9629  0.0252  0.60932  1.0000
  H   H34       1.0  0.9284  0.0203  0.5738  1.0000
  C   C70       1.0  0.9491000000000002  0.0774  0.64418  1.0000
  H   H35       1.0  0.9051  0.1064  0.6319  1.0000
  C   C71       1.0  0.00020000000000001286  0.0855  0.69616  1.0000
  H   H36       1.0  0.9913  0.1211  0.7185  1.0000
  C   C72       1.0  0.712  0.40219  0.46996000000000004  1.0000
  O   O1        1.0  0.54408  0.89174  0.59594  1.0000
  O   O2        1.0  0.53124  0.82501  0.52231  1.0000
  O   O3        1.0  0.5275  0.6658300000000001  0.52358  1.0000
  O   O4        1.0  0.55182  0.6123300000000002  0.60419  1.0000
  O   O5        1.0  0.0661  0.80597  0.20897  1.0000
  O   O6        1.0  0.07491000000000002  0.6905  0.20341000000000004  1.0000
  O   O7        1.0  0.44218  0.75028  0.59838  1.0000
  O   O8        1.0  0.054180000000000006  0.08814  0.82924  1.0000
  O   O9        1.0  0.14071  0.16295  0.81486  1.0000
  O   O10       1.0  0.38021999999999995  0.75019  0.46213999999999994  1.0000
  O   O11       1.0  0.27404  0.74912  0.48654000000000003  1.0000
  O   O12       1.0  0.6635399999999999  0.3614200000000001  0.43791  1.0000
  O   O13       1.0  0.7849  0.39958  0.47839  1.0000
  O   O14       1.0  0.66119  0.1391  0.43938  1.0000
  O   O15       1.0  0.7834999999999999  0.09935  0.47337999999999997  1.0000
  O   O16       1.0  0.24143  0.7484700000000001  0.6017  1.0000
  O   O17       1.0  0.57594  0.6954  0.02302  1.0000
  O   O18       1.0  0.57394  0.8140500000000002  0.025749999999999995  1.0000
  O   O19       1.0  0.32789  0.09506  0.87501  1.0000
  O   O20       1.0  0.31805000000000005  0.17473  0.8094300000000001  1.0000
  O   O21       1.0  0.18499000000000004  0.82198  0.69121  1.0000
  O   O22       1.0  0.16388999999999995  0.9001600000000001  0.62318  1.0000
  O   O23       1.0  0.31546  0.74789  0.76542  1.0000
  O   O24       1.0  0.2156599999999999  0.74787  0.7988899999999999  1.0000
  O   O25       1.0  0.3594  0.82934  0.68341  1.0000
  O   O26       1.0  0.4433000000000001  0.9086500000000001  0.67254  1.0000
  Zn  Zn1       1.0  0.48641  0.66614  0.63899  1.0000
  Zn  Zn2       1.0  0.46504000000000006  0.74661  0.53021  1.0000
  Zn  Zn3       1.0  0.48562999999999995  0.83723  0.63584  1.0000
  Zn  Zn4       1.0  0.32723  0.7500500000000001  0.57159  1.0000
  Zn  Zn5       1.0  0.18215000000000003  0.66381  0.57089  1.0000
  Zn  Zn6       1.0  0.18018999999999996  0.83186  0.57082  1.0000
  Zn  Zn7       1.0  0.27644  0.74759  0.68387  1.0000
  Zn  Zn8       1.0  0.12389999999999995  0.75058  0.7292199999999999  1.0000
  C   C73       1.0  0.94187  0.37744  0.9470800000000001  1.0000
  C   C74       1.0  0.89278  0.42909  0.96612  1.0000
  C   C75       1.0  0.9024  0.49951000000000007  0.95692  1.0000
  H   H37       1.0  0.9329  0.5123  0.9355  1.0000
  C   C76       1.0  0.8677  0.55258  0.97871  1.0000
  H   H38       1.0  0.8777000000000001  0.6003  0.9736  1.0000
  C   C77       1.0  0.81869  0.53492  0.00791  1.0000
  C   C78       1.0  0.80356  0.4623499999999999  0.01619  1.0000
  C   C79       1.0  0.8420600000000001  0.40787  0.99603  1.0000
  C   C80       1.0  0.8281  0.3361  0.00695  1.0000
  H   H39       1.0  0.852  0.2998  0.9935999999999999  1.0000
  C   C81       1.0  0.7806000000000001  0.3189  0.03649  1.0000
  H   H40       1.0  0.773  0.2713  0.0434  1.0000
  C   C82       1.0  0.7430000000000001  0.3725  0.05665  1.0000
  H   H41       1.0  0.7109  0.3602  0.077  1.0000
  C   C83       1.0  0.7533  0.4421  0.04641  1.0000
  H   H42       1.0  0.7273  0.4771000000000001  0.059300000000000005  1.0000
  C   C84       1.0  0.94119  0.11880000000000002  0.9422799999999999  1.0000
  C   C85       1.0  0.8945  0.06396  0.9605799999999999  1.0000
  C   C86       1.0  0.8243  0.0339  0.92574  1.0000
  C   C87       1.0  0.7888000000000001  0.0553  0.8704  1.0000
  H   H43       1.0  0.8127  0.0902  0.8557  1.0000
  C   C88       1.0  0.7213  0.0259  0.8389  1.0000
  H   H44       1.0  0.6993  0.0408  0.8026999999999999  1.0000
  C   C89       1.0  0.6836  0.9732  0.85956  1.0000
  H   H45       1.0  0.6372  0.9532  0.837  1.0000
  C   C90       1.0  0.7144  0.9514  0.91215  1.0000
  H   H46       1.0  0.6889  0.9165  0.9255  1.0000
  C   C91       1.0  0.7852000000000001  0.9810900000000001  0.94739  1.0000
  C   C92       1.0  0.8205  0.95862  0.00285  1.0000
  C   C93       1.0  0.8884  0.9888000000000001  0.03408  1.0000
  H   H47       1.0  0.9115000000000001  0.9731  0.0699  1.0000
  C   C94       1.0  0.9244  0.0422  0.014000000000000002  1.0000
  H   H48       1.0  0.9694999999999999  0.06370000000000002  0.0371  1.0000
  C   C95       1.0  0.19277  0.24912  0.04864  1.0000
  C   C96       1.0  0.24273  0.24977  0.10825  1.0000
  C   C97       1.0  0.32155  0.2504  0.11845  1.0000
  H   H49       1.0  0.3407  0.2513  0.08909999999999998  1.0000
  C   C98       1.0  0.3747  0.24980000000000002  0.17198  1.0000
  H   H50       1.0  0.4282  0.2508  0.1776  1.0000
  C   C99       1.0  0.34823000000000004  0.2476  0.21609  1.0000
  C   C100      1.0  0.26659000000000005  0.24889999999999998  0.20742  1.0000
  C   C101      1.0  0.21245  0.2503  0.15354  1.0000
  C   C102      1.0  0.1314  0.2517  0.1484  1.0000
  H   H51       1.0  0.0942  0.2522  0.11359999999999999  1.0000
  C   C103      1.0  0.1074  0.2523  0.19326  1.0000
  H   H52       1.0  0.054200000000000005  0.2537  0.1886  1.0000
  C   C104      1.0  0.161  0.2507  0.24581  1.0000
  H   H53       1.0  0.1435  0.2504  0.276  1.0000
  C   C105      1.0  0.2391  0.24970000000000003  0.25339  1.0000
  H   H54       1.0  0.2748  0.2495  0.2887  1.0000
  C   C106      1.0  0.39416999999999996  0.60532  0.6925699999999999  1.0000
  C   C107      1.0  0.7891  0.59578  0.03391  1.0000
  C   C108      1.0  0.40705  0.2475  0.27296  1.0000
  C   C109      1.0  0.9551699999999999  0.2548000000000001  0.49313  1.0000
  C   C110      1.0  0.16770000000000004  0.61248  0.67096  1.0000
  C   C111      1.0  0.10863  0.38849  0.8077  1.0000
  C   C112      1.0  0.12642  0.44349  0.77075  1.0000
  C   C113      1.0  0.17360000000000006  0.50014  0.79324  1.0000
  H   H55       1.0  0.19849999999999995  0.5021  0.8309  1.0000
  C   C114      1.0  0.18472999999999995  0.55517  0.7599399999999998  1.0000
  H   H56       1.0  0.2178  0.5929  0.7758  1.0000
  C   C115      1.0  0.14775  0.55456  0.70429  1.0000
  C   C116      1.0  0.09636000000000003  0.49694000000000005  0.67927  1.0000
  C   C117      1.0  0.08693999999999993  0.44033  0.7131499999999998  1.0000
  C   C118      1.0  0.036099999999999986  0.38337  0.68922  1.0000
  H   H57       1.0  0.030800000000000015  0.3456000000000001  0.7111  1.0000
  C   C119      1.0  0.9951999999999999  0.3828  0.63513  1.0000
  H   H58       1.0  0.9619  0.3449  0.6201  1.0000
  C   C120      1.0  0.0027000000000000014  0.43910000000000005  0.6015  1.0000
  H   H59       1.0  0.9737  0.4386  0.5644  1.0000
  C   C121      1.0  0.05179999999999999  0.4943  0.62245  1.0000
  H   H60       1.0  0.05639999999999999  0.531  0.5994  1.0000
  C   C122      1.0  0.21298999999999996  0.24925  0.69656  1.0000
  C   C123      1.0  0.15375000000000005  0.25122  0.63994  1.0000
  C   C124      1.0  0.09480000000000005  0.20250000000000004  0.6287  1.0000
  H   H61       1.0  0.09510000000000002  0.1684  0.655  1.0000
  C   C125      1.0  0.0344  0.2023  0.57911  1.0000
  H   H62       1.0  0.9966  0.16660000000000003  0.5719  1.0000
  C   C126      1.0  0.029320000000000027  0.25411  0.54039  1.0000
  C   C127      1.0  0.09054  0.30602  0.54953  1.0000
  C   C128      1.0  0.15473999999999993  0.30268  0.59921  1.0000
  C   C129      1.0  0.21650000000000005  0.3526  0.60773  1.0000
  H   H63       1.0  0.2594  0.3506000000000001  0.6396  1.0000
  C   C130      1.0  0.2134  0.4037  0.56927  1.0000
  H   H64       1.0  0.2539  0.4365  0.5754  1.0000
  C   C131      1.0  0.1498  0.407  0.52084  1.0000
  H   H65       1.0  0.14839999999999992  0.44220000000000004  0.49509999999999993  1.0000
  C   C132      1.0  0.09030000000000006  0.3596  0.51096  1.0000
  H   H66       1.0  0.04869999999999996  0.3624  0.4783  1.0000
  C   C133      1.0  0.3357  0.38301  0.82965  1.0000
  C   C134      1.0  0.35705  0.43882  0.79605  1.0000
  C   C135      1.0  0.31093  0.44469  0.74238  1.0000
  H   H67       1.0  0.27160000000000006  0.4113  0.7279000000000001  1.0000
  C   C136      1.0  0.3214  0.49954  0.70873  1.0000
  H   H68       1.0  0.2879999999999999  0.5034  0.6727999999999998  1.0000
  C   C137      1.0  0.3811  0.54768  0.72902  1.0000
  C   C138      1.0  0.4334  0.54069  0.78342  1.0000
  C   C139      1.0  0.4204  0.48704000000000003  0.81829  1.0000
  C   C140      1.0  0.4731000000000001  0.4816  0.87262  1.0000
  H   H69       1.0  0.4640000000000001  0.4479000000000001  0.8962999999999999  1.0000
  C   C141      1.0  0.5371  0.5252000000000001  0.89068  1.0000
  H   H70       1.0  0.5716  0.5203  0.9262  1.0000
  C   C142      1.0  0.5509  0.5774  0.85582  1.0000
  H   H71       1.0  0.5949  0.6064  0.8681  1.0000
  C   C143      1.0  0.4998  0.5855000000000001  0.80384  1.0000
  H   H72       1.0  0.5087  0.6211  0.7815  1.0000
  C   C144      1.0  0.788  0.9021900000000002  0.03004  1.0000
  O   O27       1.0  0.95592  0.39174  0.90406  1.0000
  O   O28       1.0  0.96876  0.32501  0.97769  1.0000
  O   O29       1.0  0.9725  0.16583  0.97642  1.0000
  O   O30       1.0  0.94818  0.11233000000000001  0.89581  1.0000
  O   O31       1.0  0.4339  0.30597  0.29103  1.0000
  O   O32       1.0  0.42508999999999997  0.1905  0.29659  1.0000
  O   O33       1.0  0.05782000000000002  0.25028  0.90162  1.0000
  O   O34       1.0  0.44582000000000005  0.58814  0.6707599999999999  1.0000
  O   O35       1.0  0.35928999999999994  0.6629500000000002  0.6851399999999999  1.0000
  O   O36       1.0  0.11978  0.25019  0.03786  1.0000
  O   O37       1.0  0.22596000000000002  0.24912  0.01346  1.0000
  O   O38       1.0  0.83646  0.86142  0.062090000000000006  1.0000
  O   O39       1.0  0.7151  0.89958  0.021610000000000004  1.0000
  O   O40       1.0  0.83881  0.6391  0.06062  1.0000
  O   O41       1.0  0.7165  0.59935  0.026620000000000005  1.0000
  O   O42       1.0  0.25856999999999997  0.24847000000000002  0.8983  1.0000
  O   O43       1.0  0.9240600000000001  0.1954  0.47698  1.0000
  O   O44       1.0  0.9260600000000001  0.31405  0.47425  1.0000
  O   O45       1.0  0.17211000000000007  0.59506  0.62499  1.0000
  O   O46       1.0  0.18195000000000003  0.67473  0.69057  1.0000
  O   O47       1.0  0.31501  0.32198  0.80879  1.0000
  O   O48       1.0  0.33611  0.40016000000000007  0.8768199999999999  1.0000
  O   O49       1.0  0.18454  0.24789000000000003  0.7345800000000001  1.0000
  O   O50       1.0  0.28434  0.24787  0.70111  1.0000
  O   O51       1.0  0.14060000000000009  0.32934  0.8165900000000001  1.0000
  O   O52       1.0  0.056699999999999987  0.40865  0.8274599999999999  1.0000
  Zn  Zn9       1.0  0.01359000000000002  0.16614  0.86101  1.0000
  Zn  Zn10      1.0  0.03496000000000002  0.24661000000000002  0.96979  1.0000
  Zn  Zn11      1.0  0.014369999999999938  0.33723  0.8641599999999999  1.0000
  Zn  Zn12      1.0  0.17277  0.25005  0.92841  1.0000
  Zn  Zn13      1.0  0.31784999999999997  0.16381  0.9291099999999999  1.0000
  Zn  Zn14      1.0  0.31981000000000004  0.33186  0.92918  1.0000
  Zn  Zn15      1.0  0.22356  0.24759  0.81613  1.0000
  Zn  Zn16      1.0  0.3761  0.25058  0.77078  1.0000
  C   C145      1.0  0.44186999999999993  0.12256000000000002  0.44708  1.0000
  C   C146      1.0  0.39278  0.07091  0.46612  1.0000
  C   C147      1.0  0.4024  0.00049  0.45692  1.0000
  H   H73       1.0  0.4329  0.9877000000000001  0.43549999999999994  1.0000
  C   C148      1.0  0.3677  0.9474200000000002  0.47871  1.0000
  H   H74       1.0  0.3777  0.8997  0.4736  1.0000
  C   C149      1.0  0.3186899999999999  0.9650800000000002  0.50791  1.0000
  C   C150      1.0  0.30356  0.03765  0.51619  1.0000
  C   C151      1.0  0.34206  0.09213  0.49603  1.0000
  C   C152      1.0  0.3281  0.1639  0.50695  1.0000
  H   H75       1.0  0.3519999999999999  0.20020000000000002  0.4936  1.0000
  C   C153      1.0  0.2806  0.1811  0.53649  1.0000
  H   H76       1.0  0.273  0.2287  0.5434  1.0000
  C   C154      1.0  0.243  0.1275  0.55665  1.0000
  H   H77       1.0  0.21089999999999998  0.1398  0.577  1.0000
  C   C155      1.0  0.2533  0.0579  0.54641  1.0000
  H   H78       1.0  0.2273  0.0229  0.5593  1.0000
  C   C156      1.0  0.44119  0.3812  0.44228  1.0000
  C   C157      1.0  0.3945  0.43604  0.46058  1.0000
  C   C158      1.0  0.3243  0.4661  0.42574  1.0000
  C   C159      1.0  0.2888  0.4447  0.3704  1.0000
  H   H79       1.0  0.3127  0.4098  0.35569999999999996  1.0000
  C   C160      1.0  0.2213  0.4741  0.3389  1.0000
  H   H80       1.0  0.1993  0.4592  0.3027  1.0000
  C   C161      1.0  0.1836  0.5268  0.35956  1.0000
  H   H81       1.0  0.13720000000000002  0.5468  0.3370000000000001  1.0000
  C   C162      1.0  0.2144  0.5486  0.41215  1.0000
  H   H82       1.0  0.18889999999999998  0.5835  0.4255  1.0000
  C   C163      1.0  0.2852  0.51891  0.44739  1.0000
  C   C164      1.0  0.3205  0.54138  0.50285  1.0000
  C   C165      1.0  0.3884  0.5112  0.53408  1.0000
  H   H83       1.0  0.4114999999999999  0.5269  0.5699  1.0000
  C   C166      1.0  0.42440000000000005  0.4578  0.514  1.0000
  H   H84       1.0  0.4694999999999999  0.4363000000000001  0.5371  1.0000
  C   C167      1.0  0.69277  0.25088  0.54864  1.0000
  C   C168      1.0  0.74273  0.25023  0.60825  1.0000
  C   C169      1.0  0.82155  0.24960000000000002  0.61845  1.0000
  H   H85       1.0  0.8407  0.2487  0.5891  1.0000
  C   C170      1.0  0.8747  0.2502  0.67198  1.0000
  H   H86       1.0  0.9282  0.2492  0.6776000000000001  1.0000
  C   C171      1.0  0.84823  0.2524  0.71609  1.0000
  C   C172      1.0  0.76659  0.25110000000000005  0.70742  1.0000
  C   C173      1.0  0.71245  0.24970000000000003  0.65354  1.0000
  C   C174      1.0  0.6314  0.2483  0.6484  1.0000
  H   H87       1.0  0.5942  0.2478  0.6136  1.0000
  C   C175      1.0  0.6074  0.2477  0.69326  1.0000
  H   H88       1.0  0.5541999999999999  0.24630000000000002  0.6885999999999999  1.0000
  C   C176      1.0  0.6610000000000001  0.2493  0.74581  1.0000
  H   H89       1.0  0.6435000000000001  0.24960000000000002  0.7760000000000001  1.0000
  C   C177      1.0  0.7390999999999999  0.2503  0.7533899999999999  1.0000
  H   H90       1.0  0.7748  0.2505  0.7887  1.0000
  C   C178      1.0  0.8941699999999999  0.89468  0.19257  1.0000
  C   C179      1.0  0.2891  0.90422  0.53391  1.0000
  C   C180      1.0  0.9070500000000001  0.2525  0.77296  1.0000
  C   C181      1.0  0.4551700000000001  0.2452  0.99313  1.0000
  C   C182      1.0  0.6677  0.88752  0.17096  1.0000
  C   C183      1.0  0.60863  0.11151  0.3077  1.0000
  C   C184      1.0  0.62642  0.056510000000000005  0.27075  1.0000
  C   C185      1.0  0.6735999999999999  0.9998600000000001  0.29324  1.0000
  H   H91       1.0  0.6985000000000001  0.9979000000000001  0.3309  1.0000
  C   C186      1.0  0.68473  0.94483  0.25994  1.0000
  H   H92       1.0  0.7178  0.9071000000000001  0.2758  1.0000
  C   C187      1.0  0.64775  0.94544  0.20428999999999997  1.0000
  C   C188      1.0  0.59636  0.00306  0.17927  1.0000
  C   C189      1.0  0.58694  0.05967  0.21315  1.0000
  C   C190      1.0  0.5361  0.11663  0.18922  1.0000
  H   H93       1.0  0.5308  0.1544  0.2111  1.0000
  C   C191      1.0  0.4952  0.11720000000000001  0.13513  1.0000
  H   H94       1.0  0.4618999999999999  0.15510000000000002  0.1201  1.0000
  C   C192      1.0  0.5027  0.0609  0.1015  1.0000
  H   H95       1.0  0.47370000000000007  0.0614  0.0644  1.0000
  C   C193      1.0  0.5518  0.0057  0.12244999999999999  1.0000
  H   H96       1.0  0.5564  0.9690000000000001  0.0994  1.0000
  C   C194      1.0  0.71299  0.25075  0.19656  1.0000
  C   C195      1.0  0.65375  0.24878  0.13994  1.0000
  C   C196      1.0  0.5948  0.2975  0.1287  1.0000
  H   H97       1.0  0.5951  0.3316  0.155  1.0000
  C   C197      1.0  0.5344  0.2977  0.07911  1.0000
  H   H98       1.0  0.49660000000000004  0.3334  0.0719  1.0000
  C   C198      1.0  0.52932  0.24589  0.04039  1.0000
  C   C199      1.0  0.59054  0.19398  0.04952999999999999  1.0000
  C   C200      1.0  0.65474  0.19732000000000002  0.09920999999999999  1.0000
  C   C201      1.0  0.7165  0.1474  0.10773  1.0000
  H   H99       1.0  0.7594  0.1494  0.1396  1.0000
  C   C202      1.0  0.7134  0.0963  0.06927  1.0000
  H   H100      1.0  0.7539  0.0635  0.0754  1.0000
  C   C203      1.0  0.6498  0.093  0.02084  1.0000
  H   H101      1.0  0.6484  0.0578  0.9951  1.0000
  C   C204      1.0  0.5903  0.1404  0.01096  1.0000
  H   H102      1.0  0.5487  0.1376  0.9783  1.0000
  C   C205      1.0  0.8357  0.11699000000000001  0.32965  1.0000
  C   C206      1.0  0.85705  0.06118  0.29605  1.0000
  C   C207      1.0  0.81093  0.05531  0.24238  1.0000
  H   H103      1.0  0.7716  0.0887  0.2279  1.0000
  C   C208      1.0  0.8214  0.00046000000000000007  0.20872999999999997  1.0000
  H   H104      1.0  0.788  0.9966000000000002  0.17279999999999998  1.0000
  C   C209      1.0  0.8811  0.9523200000000002  0.22902  1.0000
  C   C210      1.0  0.9334000000000001  0.95931  0.28342  1.0000
  C   C211      1.0  0.9204000000000001  0.01296  0.31829  1.0000
  C   C212      1.0  0.9730999999999999  0.0184  0.37262  1.0000
  H   H105      1.0  0.9640000000000001  0.0521  0.3963  1.0000
  C   C213      1.0  0.0371  0.9748  0.39068  1.0000
  H   H106      1.0  0.07160000000000001  0.9797  0.4262  1.0000
  C   C214      1.0  0.05090000000000003  0.9226  0.3558200000000001  1.0000
  H   H107      1.0  0.09490000000000003  0.8936  0.3681  1.0000
  C   C215      1.0  0.9998  0.9145  0.30384  1.0000
  H   H108      1.0  0.008700000000000018  0.8789  0.2815  1.0000
  C   C216      1.0  0.288  0.5978100000000001  0.53004  1.0000
  O   O53       1.0  0.45592  0.10825999999999998  0.4040599999999999  1.0000
  O   O54       1.0  0.46876  0.17499  0.47769  1.0000
  O   O55       1.0  0.4725  0.33417  0.47642  1.0000
  O   O56       1.0  0.44818  0.38767  0.39580999999999994  1.0000
  O   O57       1.0  0.9339  0.19403  0.79103  1.0000
  O   O58       1.0  0.9250900000000001  0.3095  0.79659  1.0000
  O   O59       1.0  0.55782  0.24972  0.40162  1.0000
  O   O60       1.0  0.94582  0.9118600000000001  0.17076  1.0000
  O   O61       1.0  0.85929  0.83705  0.18514  1.0000
  O   O62       1.0  0.61978  0.24981000000000003  0.53786  1.0000
  O   O63       1.0  0.72596  0.25088  0.51346  1.0000
  O   O64       1.0  0.33646  0.63858  0.56209  1.0000
  O   O65       1.0  0.21509999999999999  0.60042  0.52161  1.0000
  O   O66       1.0  0.33880999999999994  0.8609000000000001  0.56062  1.0000
  O   O67       1.0  0.21650000000000005  0.90065  0.52662  1.0000
  O   O68       1.0  0.75857  0.25153  0.3983  1.0000
  O   O69       1.0  0.4240600000000001  0.30460000000000004  0.97698  1.0000
  O   O70       1.0  0.42606  0.18595  0.97425  1.0000
  O   O71       1.0  0.67211  0.90494  0.12499  1.0000
  O   O72       1.0  0.68195  0.82527  0.19057  1.0000
  O   O73       1.0  0.81501  0.17802  0.30879  1.0000
  O   O74       1.0  0.83611  0.09984  0.37682  1.0000
  O   O75       1.0  0.68454  0.25211  0.23458  1.0000
  O   O76       1.0  0.78434  0.25213  0.20110999999999998  1.0000
  O   O77       1.0  0.6406  0.17066  0.31659  1.0000
  O   O78       1.0  0.5567  0.09135  0.32746  1.0000
  Zn  Zn17      1.0  0.51359  0.33386  0.36101  1.0000
  Zn  Zn18      1.0  0.53496  0.25339  0.46979  1.0000
  Zn  Zn19      1.0  0.51437  0.16277  0.36416  1.0000
  Zn  Zn20      1.0  0.67277  0.24995  0.42841  1.0000
  Zn  Zn21      1.0  0.81785  0.33619000000000004  0.42911  1.0000
  Zn  Zn22      1.0  0.81981  0.16814  0.42918  1.0000
  Zn  Zn23      1.0  0.72357  0.25241  0.31613  1.0000
  Zn  Zn24      1.0  0.8761  0.24942000000000003  0.27078  1.0000
  C   C217      1.0  0.05813000000000001  0.62256  0.052919999999999995  1.0000
  C   C218      1.0  0.10722  0.57091  0.03388  1.0000
  C   C219      1.0  0.0976  0.50049  0.04308  1.0000
  H   H109      1.0  0.0671  0.4877  0.0645  1.0000
  C   C220      1.0  0.1323  0.44742000000000004  0.02129  1.0000
  H   H110      1.0  0.1223  0.3997  0.0264  1.0000
  C   C221      1.0  0.18130999999999992  0.46508000000000005  0.99209  1.0000
  C   C222      1.0  0.19644000000000003  0.53765  0.9838100000000001  1.0000
  C   C223      1.0  0.15794  0.59213  0.00397  1.0000
  C   C224      1.0  0.17189999999999997  0.6639  0.99305  1.0000
  H   H111      1.0  0.14800000000000002  0.7002  0.0064  1.0000
  C   C225      1.0  0.21940000000000004  0.6811  0.96351  1.0000
  H   H112      1.0  0.2269999999999999  0.7287  0.9566  1.0000
  C   C226      1.0  0.25700000000000006  0.6275  0.94335  1.0000
  H   H113      1.0  0.2891  0.6398  0.923  1.0000
  C   C227      1.0  0.24670000000000006  0.5579  0.95359  1.0000
  H   H114      1.0  0.27269999999999994  0.5229  0.9406999999999999  1.0000
  C   C228      1.0  0.05881  0.8811999999999999  0.05772  1.0000
  C   C229      1.0  0.1055  0.93604  0.03942  1.0000
  C   C230      1.0  0.17570000000000002  0.9661  0.07426  1.0000
  C   C231      1.0  0.2112  0.9447000000000001  0.1296  1.0000
  H   H115      1.0  0.1873  0.9098  0.1443  1.0000
  C   C232      1.0  0.2787  0.9741000000000001  0.1611  1.0000
  H   H116      1.0  0.3007  0.9592  0.19730000000000003  1.0000
  C   C233      1.0  0.3164  0.0268  0.14044  1.0000
  H   H117      1.0  0.3628  0.0468  0.163  1.0000
  C   C234      1.0  0.2856  0.0486  0.08785  1.0000
  H   H118      1.0  0.3111  0.0835  0.0745  1.0000
  C   C235      1.0  0.2148  0.01891  0.05260999999999999  1.0000
  C   C236      1.0  0.17950000000000002  0.04138  0.99715  1.0000
  C   C237      1.0  0.1116  0.011200000000000002  0.96592  1.0000
  H   H119      1.0  0.08849999999999991  0.0269  0.9300999999999999  1.0000
  C   C238      1.0  0.0756  0.9578  0.986  1.0000
  H   H120      1.0  0.030500000000000117  0.9363000000000001  0.9629  1.0000
  C   C239      1.0  0.80723  0.75088  0.95136  1.0000
  C   C240      1.0  0.75727  0.75023  0.89175  1.0000
  C   C241      1.0  0.6784499999999999  0.7496  0.8815499999999998  1.0000
  H   H121      1.0  0.6593  0.7487  0.9109  1.0000
  C   C242      1.0  0.6253  0.7502  0.82802  1.0000
  H   H122      1.0  0.5718  0.7492  0.8224  1.0000
  C   C243      1.0  0.65177  0.7524  0.78391  1.0000
  C   C244      1.0  0.73341  0.7511  0.79258  1.0000
  C   C245      1.0  0.78755  0.7497000000000001  0.84646  1.0000
  C   C246      1.0  0.8686  0.7483  0.8516000000000001  1.0000
  H   H123      1.0  0.9058000000000002  0.7478  0.8864000000000001  1.0000
  C   C247      1.0  0.8926000000000001  0.7477  0.80674  1.0000
  H   H124      1.0  0.9458  0.7463  0.8114  1.0000
  C   C248      1.0  0.839  0.7493  0.7541900000000001  1.0000
  H   H125      1.0  0.8565  0.7496  0.724  1.0000
  C   C249      1.0  0.7609  0.7503  0.74661  1.0000
  H   H126      1.0  0.7252  0.7505  0.7113  1.0000
  C   C250      1.0  0.60583  0.39468  0.30743  1.0000
  C   C251      1.0  0.21090000000000006  0.40422  0.96609  1.0000
  C   C252      1.0  0.59295  0.7525  0.7270400000000001  1.0000
  C   C253      1.0  0.04482999999999999  0.7452  0.50687  1.0000
  C   C254      1.0  0.8323  0.38752  0.32904  1.0000
  C   C255      1.0  0.8913700000000001  0.61151  0.1923  1.0000
  C   C256      1.0  0.87358  0.55651  0.22925  1.0000
  C   C257      1.0  0.8264  0.49986  0.20676  1.0000
  H   H127      1.0  0.8015  0.49790000000000006  0.1691  1.0000
  C   C258      1.0  0.81527  0.44483000000000006  0.24006  1.0000
  H   H128      1.0  0.7822  0.4071  0.2242  1.0000
  C   C259      1.0  0.85225  0.44544  0.29571  1.0000
  C   C260      1.0  0.9036400000000001  0.50306  0.32073  1.0000
  C   C261      1.0  0.9130600000000001  0.55967  0.28685  1.0000
  C   C262      1.0  0.9639  0.61663  0.31078  1.0000
  H   H129      1.0  0.9692  0.6544  0.2889  1.0000
  C   C263      1.0  0.004799999999999989  0.6172  0.36487  1.0000
  H   H130      1.0  0.038100000000000016  0.6551  0.37989999999999996  1.0000
  C   C264      1.0  0.9973  0.5609  0.3985  1.0000
  H   H131      1.0  0.026299999999999997  0.5614  0.4356  1.0000
  C   C265      1.0  0.9481999999999999  0.5057  0.37755  1.0000
  H   H132      1.0  0.9436  0.469  0.4006  1.0000
  C   C266      1.0  0.78701  0.75075  0.30344  1.0000
  C   C267      1.0  0.8462500000000001  0.74878  0.36006000000000005  1.0000
  C   C268      1.0  0.9052000000000001  0.7975  0.3713000000000001  1.0000
  H   H133      1.0  0.9049  0.8316  0.3449999999999999  1.0000
  C   C269      1.0  0.9656  0.7977  0.42089  1.0000
  H   H134      1.0  0.0033999999999999976  0.8334  0.4281  1.0000
  C   C270      1.0  0.97068  0.74589  0.45961  1.0000
  C   C271      1.0  0.9094600000000002  0.69398  0.45047000000000004  1.0000
  C   C272      1.0  0.84526  0.69732  0.40079  1.0000
  C   C273      1.0  0.7835  0.6474  0.39227  1.0000
  H   H135      1.0  0.7406000000000001  0.6494  0.3604  1.0000
  C   C274      1.0  0.7866  0.5963  0.43073  1.0000
  H   H136      1.0  0.7461  0.5635  0.4246  1.0000
  C   C275      1.0  0.8502  0.593  0.47916  1.0000
  H   H137      1.0  0.8516  0.5578  0.5049  1.0000
  C   C276      1.0  0.9097  0.6404  0.48904  1.0000
  H   H138      1.0  0.9513000000000001  0.6376  0.5217  1.0000
  C   C277      1.0  0.6643  0.61699  0.17035  1.0000
  C   C278      1.0  0.64295  0.56118  0.20395  1.0000
  C   C279      1.0  0.68907  0.55531  0.25762  1.0000
  H   H139      1.0  0.7284  0.5887  0.2721  1.0000
  C   C280      1.0  0.6786000000000001  0.50046  0.29127  1.0000
  H   H140      1.0  0.712  0.4966  0.3272  1.0000
  C   C281      1.0  0.6189000000000001  0.45231999999999994  0.27098  1.0000
  C   C282      1.0  0.5666  0.45931  0.21658  1.0000
  C   C283      1.0  0.5796  0.51296  0.18171  1.0000
  C   C284      1.0  0.5269  0.5184000000000001  0.12738  1.0000
  H   H141      1.0  0.536  0.5521  0.1037  1.0000
  C   C285      1.0  0.4629  0.47479999999999994  0.10932  1.0000
  H   H142      1.0  0.4284  0.4797  0.0738  1.0000
  C   C286      1.0  0.4491  0.4226  0.14418  1.0000
  H   H143      1.0  0.4051  0.3936  0.1319  1.0000
  C   C287      1.0  0.5002  0.4145  0.19616000000000003  1.0000
  H   H144      1.0  0.4913  0.37890000000000007  0.2185  1.0000
  C   C288      1.0  0.21199999999999997  0.09781000000000001  0.96996  1.0000
  O   O79       1.0  0.04408000000000001  0.60826  0.09594  1.0000
  O   O80       1.0  0.03124  0.67499  0.02231  1.0000
  O   O81       1.0  0.027500000000000004  0.83417  0.02358  1.0000
  O   O82       1.0  0.05181999999999999  0.88767  0.10418999999999999  1.0000
  O   O83       1.0  0.5661000000000002  0.69403  0.70897  1.0000
  O   O84       1.0  0.57491  0.8095  0.7034099999999999  1.0000
  O   O85       1.0  0.9421799999999999  0.74972  0.09838  1.0000
  O   O86       1.0  0.55418  0.41186  0.32924  1.0000
  O   O87       1.0  0.64071  0.33705  0.31486  1.0000
  O   O88       1.0  0.8802200000000002  0.74981  0.96214  1.0000
  O   O89       1.0  0.7740400000000001  0.75088  0.98654  1.0000
  O   O90       1.0  0.16353999999999994  0.13858  0.9379099999999999  1.0000
  O   O91       1.0  0.2849000000000001  0.10042000000000001  0.9783900000000001  1.0000
  O   O92       1.0  0.16119000000000003  0.3609  0.93938  1.0000
  O   O93       1.0  0.2835  0.40065000000000006  0.97338  1.0000
  O   O94       1.0  0.74143  0.75153  0.1017  1.0000
  O   O95       1.0  0.07594000000000004  0.8046  0.52302  1.0000
  O   O96       1.0  0.07394000000000006  0.68595  0.52575  1.0000
  O   O97       1.0  0.82789  0.40494  0.37501  1.0000
  O   O98       1.0  0.8180500000000002  0.32527  0.30943  1.0000
  O   O99       1.0  0.68499  0.67802  0.19121  1.0000
  O   O100      1.0  0.66389  0.59984  0.12318  1.0000
  O   O101      1.0  0.81546  0.7521100000000001  0.26542  1.0000
  O   O102      1.0  0.7156600000000001  0.75213  0.29889  1.0000
  O   O103      1.0  0.8594  0.67066  0.18341  1.0000
  O   O104      1.0  0.9433  0.59135  0.17254  1.0000
  Zn  Zn25      1.0  0.98641  0.83386  0.13899  1.0000
  Zn  Zn26      1.0  0.96504  0.75339  0.030209999999999997  1.0000
  Zn  Zn27      1.0  0.9856300000000001  0.66277  0.13584  1.0000
  Zn  Zn28      1.0  0.82723  0.74995  0.07159  1.0000
  Zn  Zn29      1.0  0.68215  0.83619  0.07089  1.0000
  Zn  Zn30      1.0  0.68019  0.6681400000000001  0.07082  1.0000
  Zn  Zn31      1.0  0.77643  0.75241  0.18387  1.0000
  Zn  Zn32      1.0  0.6239  0.7494200000000001  0.22922  1.0000
