data_image0
_chemical_formula_structural       Co20H304C380N72O80
_chemical_formula_sum              "Co20 H304 C380 N72 O80"
_cell_length_a       16.2099
_cell_length_b       17.2061
_cell_length_c       34.9123
_cell_angle_alpha    94.60400000000001
_cell_angle_beta     90.0
_cell_angle_gamma    90.0

_space_group_name_H-M_alt    "P 1"
_space_group_IT_number       1

loop_
  _space_group_symop_operation_xyz
  'x, y, z'

loop_
  _atom_site_type_symbol
  _atom_site_label
  _atom_site_symmetry_multiplicity
  _atom_site_fract_x
  _atom_site_fract_y
  _atom_site_fract_z
  _atom_site_occupancy
  Co  Co1       1.0  0.21872  0.11369  0.01183  1.0000
  Co  Co2       1.0  0.71872  0.38631  0.48816999999999994  1.0000
  Co  Co3       1.0  0.52725  0.9519999999999998  0.66375  1.0000
  Co  Co4       1.0  0.02725  0.548  0.8362499999999998  1.0000
  Co  Co5       1.0  0.43089  0.41488  0.14667  1.0000
  Co  Co6       1.0  0.78128  0.8863099999999999  0.98817  1.0000
  Co  Co7       1.0  0.76384  0.60983  0.48892  1.0000
  Co  Co8       1.0  0.75574  0.72033  0.20506999999999995  1.0000
  Co  Co9       1.0  0.74426  0.22033  0.70507  1.0000
  Co  Co10      1.0  0.26384  0.89017  0.01108  1.0000
  Co  Co11      1.0  0.56911  0.58512  0.8533299999999999  1.0000
  Co  Co12      1.0  0.73616  0.10982999999999997  0.98892  1.0000
  Co  Co13      1.0  0.24426  0.27967  0.79493  1.0000
  Co  Co14      1.0  0.25574  0.77967  0.29493  1.0000
  Co  Co15      1.0  0.23616  0.39017  0.51108  1.0000
  Co  Co16      1.0  0.97275  0.452  0.16374999999999998  1.0000
  Co  Co17      1.0  0.06911  0.91488  0.64667  1.0000
  Co  Co18      1.0  0.28128  0.6136900000000001  0.51183  1.0000
  Co  Co19      1.0  0.47275  0.04799999999999998  0.3362499999999999  1.0000
  Co  Co20      1.0  0.93089  0.08512  0.35333  1.0000
  H   H1        1.0  0.1195  0.9372000000000001  0.2541  1.0000
  H   H2        1.0  0.1018  0.7971  0.4091999999999999  1.0000
  H   H3        1.0  0.4623  0.1262  0.9975  1.0000
  H   H4        1.0  0.5456  0.1398  0.1967  1.0000
  H   H5        1.0  0.9795  0.2679  0.1772  1.0000
  H   H6        1.0  0.0186  0.182  0.472  1.0000
  H   H7        1.0  0.9814  0.8179999999999998  0.5279999999999998  1.0000
  H   H8        1.0  0.0052  0.9956  0.9590999999999998  1.0000
  H   H9        1.0  0.9344  0.5889  0.38879999999999987  1.0000
  H   H10       1.0  0.9597  0.0857  0.05649999999999999  1.0000
  H   H11       1.0  0.6253  0.0858  0.08919999999999999  1.0000
  H   H12       1.0  0.7725  0.35999999999999993  0.6275999999999998  1.0000
  H   H13       1.0  0.1398  0.5736  0.3331  1.0000
  H   H14       1.0  0.8245  0.48569999999999997  0.2535  1.0000
  H   H15       1.0  0.1707  0.6186  0.6321  1.0000
  H   H16       1.0  0.8805  0.0628  0.7459  1.0000
  H   H17       1.0  0.3503  0.41880000000000006  0.3898  1.0000
  H   H18       1.0  0.7534  0.19479999999999997  0.9099999999999999  1.0000
  H   H19       1.0  0.3293  0.11860000000000001  0.1321  1.0000
  H   H20       1.0  0.5768  0.8139  0.0591  1.0000
  H   H21       1.0  0.6542  0.4978  0.925  1.0000
  H   H22       1.0  0.4541  0.6694999999999999  0.7155  1.0000
  H   H23       1.0  0.8733  0.7596  0.1338  1.0000
  H   H24       1.0  0.9623  0.3738  0.5025  1.0000
  H   H25       1.0  0.2004  0.1513  0.2578999999999999  1.0000
  H   H26       1.0  0.2996  0.6512999999999999  0.7579  1.0000
  H   H27       1.0  0.3628  0.6053  0.6104  1.0000
  H   H28       1.0  0.3335  0.2812  0.09089999999999998  1.0000
  H   H29       1.0  0.9577  0.4659  0.9743  1.0000
  H   H30       1.0  0.1391  0.04089999999999996  0.7817999999999998  1.0000
  H   H31       1.0  0.0456  0.3602  0.3033  1.0000
  H   H32       1.0  0.19  0.24699999999999997  0.11959999999999998  1.0000
  H   H33       1.0  0.156  0.5104  0.45499999999999996  1.0000
  H   H34       1.0  0.62  0.5557  0.0841  1.0000
  H   H35       1.0  0.5328  0.7659  0.8334999999999998  1.0000
  H   H36       1.0  0.4948000000000001  0.4956  0.45909999999999995  1.0000
  H   H37       1.0  0.3247  0.2983  0.4388  1.0000
  H   H38       1.0  0.6267  0.2596  0.6338  1.0000
  H   H39       1.0  0.1137  0.9483999999999999  0.1887  1.0000
  H   H40       1.0  0.2239  0.0642  0.5285  1.0000
  H   H41       1.0  0.5377  0.8738  0.0024999999999999996  1.0000
  H   H42       1.0  0.0459  0.1695  0.21549999999999994  1.0000
  H   H43       1.0  0.9541  0.8305  0.7844999999999999  1.0000
  H   H44       1.0  0.3459  0.5051999999999999  0.5672  1.0000
  H   H45       1.0  0.2927  0.3056  0.3331  1.0000
  H   H46       1.0  0.7275  0.86  0.12759999999999996  1.0000
  H   H47       1.0  0.7927  0.1944  0.1669  1.0000
  H   H48       1.0  0.12  0.9442999999999999  0.4158999999999999  1.0000
  H   H49       1.0  0.2223  0.9173  0.3672  1.0000
  H   H50       1.0  0.4672  0.23410000000000003  0.16649999999999998  1.0000
  H   H51       1.0  0.2725  0.14  0.8724  1.0000
  H   H52       1.0  0.2189  0.1957  0.5209  1.0000
  H   H53       1.0  0.9544  0.6398  0.6967  1.0000
  H   H54       1.0  0.0068  0.7669  0.9500999999999998  1.0000
  H   H55       1.0  0.2001  0.8707  0.1507  1.0000
  H   H56       1.0  0.5241  0.35899999999999993  0.6423  1.0000
  H   H57       1.0  0.8747  0.5858  0.5891999999999997  1.0000
  H   H58       1.0  0.844  0.4895999999999999  0.545  1.0000
  H   H59       1.0  0.1665  0.7812  0.5908999999999999  1.0000
  H   H60       1.0  0.7548  0.65  0.0238  1.0000
  H   H61       1.0  0.3982  0.2971  0.9092  1.0000
  H   H62       1.0  0.8602  0.4264  0.6669  1.0000
  H   H63       1.0  0.9849  0.5893  0.9749  1.0000
  H   H64       1.0  0.8321  0.3389  0.0791  1.0000
  H   H65       1.0  0.1426  0.3817  0.1204  1.0000
  H   H66       1.0  0.0151  0.4107  0.025099999999999994  1.0000
  H   H67       1.0  0.2386  0.7986  0.5313  1.0000
  H   H68       1.0  0.0403  0.9143  0.9435  1.0000
  H   H69       1.0  0.3278  0.4641  0.3314999999999999  1.0000
  H   H70       1.0  0.7614  0.2014  0.4687  1.0000
  H   H71       1.0  0.2604  0.6807  0.8548  1.0000
  H   H72       1.0  0.2548  0.85  0.4762  1.0000
  H   H73       1.0  0.4759  0.641  0.3577  1.0000
  H   H74       1.0  0.8014  0.4619  0.08149999999999998  1.0000
  H   H75       1.0  0.19  0.5932  0.6953  1.0000
  H   H76       1.0  0.0792  0.14999999999999997  0.40929999999999994  1.0000
  H   H77       1.0  0.31  0.09319999999999999  0.1953  1.0000
  H   H78       1.0  0.4208  0.65  0.9093  1.0000
  H   H79       1.0  0.6137  0.5515999999999999  0.3113  1.0000
  H   H80       1.0  0.9759  0.859  0.14229999999999998  1.0000
  H   H81       1.0  0.2681  0.9424  0.7328  1.0000
  H   H82       1.0  0.6707  0.8814  0.8679  1.0000
  H   H83       1.0  0.0576  0.08999999999999997  0.786  1.0000
  H   H84       1.0  0.1594  0.6214999999999999  0.0985  1.0000
  H   H85       1.0  0.8592  0.4023  0.7281999999999997  1.0000
  H   H86       1.0  0.8593  0.4598  0.9233999999999999  1.0000
  H   H87       1.0  0.285  0.6944  0.4335  1.0000
  H   H88       1.0  0.8838  0.6899  0.07079999999999999  1.0000
  H   H89       1.0  0.8293  0.3814000000000001  0.3679  1.0000
  H   H90       1.0  0.31  0.747  0.6195999999999999  1.0000
  H   H91       1.0  0.6722  0.5359  0.6684999999999998  1.0000
  H   H92       1.0  0.5205  0.7679  0.6772  1.0000
  H   H93       1.0  0.7386  0.7014  0.9687  1.0000
  H   H94       1.0  0.69  0.253  0.3804  1.0000
  H   H95       1.0  0.7996  0.8487  0.7420999999999998  1.0000
  H   H96       1.0  0.6018  0.7029  0.0908  1.0000
  H   H97       1.0  0.6426  0.1183  0.3796  1.0000
  H   H98       1.0  0.7319  0.0576  0.2672  1.0000
  H   H99       1.0  0.0328  0.7341  0.6665  1.0000
  H   H100      1.0  0.1986  0.5381  0.9185  1.0000
  H   H101      1.0  0.0205  0.7321  0.8228  1.0000
  H   H102      1.0  0.0241  0.14099999999999996  0.8576999999999998  1.0000
  H   H103      1.0  0.785  0.8056  0.0665  1.0000
  H   H104      1.0  0.6497  0.5812  0.6102  1.0000
  H   H105      1.0  0.4144  0.8867  0.174  1.0000
  H   H106      1.0  0.2073  0.8056  0.8330999999999997  1.0000
  H   H107      1.0  0.1407  0.5402  0.07659999999999999  1.0000
  H   H108      1.0  0.8458  0.9977999999999999  0.42499999999999993  1.0000
  H   H109      1.0  0.9404  0.049300000000000004  0.6814  1.0000
  H   H110      1.0  0.7761  0.9358000000000001  0.4714999999999999  1.0000
  H   H111      1.0  0.9672  0.2659  0.3334999999999999  1.0000
  H   H112      1.0  0.1497  0.9188  0.8898  1.0000
  H   H113      1.0  0.5403  0.5857  0.5565  1.0000
  H   H114      1.0  0.1722  0.9641  0.8315  1.0000
  H   H115      1.0  0.4544  0.8602  0.8032999999999998  1.0000
  H   H116      1.0  0.5664  0.5085  0.05309999999999999  1.0000
  H   H117      1.0  0.1253  0.4142  0.4108  1.0000
  H   H118      1.0  0.44680000000000003  0.8035  0.5578999999999997  1.0000
  H   H119      1.0  0.6447  0.2233  0.0886  1.0000
  H   H120      1.0  0.1541  0.005199999999999995  0.06719999999999997  1.0000
  H   H121      1.0  0.052  0.5762  0.5741  1.0000
  H   H122      1.0  0.7864  0.1035  0.2099  1.0000
  H   H123      1.0  0.4006  0.9587000000000001  0.24299999999999997  1.0000
  H   H124      1.0  0.4771  0.3764  0.23479999999999998  1.0000
  H   H125      1.0  0.0423  0.5341  0.025699999999999994  1.0000
  H   H126      1.0  0.1939  0.2428  0.21449999999999994  1.0000
  H   H127      1.0  0.2466  0.8052  0.08999999999999997  1.0000
  H   H128      1.0  0.7189  0.3043  0.9790999999999999  1.0000
  H   H129      1.0  0.2864  0.3965  0.2901  1.0000
  H   H130      1.0  0.1447  0.2767  0.4114  1.0000
  H   H131      1.0  0.81  0.4068  0.3047  1.0000
  H   H132      1.0  0.4795000000000001  0.2321  0.3228  1.0000
  H   H133      1.0  0.5229  0.6236  0.7651999999999998  1.0000
  H   H134      1.0  0.3574  0.8817  0.6204  1.0000
  H   H135      1.0  0.3593  0.0402  0.5766  1.0000
  H   H136      1.0  0.8121  0.6166999999999998  0.7967999999999998  1.0000
  H   H137      1.0  0.0377  0.6262  0.49749999999999994  1.0000
  H   H138      1.0  0.4424  0.5899999999999999  0.286  1.0000
  H   H139      1.0  0.2275  0.64  0.3723999999999999  1.0000
  H   H140      1.0  0.8278  0.035899999999999994  0.16849999999999996  1.0000
  H   H141      1.0  0.9144  0.6133  0.3259999999999999  1.0000
  H   H142      1.0  0.7466  0.6948  0.41  1.0000
  H   H143      1.0  0.9336  0.008500000000000004  0.5531  1.0000
  H   H144      1.0  0.6398  0.9264  0.1669  1.0000
  H   H145      1.0  0.2319  0.4424  0.23279999999999998  1.0000
  H   H146      1.0  0.4306  0.9890000000000001  0.06029999999999999  1.0000
  H   H147      1.0  0.0114  0.4038  0.248  1.0000
  H   H148      1.0  0.6594  0.8785  0.4015  1.0000
  H   H149      1.0  0.1753  0.7983  0.9388  1.0000
  H   H150      1.0  0.3245  0.014299999999999997  0.24649999999999997  1.0000
  H   H151      1.0  0.9886000000000001  0.5962  0.752  1.0000
  H   H152      1.0  0.0856  0.38669999999999993  0.6739999999999998  1.0000
  H   H153      1.0  0.1267  0.24039999999999995  0.8661999999999997  1.0000
  H   H154      1.0  0.4099  0.23899999999999996  0.5764  1.0000
  H   H155      1.0  0.3602  0.07359999999999996  0.8330999999999997  1.0000
  H   H156      1.0  0.448  0.0762  0.0741  1.0000
  H   H157      1.0  0.2396  0.1807  0.35479999999999995  1.0000
  H   H158      1.0  0.2534  0.3052  0.59  1.0000
  H   H159      1.0  0.6986  0.9618999999999999  0.5815  1.0000
  H   H160      1.0  0.8609  0.9591  0.21819999999999995  1.0000
  H   H161      1.0  0.7073  0.6944  0.6669  1.0000
  H   H162      1.0  0.69  0.9067999999999999  0.8046999999999997  1.0000
  H   H163      1.0  0.5114  0.0962  0.252  1.0000
  H   H164      1.0  0.1162  0.3101  0.9292  1.0000
  H   H165      1.0  0.5459  0.33049999999999996  0.28449999999999986  1.0000
  H   H166      1.0  0.656  0.9896000000000001  0.044999999999999984  1.0000
  H   H167      1.0  0.81  0.753  0.8804  1.0000
  H   H168      1.0  0.4232  0.18609999999999996  0.9408999999999998  1.0000
  H   H169      1.0  0.18790000000000007  0.3833  0.20319999999999994  1.0000
  H   H170      1.0  0.0031  0.9268  0.4956  1.0000
  H   H171      1.0  0.9947999999999999  0.0044  0.0409  1.0000
  H   H172      1.0  0.0229  0.8763999999999998  0.7348  1.0000
  H   H173      1.0  0.2811  0.6957  0.0209  1.0000
  H   H174      1.0  0.5994000000000002  0.04129999999999996  0.7569999999999998  1.0000
  H   H175      1.0  0.4043  0.0913  0.7049  1.0000
  H   H176      1.0  0.948  0.4238  0.4259  1.0000
  H   H177      1.0  0.0664  0.9915  0.4469  1.0000
  H   H178      1.0  0.3061  0.7428  0.7145  1.0000
  H   H179      1.0  0.9043  0.40869999999999995  0.7950999999999998  1.0000
  H   H180      1.0  0.2452  0.35  0.9762  1.0000
  H   H181      1.0  0.88  0.05569999999999998  0.5840999999999998  1.0000
  H   H182      1.0  0.3321  0.16109999999999997  0.42089999999999994  1.0000
  H   H183      1.0  0.3838  0.8101  0.4292  1.0000
  H   H184      1.0  0.7452  0.15  0.5238  1.0000
  H   H185      1.0  0.9893000000000001  0.3214  0.46579999999999994  1.0000
  H   H186      1.0  0.5107  0.8214000000000001  0.9658  1.0000
  H   H187      1.0  0.4727  0.2974  0.5271  1.0000
  H   H188      1.0  0.2777  0.41729999999999995  0.8671999999999997  1.0000
  H   H189      1.0  0.1755  0.5143  0.7465  1.0000
  H   H190      1.0  0.7133  0.3832  0.17729999999999996  1.0000
  H   H191      1.0  0.8503  0.0812  0.1102  1.0000
  H   H192      1.0  0.4597  0.4143  0.4435  1.0000
  H   H193      1.0  0.8574  0.6183  0.8795999999999998  1.0000
  H   H194      1.0  0.3553  0.7767  0.9114  1.0000
  H   H195      1.0  0.5694000000000002  0.01099999999999997  0.9396999999999999  1.0000
  H   H196      1.0  0.3747  0.9141999999999999  0.9108  1.0000
  H   H197      1.0  0.2133  0.1168  0.32269999999999993  1.0000
  H   H198      1.0  0.8628  0.8947  0.8896  1.0000
  H   H199      1.0  0.4344  0.9111  0.1112  1.0000
  H   H200      1.0  0.5423  0.9658999999999999  0.47429999999999994  1.0000
  H   H201      1.0  0.215  0.19439999999999996  0.9334999999999999  1.0000
  H   H202      1.0  0.1679  0.6611  0.9208999999999999  1.0000
  H   H203      1.0  0.9468  0.6965  0.9421  1.0000
  H   H204      1.0  0.7223  0.5827  0.1328  1.0000
  H   H205      1.0  0.6162  0.1899  0.5708  1.0000
  H   H206      1.0  0.1372  0.10529999999999999  0.1104  1.0000
  H   H207      1.0  0.0532  0.30349999999999994  0.0579  1.0000
  H   H208      1.0  0.3458  0.5022  0.075  1.0000
  H   H209      1.0  0.8459  0.9948  0.9327999999999999  1.0000
  H   H210      1.0  0.7001  0.6293  0.34929999999999994  1.0000
  H   H211      1.0  0.8247  0.2017  0.06119999999999999  1.0000
  H   H212      1.0  0.2614  0.2986  0.03129999999999999  1.0000
  H   H213      1.0  0.5656  0.08889999999999998  0.8888  1.0000
  H   H214      1.0  0.5068  0.7331  0.5498999999999998  1.0000
  H   H215      1.0  0.3014  0.03809999999999999  0.4185  1.0000
  H   H216      1.0  0.6753  0.7017  0.5612  1.0000
  H   H217      1.0  0.2136  0.8965  0.7901  1.0000
  H   H218      1.0  0.4967  0.5993  0.4176  1.0000
  H   H219      1.0  0.5596  0.5493  0.18139999999999995  1.0000
  H   H220      1.0  0.552  0.9238  0.9258999999999998  1.0000
  H   H221      1.0  0.2867  0.6167999999999999  0.8226999999999999  1.0000
  H   H222      1.0  0.0694  0.489  0.5603  1.0000
  H   H223      1.0  0.4849  0.9107  0.5251  1.0000
  H   H224      1.0  0.6939  0.2572  0.2855  1.0000
  H   H225      1.0  0.6879  0.1167  0.2967999999999999  1.0000
  H   H226      1.0  0.0656  0.41109999999999997  0.6111999999999997  1.0000
  H   H227      1.0  0.5957  0.9087  0.2951  1.0000
  H   H228      1.0  0.4893  0.1786  0.03419999999999999  1.0000
  H   H229      1.0  0.9771  0.12359999999999999  0.2652  1.0000
  H   H230      1.0  0.3592  0.0977  0.7718  1.0000
  H   H231      1.0  0.2761  0.5642  0.0285  1.0000
  H   H232      1.0  0.38  0.4443  0.9159  1.0000
  H   H233      1.0  0.6372  0.3947  0.3896  1.0000
  H   H234      1.0  0.1408  0.5977  0.2718  1.0000
  H   H235      1.0  0.6195000000000002  0.5628  0.24589999999999995  1.0000
  H   H236      1.0  0.9006  0.5413  0.257  1.0000
  H   H237      1.0  0.7681  0.5576  0.7672  1.0000
  H   H238      1.0  0.2999  0.3707  0.6506999999999997  1.0000
  H   H239      1.0  0.0957  0.5912999999999998  0.20489999999999994  1.0000
  H   H240      1.0  0.3609  0.5409  0.28179999999999994  1.0000
  H   H241      1.0  0.9969000000000001  0.0732  0.5044  1.0000
  H   H242      1.0  0.3733  0.7404  0.3661999999999999  1.0000
  H   H243      1.0  0.8061  0.7572  0.7854999999999998  1.0000
  H   H244      1.0  0.6665  0.7188  0.9091  1.0000
  H   H245      1.0  0.715  0.3056  0.5665  1.0000
  H   H246      1.0  0.4336  0.49149999999999994  0.9469  1.0000
  H   H247      1.0  0.8406  0.3785  0.9014999999999997  1.0000
  H   H248      1.0  0.6391  0.45909999999999995  0.7182  1.0000
  H   H249      1.0  0.4814  0.682  0.9719999999999999  1.0000
  H   H250      1.0  0.0273  0.7974  0.027099999999999992  1.0000
  H   H251      1.0  0.3863  0.44839999999999997  0.6886999999999998  1.0000
  H   H252      1.0  0.7777  0.0827  0.6328  1.0000
  H   H253      1.0  0.7396  0.3193  0.1452  1.0000
  H   H254      1.0  0.7867000000000002  0.8832  0.6773  1.0000
  H   H255      1.0  0.6407  0.9598  0.4233999999999999  1.0000
  H   H256      1.0  0.5273  0.7026  0.4729  1.0000
  H   H257      1.0  0.0994  0.4587  0.743  1.0000
  H   H258      1.0  0.5792  0.35  0.09069999999999998  1.0000
  H   H259      1.0  0.9232  0.3139  0.5591  1.0000
  H   H260      1.0  0.0901  0.739  0.07639999999999997  1.0000
  H   H261      1.0  0.7004  0.34869999999999995  0.24209999999999998  1.0000
  H   H262      1.0  0.5031  0.5732  0.0044  1.0000
  H   H263      1.0  0.7239  0.4358  0.9714999999999999  1.0000
  H   H264      1.0  0.3121  0.8832999999999999  0.7032  1.0000
  H   H265      1.0  0.5856  0.1133  0.826  1.0000
  H   H266      1.0  0.6541  0.4948000000000001  0.4328  1.0000
  H   H267      1.0  0.9306  0.511  0.43969999999999987  1.0000
  H   H268      1.0  0.5186  0.318  0.027999999999999994  1.0000
  H   H269      1.0  0.4577  0.0341  0.5257  1.0000
  H   H270      1.0  0.5151  0.08929999999999999  0.47489999999999993  1.0000
  H   H271      1.0  0.5576000000000001  0.41  0.714  1.0000
  H   H272      1.0  0.6679  0.8389  0.5791  1.0000
  H   H273      1.0  0.8335  0.21879999999999997  0.4090999999999999  1.0000
  H   H274      1.0  0.9727  0.2026  0.9728999999999999  1.0000
  H   H275      1.0  0.6755  0.9857  0.7535  1.0000
  H   H276      1.0  0.9208  0.85  0.5906999999999998  1.0000
  H   H277      1.0  0.3805  0.4372  0.7540999999999998  1.0000
  H   H278      1.0  0.0107  0.6785999999999999  0.5342  1.0000
  H   H279      1.0  0.7811  0.8043  0.4791  1.0000
  H   H280      1.0  0.4404  0.45069999999999993  0.8185999999999999  1.0000
  H   H281      1.0  0.3406  0.1215  0.5985  1.0000
  H   H282      1.0  0.7604  0.8193  0.6451999999999998  1.0000
  H   H283      1.0  0.7136  0.6034999999999999  0.7099  1.0000
  H   H284      1.0  0.0033  0.09929999999999996  0.9175999999999997  1.0000
  H   H285      1.0  0.48860000000000003  0.9038  0.748  1.0000
  H   H286      1.0  0.5052  0.5044  0.5409  1.0000
  H   H287      1.0  0.7999  0.1293  0.8493  1.0000
  H   H288      1.0  0.8863  0.05160000000000001  0.8113  1.0000
  H   H289      1.0  0.5901  0.761  0.4235999999999999  1.0000
  H   H290      1.0  0.1542  0.0022000000000000014  0.575  1.0000
  H   H291      1.0  0.8982  0.20289999999999994  0.5907999999999998  1.0000
  H   H292      1.0  0.5532  0.19649999999999998  0.4421  1.0000
  H   H293      1.0  0.49689999999999995  0.4268  0.9956  1.0000
  H   H294      1.0  0.0596  0.9507  0.3185999999999999  1.0000
  H   H295      1.0  0.9424  0.91  0.214  1.0000
  H   H296      1.0  0.9966999999999999  0.9007  0.0824  1.0000
  H   H297      1.0  0.4932  0.2669  0.4500999999999999  1.0000
  H   H298      1.0  0.07680000000000001  0.6861  0.4409  1.0000
  H   H299      1.0  0.9099  0.261  0.9235999999999998  1.0000
  H   H300      1.0  0.8553000000000002  0.7232999999999999  0.5886  1.0000
  H   H301      1.0  0.6408  0.9023  0.2282  1.0000
  H   H302      1.0  0.9932  0.2331  0.0499  1.0000
  H   H303      1.0  0.344  0.010400000000000017  0.955  1.0000
  H   H304      1.0  0.5033  0.4007  0.5824  1.0000
  C   C1        1.0  0.7485  0.34959999999999997  0.5698699999999999  1.0000
  C   C2        1.0  0.0905  0.44889999999999997  0.6279  1.0000
  C   C3        1.0  0.9949000000000001  0.9213  0.7292799999999999  1.0000
  C   C4        1.0  0.1526  0.5715  0.6403  1.0000
  C   C5        1.0  0.7467  0.8423  0.6707  1.0000
  C   C6        1.0  0.0411  0.5882  0.025999999999999992  1.0000
  C   C7        1.0  0.4973  0.7528  0.85292  1.0000
  C   C8        1.0  0.1959  0.7597  0.95336  1.0000
  C   C9        1.0  0.5309  0.7567  0.47389999999999993  1.0000
  C   C10       1.0  0.5017  0.8313  0.9932  1.0000
  C   C11       1.0  0.5806  0.1222  0.14135  1.0000
  C   C12       1.0  0.7362  0.5479  0.9922  1.0000
  C   C13       1.0  0.0027  0.2528  0.35292  1.0000
  C   C14       1.0  0.3437  0.785  0.3743299999999999  1.0000
  C   C15       1.0  0.7629  0.6084  0.7811  1.0000
  C   C16       1.0  0.4317  0.2081  0.5558  1.0000
  C   C17       1.0  0.0017  0.6687  0.5068  1.0000
  C   C18       1.0  0.2638  0.4521  0.0078  1.0000
  C   C19       1.0  0.3913  0.7092  0.53151  1.0000
  C   C20       1.0  0.6036  0.0662  0.8344  1.0000
  C   C21       1.0  0.9947999999999999  0.3788  0.0044  1.0000
  C   C22       1.0  0.8103  0.1062  0.3076999999999999  1.0000
  C   C23       1.0  0.4155  0.05410000000000001  0.72212  1.0000
  C   C24       1.0  0.2861  0.7572  0.7390999999999998  1.0000
  C   C25       1.0  0.8641  0.0092  0.1516  1.0000
  C   C26       1.0  0.9953999999999998  0.187  0.49639999999999995  1.0000
  C   C27       1.0  0.2852  0.01669999999999999  0.4409299999999999  1.0000
  C   C28       1.0  0.9745  0.7201  0.8370599999999998  1.0000
  C   C29       1.0  0.9808  0.1217  0.5157  1.0000
  C   C30       1.0  0.4386  0.23469999999999996  0.9521  1.0000
  C   C31       1.0  0.5888  0.029500000000000002  0.18768  1.0000
  C   C32       1.0  0.8188  0.4506  0.5578  1.0000
  C   C33       1.0  0.6078  0.5009  0.31837  1.0000
  C   C34       1.0  0.4623  0.9512  0.7453299999999998  1.0000
  C   C35       1.0  0.4243000000000001  0.5569  0.7071799999999998  1.0000
  C   C36       1.0  0.5614  0.7653  0.047899999999999984  1.0000
  C   C37       1.0  0.1733  0.8285  0.5801  1.0000
  C   C38       1.0  0.6612  0.3434  0.70237  1.0000
  C   C39       1.0  0.3188  0.04939999999999998  0.9422  1.0000
  C   C40       1.0  0.5678  0.10360000000000001  0.17833  1.0000
  C   C41       1.0  0.8906  0.4416  0.74097  1.0000
  C   C42       1.0  0.8347  0.44  0.44953  1.0000
  C   C43       1.0  0.3774  0.4637  0.3835  1.0000
  C   C44       1.0  0.9066  0.4646  0.42657  1.0000
  C   C45       1.0  0.2467  0.6577  0.8292999999999998  1.0000
  C   C46       1.0  0.7387  0.11829999999999997  0.6254799999999998  1.0000
  C   C47       1.0  0.4983  0.1687  0.006799999999999999  1.0000
  C   C48       1.0  0.4016  0.5551  0.3375999999999999  1.0000
  C   C49       1.0  0.49800000000000005  0.45919999999999994  0.8983  1.0000
  C   C50       1.0  0.8267  0.1715  0.4199  1.0000
  C   C51       1.0  0.1311  0.0179  0.14555  1.0000
  C   C52       1.0  0.6226  0.5363  0.6165  1.0000
  C   C53       1.0  0.2533  0.1577  0.3293  1.0000
  C   C54       1.0  0.5984  0.4449  0.6624  1.0000
  C   C55       1.0  0.1157  0.5883  0.0874  1.0000
  C   C56       1.0  0.6959  0.7403  0.54664  1.0000
  C   C57       1.0  0.2924  0.9008  0.24016  1.0000
  C   C58       1.0  0.9441  0.43029999999999996  0.8808999999999998  1.0000
  C   C59       1.0  0.6087  0.2908  0.46849  1.0000
  C   C60       1.0  0.44680000000000003  0.46939999999999993  0.44765  1.0000
  C   C61       1.0  0.8889  0.9182  0.2025  1.0000
  C   C62       1.0  0.0984  0.055099999999999975  0.8375999999999998  1.0000
  C   C63       1.0  0.7392  0.46779999999999994  0.99309  1.0000
  C   C64       1.0  0.875  0.4759  0.66043  1.0000
  C   C65       1.0  0.8288  0.03689999999999999  0.91962  1.0000
  C   C66       1.0  0.4357  0.6899  0.8942699999999998  1.0000
  C   C67       1.0  0.1421  0.486  0.691  1.0000
  C   C68       1.0  0.1612  0.15659999999999996  0.79763  1.0000
  C   C69       1.0  0.8838  0.5713  0.61397  1.0000
  C   C70       1.0  0.0757  0.056899999999999985  0.20717999999999995  1.0000
  C   C71       1.0  0.5501  0.5157  0.2006  1.0000
  C   C72       1.0  0.6224  0.40709999999999996  0.3650899999999999  1.0000
  C   C73       1.0  0.5532  0.5306  0.55235  1.0000
  C   C74       1.0  0.2076  0.40079999999999993  0.74016  1.0000
  C   C75       1.0  0.2371  0.3916  0.21889999999999996  1.0000
  C   C76       1.0  0.7193  0.0623  0.55761  1.0000
  C   C77       1.0  0.7204  0.8797  0.10383  1.0000
  C   C78       1.0  0.7552  0.7805  0.6988  1.0000
  C   C79       1.0  0.1036  0.43379999999999996  0.6655999999999997  1.0000
  C   C80       1.0  0.6712  0.5369  0.4196199999999999  1.0000
  C   C81       1.0  0.0643  0.18989999999999999  0.3942699999999999  1.0000
  C   C82       1.0  0.9262  0.3712  0.9444  1.0000
  C   C83       1.0  0.2139  0.2572  0.2391  1.0000
  C   C84       1.0  0.9623  0.5488  0.75467  1.0000
  C   C85       1.0  0.4631  0.7624  0.5387  1.0000
  C   C86       1.0  0.3619  0.0018999999999999868  0.8761299999999997  1.0000
  C   C87       1.0  0.0845  0.5541  0.22211999999999996  1.0000
  C   C88       1.0  0.0309  0.7433  0.0261  1.0000
  C   C89       1.0  0.9643  0.9301  0.10009999999999998  1.0000
  C   C90       1.0  0.6653  0.9441999999999999  0.8217  1.0000
  C   C91       1.0  0.8503  0.6764  0.09089  1.0000
  C   C92       1.0  0.2782  0.3541  0.5929699999999998  1.0000
  C   C93       1.0  0.9159  0.0236  0.7361  1.0000
  C   C94       1.0  0.6897000000000002  0.6062  0.8076999999999999  1.0000
  C   C95       1.0  0.4327  0.6314  0.69789  1.0000
  C   C96       1.0  0.7608  0.9678  0.49309  1.0000
  C   C97       1.0  0.9336  0.05349999999999996  0.5716999999999998  1.0000
  C   C98       1.0  0.9016  0.9449  0.1624  1.0000
  C   C99       1.0  0.1424  0.2676  0.13123999999999994  1.0000
  C   C100      1.0  0.6359  0.5092  0.6516  1.0000
  C   C101      1.0  0.5905  0.05109999999999998  0.8721  1.0000
  C   C102      1.0  0.0678  0.3964  0.32167  1.0000
  C   C103      1.0  0.5492  0.4048  0.6358999999999999  1.0000
  C   C104      1.0  0.0501  0.9843000000000001  0.2993999999999999  1.0000
  C   C105      1.0  0.7613  0.6183  0.12548  1.0000
  C   C106      1.0  0.9297  0.9991  0.09051  1.0000
  C   C107      1.0  0.9982999999999999  0.3313  0.4932  1.0000
  C   C108      1.0  0.9088  0.8504  0.83849  1.0000
  C   C109      1.0  0.8466  0.5319  0.2676  1.0000
  C   C110      1.0  0.913  0.645  0.4995899999999999  1.0000
  C   C111      1.0  0.6733  0.6715  0.9199  1.0000
  C   C112      1.0  0.7869  0.1626  0.4528199999999999  1.0000
  C   C113      1.0  0.3846  0.8416  0.63158  1.0000
  C   C114      1.0  0.9992  0.6993  0.9952499999999999  1.0000
  C   C115      1.0  0.3474000000000001  0.0715  0.1403  1.0000
  C   C116      1.0  0.8922  0.0009000000000000059  0.81837  1.0000
  C   C117      1.0  0.3466  0.9681  0.2324  1.0000
  C   C118      1.0  0.3503  0.8236  0.40911  1.0000
  C   C119      1.0  0.019200000000000002  0.8783  0.4842999999999999  1.0000
  C   C120      1.0  0.3843  0.0883  0.5874  1.0000
  C   C121      1.0  0.8913  0.7908  0.9684899999999999  1.0000
  C   C122      1.0  0.4095  0.9489000000000001  0.1279  1.0000
  C   C123      1.0  0.5673  0.3685999999999999  0.30211  1.0000
  C   C124      1.0  0.7807  0.5623  0.05761  1.0000
  C   C125      1.0  0.1897  0.8938  0.6923  1.0000
  C   C126      1.0  0.3838  0.9287  0.88603  1.0000
  C   C127      1.0  0.0769  0.8017000000000001  0.4333  1.0000
  C   C128      1.0  0.7535  0.7956  0.50165  1.0000
  C   C129      1.0  0.9322000000000003  0.6035999999999999  0.6783299999999998  1.0000
  C   C130      1.0  0.7139  0.2428  0.2609  1.0000
  C   C131      1.0  0.2383  0.3316  0.2474  1.0000
  C   C132      1.0  0.2325  0.8464  0.7827999999999998  1.0000
  C   C133      1.0  0.3347  0.055799999999999995  0.17829999999999993  1.0000
  C   C134      1.0  0.7852  0.48329999999999995  0.05907  1.0000
  C   C135      1.0  0.3964  0.9338  0.1656  1.0000
  C   C136      1.0  0.6424  0.2324  0.36875999999999987  1.0000
  C   C137      1.0  0.2218  0.8541  0.09297  1.0000
  C   C138      1.0  0.4336  0.4465  0.9283  1.0000
  C   C139      1.0  0.5008000000000002  0.1993  0.4952499999999999  1.0000
  C   C140      1.0  0.7148  0.9832999999999998  0.55907  1.0000
  C   C141      1.0  0.0052  0.6212  0.9956  1.0000
  C   C142      1.0  0.0806  0.3778  0.35865  1.0000
  C   C143      1.0  0.0377  0.4512  0.24533  1.0000
  C   C144      1.0  0.6526  0.9285  0.8597  1.0000
  C   C145      1.0  0.8846  0.6584  0.8684199999999997  1.0000
  C   C146      1.0  0.8866  0.4816  0.38544999999999996  1.0000
  C   C147      1.0  0.8041  0.2403  0.04663999999999999  1.0000
  C   C148      1.0  0.3103  0.3938  0.19229999999999994  1.0000
  C   C149      1.0  0.1534  0.46809999999999996  0.7323999999999998  1.0000
  C   C150      1.0  0.0008  0.3007  0.00475  1.0000
  C   C151      1.0  0.2515  0.6504  0.4301299999999999  1.0000
  C   C152      1.0  0.4441  0.0697  0.6191  1.0000
  C   C153      1.0  0.5559  0.9303  0.3809  1.0000
  C   C154      1.0  0.5738  0.8712  0.4444  1.0000
  C   C155      1.0  0.5239  0.759  0.012999999999999996  1.0000
  C   C156      1.0  0.804  0.11000000000000003  0.87332  1.0000
  C   C157      1.0  0.838  0.3791  0.16919999999999996  1.0000
  C   C158      1.0  0.9231  0.1983  0.5667  1.0000
  C   C159      1.0  0.3906  0.05839999999999997  0.7590299999999998  1.0000
  C   C160      1.0  0.3776  0.5929  0.63491  1.0000
  C   C161      1.0  0.8579  0.514  0.3089999999999999  1.0000
  C   C162      1.0  0.1224  0.0929  0.13491  1.0000
  C   C163      1.0  0.729  0.7085  0.6912  1.0000
  C   C164      1.0  0.4589  0.0882  0.526  1.0000
  C   C165      1.0  0.6157  0.9116999999999998  0.4125999999999999  1.0000
  C   C166      1.0  0.8474  0.42849999999999994  0.3597  1.0000
  C   C167      1.0  0.9438  0.1259  0.5504  1.0000
  C   C168      1.0  0.125  0.5241  0.33957  1.0000
  C   C169      1.0  0.0912  0.1496  0.16151  1.0000
  C   C170      1.0  0.7325  0.6536  0.7172  1.0000
  C   C171      1.0  0.1381  0.5019  0.37613  1.0000
  C   C172      1.0  0.0046  0.813  0.5035999999999998  1.0000
  C   C173      1.0  0.0255  0.2799  0.16293999999999995  1.0000
  C   C174      1.0  0.696  0.61  0.37331999999999993  1.0000
  C   C175      1.0  0.9357  0.8101  0.60573  1.0000
  C   C176      1.0  0.4948000000000001  0.1212  0.4956  1.0000
  C   C177      1.0  0.4991999999999999  0.8007  0.50475  1.0000
  C   C178      1.0  0.3347  0.06  0.05047  1.0000
  C   C179      1.0  0.0934  0.5354  0.5734299999999998  1.0000
  C   C180      1.0  0.587  0.14499999999999996  0.9995899999999999  1.0000
  C   C181      1.0  0.4954  0.313  0.0036  1.0000
  C   C182      1.0  0.6162  0.0713  0.11397  1.0000
  C   C183      1.0  0.1162  0.4287  0.38603  1.0000
  C   C184      1.0  0.7675  0.1536  0.21719999999999995  1.0000
  C   C185      1.0  0.7617  0.6684  0.7526  1.0000
  C   C186      1.0  0.4438  0.3741  0.9495999999999999  1.0000
  C   C187      1.0  0.6111  0.4182  0.7024999999999998  1.0000
  C   C188      1.0  0.8336000000000002  0.0507  0.42846  1.0000
  C   C189      1.0  0.7796  0.3797  0.60383  1.0000
  C   C190      1.0  0.0664  0.9465  0.4282999999999999  1.0000
  C   C191      1.0  0.5643000000000001  0.3101  0.10572999999999998  1.0000
  C   C192      1.0  0.4508  0.5952  0.36409999999999987  1.0000
  C   C193      1.0  0.662  0.8791  0.6692  1.0000
  C   C194      1.0  0.4066  0.0354  0.07343  1.0000
  C   C195      1.0  0.4262  0.1288  0.5556  1.0000
  C   C196      1.0  0.5411  0.9118  0.4739999999999999  1.0000
  C   C197      1.0  0.375  0.024099999999999965  0.8395699999999998  1.0000
  C   C198      1.0  0.5769  0.6983  0.06669999999999998  1.0000
  C   C199      1.0  0.5192  0.6217  0.0157  1.0000
  C   C200      1.0  0.4088  0.6496  0.6615099999999998  1.0000
  C   C201      1.0  0.7448  0.2805  0.19879999999999995  1.0000
  C   C202      1.0  0.1154  0.34159999999999996  0.13157999999999997  1.0000
  C   C203      1.0  0.9691  0.2567  0.9739  1.0000
  C   C204      1.0  0.2629  0.8916  0.7188999999999998  1.0000
  C   C205      1.0  0.4745  0.7799  0.66294  1.0000
  C   C206      1.0  0.6812  0.9506  0.05779999999999999  1.0000
  C   C207      1.0  0.18120000000000006  0.5494  0.4422  1.0000
  C   C208      1.0  0.9508  0.9048  0.1359  1.0000
  C   C209      1.0  0.3288  0.46309999999999996  0.5803799999999998  1.0000
  C   C210      1.0  0.2613  0.8817  0.3745199999999999  1.0000
  C   C211      1.0  0.6653  0.9400000000000001  0.9495299999999999  1.0000
  C   C212      1.0  0.7568  0.596  0.024359999999999993  1.0000
  C   C213      1.0  0.5357  0.4301  0.6001  1.0000
  C   C214      1.0  0.6381  0.9981000000000001  0.12386999999999998  1.0000
  C   C215      1.0  0.998  0.04079999999999996  0.6016999999999998  1.0000
  C   C216      1.0  0.7861  0.7428  0.7609  1.0000
  C   C217      1.0  0.304  0.38999999999999996  0.6266799999999998  1.0000
  C   C218      1.0  0.24850000000000003  0.1504  0.93013  1.0000
  C   C219      1.0  0.2387  0.38169999999999993  0.87452  1.0000
  C   C220      1.0  0.2608  0.5322  0.006909999999999999  1.0000
  C   C221      1.0  0.8776  0.9071  0.8650899999999998  1.0000
  C   C222      1.0  0.4761  0.241  0.9869999999999999  1.0000
  C   C223      1.0  0.8437  0.7149999999999999  0.12566999999999995  1.0000
  C   C224      1.0  0.2675  0.3464  0.2828  1.0000
  C   C225      1.0  0.9589  0.4118  0.974  1.0000
  C   C226      1.0  0.9499  0.0157  0.7006  1.0000
  C   C227      1.0  0.2148  0.5167  0.9409299999999999  1.0000
  C   C228      1.0  0.9327  0.8686  0.80211  1.0000
  C   C229      1.0  0.4194  0.8778  0.85865  1.0000
  C   C230      1.0  0.1134  0.5184  0.61455  1.0000
  C   C231      1.0  0.9112  0.5295  0.68768  1.0000
  C   C232      1.0  0.7131  0.6626  0.9528199999999999  1.0000
  C   C233      1.0  0.1359  0.9908  0.8483999999999998  1.0000
  C   C234      1.0  0.5369  0.2376  0.4613  1.0000
  C   C235      1.0  0.2204  0.6203  0.39617  1.0000
  C   C236      1.0  0.0051  0.0787  0.27072  1.0000
  C   C237      1.0  0.8843  0.4117  0.9125999999999997  1.0000
  C   C238      1.0  0.3388  0.6566  0.29763  1.0000
  C   C239      1.0  0.2173  0.202  0.2652  1.0000
  C   C240      1.0  0.6497  0.1764  0.59089  1.0000
  C   C241      1.0  0.2351  0.5648  0.9739399999999999  1.0000
  C   C242      1.0  0.4808  0.3783  0.9843  1.0000
  C   C243      1.0  0.0738  0.6288  0.0556  1.0000
  C   C244      1.0  0.2617  0.8316  0.7473999999999997  1.0000
  C   C245      1.0  0.087  0.355  0.50041  1.0000
  C   C246      1.0  0.6421  0.013999999999999964  0.8089999999999998  1.0000
  C   C247      1.0  0.3689  0.5179  0.64555  1.0000
  C   C248      1.0  0.9095  0.5511  0.3721  1.0000
  C   C249      1.0  0.6913  0.8156  0.55674  1.0000
  C   C250      1.0  0.1712  0.9631  0.08038  1.0000
  C   C251      1.0  0.3087  0.1844  0.44326  1.0000
  C   C252      1.0  0.8347  0.4442  0.3217  1.0000
  C   C253      1.0  0.9317  0.2919  0.9442  1.0000
  C   C254      1.0  0.4949  0.5787  0.77072  1.0000
  C   C255      1.0  0.7076  0.09919999999999995  0.7598399999999997  1.0000
  C   C256      1.0  0.2796  0.12029999999999999  0.89617  1.0000
  C   C257      1.0  0.196  0.89  0.12668  1.0000
  C   C258      1.0  0.0841  0.9763999999999999  0.2639  1.0000
  C   C259      1.0  0.3579  0.986  0.19099999999999995  1.0000
  C   C260      1.0  0.4499  0.4843  0.7993999999999998  1.0000
  C   C261      1.0  0.2465  0.2044  0.49835  1.0000
  C   C262      1.0  0.8619  0.49809999999999993  0.62387  1.0000
  C   C263      1.0  0.271  0.2915  0.3088  1.0000
  C   C264      1.0  0.1653  0.56  0.55047  1.0000
  C   C265      1.0  0.7465000000000002  0.2956  0.00165  1.0000
  C   C266      1.0  0.1913  0.6844  0.9432599999999999  1.0000
  C   C267      1.0  0.3336  0.4493  0.07154  1.0000
  C   C268      1.0  0.3889  0.5818  0.29749999999999993  1.0000
  C   C269      1.0  0.4112  0.9705  0.8123199999999998  1.0000
  C   C270      1.0  0.2193  0.4377  0.94239  1.0000
  C   C271      1.0  0.8689  0.9821  0.85445  1.0000
  C   C272      1.0  0.229  0.7915  0.8087999999999997  1.0000
  C   C273      1.0  0.6534  0.03190000000000002  0.7676  1.0000
  C   C274      1.0  0.7827  0.798  0.7348  1.0000
  C   C275      1.0  0.1653  0.5558  0.6783  1.0000
  C   C276      1.0  0.7371  0.1084  0.2810999999999999  1.0000
  C   C277      1.0  0.8774  0.03629999999999999  0.11649999999999999  1.0000
  C   C278      1.0  0.0614  0.7347  0.4520999999999999  1.0000
  C   C279      1.0  0.8964  0.5662  0.3344  1.0000
  C   C280      1.0  0.2535  0.7044  0.99835  1.0000
  C   C281      1.0  0.8752  0.0202  0.02473  1.0000
  C   C282      1.0  0.2448  0.21949999999999997  0.3012  1.0000
  C   C283      1.0  0.8991  0.7405  0.60434  1.0000
  C   C284      1.0  0.9761  0.259  0.5129999999999998  1.0000
  C   C285      1.0  0.12479999999999998  0.9797999999999999  0.97527  1.0000
  C   C286      1.0  0.5046  0.687  0.9963999999999998  1.0000
  C   C287      1.0  0.2432  0.40399999999999997  0.9756399999999997  1.0000
  C   C288      1.0  0.5052  0.8788  0.5044  1.0000
  C   C289      1.0  0.3752  0.4798  0.47526999999999997  1.0000
  C   C290      1.0  0.3922  0.4991  0.68163  1.0000
  C   C291      1.0  0.5757  0.4431  0.2928199999999999  1.0000
  C   C292      1.0  0.0239  0.7409999999999999  0.487  1.0000
  C   C293      1.0  0.6134  0.9816  0.88545  1.0000
  C   C294      1.0  0.2827  0.702  0.7651999999999998  1.0000
  C   C295      1.0  0.5683  0.7919  0.4442  1.0000
  C   C296      1.0  0.6563  0.21499999999999997  0.6256699999999997  1.0000
  C   C297      1.0  0.0369  0.2624  0.038699999999999984  1.0000
  C   C298      1.0  0.3041  0.2597  0.45335999999999993  1.0000
  C   C299      1.0  0.4159  0.47639999999999993  0.7638999999999998  1.0000
  C   C300      1.0  0.0559  0.5697  0.1191  1.0000
  C   C301      1.0  0.6009  0.24050000000000002  0.10434  1.0000
  C   C302      1.0  0.0532  0.9694  0.9476499999999999  1.0000
  C   C303      1.0  0.7173  0.298  0.23479999999999998  1.0000
  C   C304      1.0  0.9468  0.030599999999999995  0.05234999999999999  1.0000
  C   C305      1.0  0.3267  0.3285  0.0801  1.0000
  C   C306      1.0  0.8087  0.3156  0.05674  1.0000
  C   C307      1.0  0.4231  0.3017  0.9332999999999999  1.0000
  C   C308      1.0  0.5664  0.5535  0.0717  1.0000
  C   C309      1.0  0.8388  0.8434  0.20236999999999994  1.0000
  C   C310      1.0  0.3576  0.7676  0.63124  1.0000
  C   C311      1.0  0.1009  0.2595  0.39566  1.0000
  C   C312      1.0  0.6154  0.1584  0.3684199999999999  1.0000
  C   C313      1.0  0.7782  0.1459  0.90703  1.0000
  C   C314      1.0  0.0492  0.0952  0.8641  1.0000
  C   C315      1.0  0.5912  0.3504  0.33849  1.0000
  C   C316      1.0  0.1497  0.3235999999999999  0.9091099999999998  1.0000
  C   C317      1.0  0.9631  0.7376  0.9612999999999999  1.0000
  C   C318      1.0  0.2552  0.7195  0.8012  1.0000
  C   C319      1.0  0.7924  0.5992  0.25984  1.0000
  C   C320      1.0  0.5841  0.5236  0.2361  1.0000
  C   C321      1.0  0.1087  0.2092  0.03151  1.0000
  C   C322      1.0  0.4322  0.8964  0.82167  1.0000
  C   C323      1.0  0.5377  0.04879999999999999  0.2546699999999999  1.0000
  C   C324      1.0  0.2131  0.8374  0.54718  1.0000
  C   C325      1.0  0.3991  0.7595  0.8956599999999998  1.0000
  C   C326      1.0  0.3866  0.018399999999999993  0.11454999999999997  1.0000
  C   C327      1.0  0.0888  0.4705  0.31232  1.0000
  C   C328      1.0  0.9155  0.44589999999999996  0.7778799999999998  1.0000
  C   C329      1.0  0.6311  0.4821  0.35445  1.0000
  C   C330      1.0  0.4691  0.2433  0.5261  1.0000
  C   C331      1.0  0.6094  0.9416  0.24097  1.0000
  C   C332      1.0  0.2869  0.3374  0.047179999999999986  1.0000
  C   C333      1.0  0.2392  0.0322  0.50691  1.0000
  C   C334      1.0  0.002  0.9592000000000002  0.3982999999999999  1.0000
  C   C335      1.0  0.11110000000000003  0.0818  0.7975  1.0000
  C   C336      1.0  0.7649  0.4352  0.026059999999999993  1.0000
  C   C337      1.0  0.2362  0.9520999999999998  0.5077999999999999  1.0000
  C   C338      1.0  0.0673  0.1314  0.19789  1.0000
  C   C339      1.0  0.625  0.9759000000000001  0.16043  1.0000
  C   C340      1.0  0.0562  0.8740999999999999  0.4496  1.0000
  C   C341      1.0  0.5934  0.9646  0.92657  1.0000
  C   C342      1.0  0.1078  0.9991  0.18162999999999996  1.0000
  C   C343      1.0  0.0683  0.7080999999999998  0.0558  1.0000
  C   C344      1.0  0.413  0.855  0.00041  1.0000
  C   C345      1.0  0.5051  0.42129999999999995  0.22927999999999996  1.0000
  C   C346      1.0  0.7432  0.096  0.52436  1.0000
  C   C347      1.0  0.5845  0.9459  0.27788  1.0000
  C   C348      1.0  0.9194  0.6222  0.6413499999999999  1.0000
  C   C349      1.0  0.9243  0.9431  0.79282  1.0000
  C   C350      1.0  0.7218  0.6459  0.4070299999999999  1.0000
  C   C351      1.0  0.7383  0.1684  0.2526  1.0000
  C   C352      1.0  0.2568  0.904  0.47564  1.0000
  C   C353      1.0  0.9973  0.7471999999999999  0.6470799999999998  1.0000
  C   C354      1.0  0.771  0.20849999999999996  0.1912  1.0000
  C   C355      1.0  0.5255  0.2201  0.33706  1.0000
  C   C356      1.0  0.9386  0.2653  0.5479  1.0000
  C   C357      1.0  0.0357  0.06989999999999998  0.8998999999999998  1.0000
  C   C358      1.0  0.7638  0.047899999999999984  0.49219999999999997  1.0000
  C   C359      1.0  0.162  0.6209  0.8307999999999998  1.0000
  C   C360      1.0  0.1226  0.9637  0.8834999999999997  1.0000
  C   C361      1.0  0.6248  0.5202  0.5247299999999999  1.0000
  C   C362      1.0  0.1664  0.9492999999999999  0.57154  1.0000
  C   C363      1.0  0.7515  0.8496  0.06987  1.0000
  C   C364      1.0  0.4643  0.5699  0.3999  1.0000
  C   C365      1.0  0.1563  0.285  0.87433  1.0000
  C   C366      1.0  0.3641  0.4908  0.3484  1.0000
  C   C367      1.0  0.2649  0.0648  0.47394  1.0000
  C   C368      1.0  0.5703  0.4991  0.5905099999999998  1.0000
  C   C369      1.0  0.338  0.1209  0.33079999999999987  1.0000
  C   C370      1.0  0.0703  0.0009000000000000059  0.90949  1.0000
  C   C371      1.0  0.5027  0.24719999999999998  0.14708  1.0000
  C   C372      1.0  0.502  0.5408  0.1017  1.0000
  C   C373      1.0  0.7533  0.3423  0.1707  1.0000
  C   C374      1.0  0.8576  0.7324  0.8687599999999999  1.0000
  C   C375      1.0  0.4297  0.5009  0.4094899999999999  1.0000
  C   C376      1.0  0.1094  0.5584  0.25903  1.0000
  C   C377      1.0  0.7351  0.9351999999999999  0.52606  1.0000
  C   C378      1.0  0.5562  0.6259  0.05039999999999999  1.0000
  C   C379      1.0  0.2807  0.9377  0.44239  1.0000
  C   C380      1.0  0.6664  0.5507  0.9284599999999998  1.0000
  N   N1        1.0  0.7259  0.8942  0.041129999999999986  1.0000
  N   N2        1.0  0.213  0.3205  0.8524099999999999  1.0000
  N   N3        1.0  0.002  0.18479999999999996  0.3677899999999999  1.0000
  N   N4        1.0  0.3234  0.05549999999999998  0.9034199999999998  1.0000
  N   N5        1.0  0.49979999999999997  0.5482  0.80346  1.0000
  N   N6        1.0  0.085  0.22879999999999998  0.15168999999999994  1.0000
  N   N7        1.0  0.2993  0.8858  0.40958999999999995  1.0000
  N   N8        1.0  0.9592  0.6506999999999998  0.8488799999999997  1.0000
  N   N9        1.0  0.5785  0.007800000000000007  0.22607  1.0000
  N   N10       1.0  0.9396  0.699  0.63109  1.0000
  N   N11       1.0  0.49800000000000005  0.6847999999999999  0.8677899999999997  1.0000
  N   N12       1.0  0.144  0.898  0.5955299999999999  1.0000
  N   N13       1.0  0.856  0.10199999999999997  0.4044699999999999  1.0000
  N   N14       1.0  0.7059  0.5994  0.43608  1.0000
  N   N15       1.0  0.0785  0.49219999999999997  0.27393  1.0000
  N   N16       1.0  0.1766  0.5555  0.40342  1.0000
  N   N17       1.0  0.915  0.7712  0.8483099999999999  1.0000
  N   N18       1.0  0.709  0.5838  0.9586  1.0000
  N   N19       1.0  0.7724  0.3534  0.027839999999999993  1.0000
  N   N20       1.0  0.2741  0.1058  0.95887  1.0000
  N   N21       1.0  0.287  0.8204999999999999  0.3524099999999999  1.0000
  N   N22       1.0  0.4447  0.538  0.74551  1.0000
  N   N23       1.0  0.998  0.8152  0.63221  1.0000
  N   N24       1.0  0.1629  0.9599  0.11891999999999998  1.0000
  N   N25       1.0  0.791  0.08379999999999999  0.4586  1.0000
  N   N26       1.0  0.4396  0.801  0.86891  1.0000
  N   N27       1.0  0.8371  0.0401  0.88108  1.0000
  N   N28       1.0  0.6766  0.9444999999999999  0.09658  1.0000
  N   N29       1.0  0.0397  0.4863  0.21336  1.0000
  N   N30       1.0  0.7741  0.3942  0.54113  1.0000
  N   N31       1.0  0.2941  0.4006  0.56392  1.0000
  N   N32       1.0  0.7941  0.09939999999999997  0.93608  1.0000
  N   N33       1.0  0.2059  0.9006  0.06391999999999998  1.0000
  N   N34       1.0  0.713  0.1795  0.64759  1.0000
  N   N35       1.0  0.2276  0.6466  0.9721599999999999  1.0000
  N   N36       1.0  0.0604  0.301  0.36891  1.0000
  N   N37       1.0  0.2348  0.7742  0.9878999999999999  1.0000
  N   N38       1.0  0.4215  0.9921999999999999  0.7739299999999998  1.0000
  N   N39       1.0  0.4592  0.8493  0.65112  1.0000
  N   N40       1.0  0.2652  0.2742  0.4879  1.0000
  N   N41       1.0  0.6629  0.5401  0.38107999999999986  1.0000
  N   N42       1.0  0.3371  0.4598999999999999  0.6189199999999998  1.0000
  N   N43       1.0  0.5408  0.1507  0.34888  1.0000
  N   N44       1.0  0.0002  0.04819999999999999  0.30346  1.0000
  N   N45       1.0  0.7276  0.8534  0.52784  1.0000
  N   N46       1.0  0.7652  0.2258  0.0121  1.0000
  N   N47       1.0  0.9447  0.9620000000000001  0.7544899999999998  1.0000
  N   N48       1.0  0.2724  0.14659999999999998  0.47215999999999997  1.0000
  N   N49       1.0  0.5002  0.4518  0.19654  1.0000
  N   N50       1.0  0.5553  0.462  0.25449  1.0000
  N   N51       1.0  0.7348  0.7258  0.5121  1.0000
  N   N52       1.0  0.9998000000000001  0.9518  0.69654  1.0000
  N   N53       1.0  0.502  0.3152  0.13221  1.0000
  N   N54       1.0  0.415  0.7288  0.65169  1.0000
  N   N55       1.0  0.209  0.9162  0.5414  1.0000
  N   N56       1.0  0.8234000000000001  0.4445  0.59658  1.0000
  N   N57       1.0  0.9215  0.5078  0.72607  1.0000
  N   N58       1.0  0.7993  0.6142  0.09041  1.0000
  N   N59       1.0  0.356  0.398  0.09552999999999998  1.0000
  N   N60       1.0  0.5397  0.0137  0.28664  1.0000
  N   N61       1.0  0.4603  0.9863  0.7133599999999999  1.0000
  N   N62       1.0  0.2007  0.3858  0.90959  1.0000
  N   N63       1.0  0.7007  0.11419999999999995  0.5904099999999998  1.0000
  N   N64       1.0  0.585  0.2712  0.3483099999999999  1.0000
  N   N65       1.0  0.0553  0.03799999999999999  0.24550999999999998  1.0000
  N   N66       1.0  0.2259  0.6058  0.45887  1.0000
  N   N67       1.0  0.787  0.6795  0.14758999999999994  1.0000
  N   N68       1.0  0.9603  0.5137  0.78664  1.0000
  N   N69       1.0  0.644  0.602  0.90447  1.0000
  N   N70       1.0  0.291  0.4162  0.0414  1.0000
  N   N71       1.0  0.5604  0.199  0.13109  1.0000
  N   N72       1.0  0.0408  0.3493  0.15112  1.0000
  O   O1        1.0  0.4608  0.0014999999999999582  0.6227299999999998  1.0000
  O   O2        1.0  0.3005  0.0137  0.02632  1.0000
  O   O3        1.0  0.6768  0.5448  0.82411  1.0000
  O   O4        1.0  0.6792  0.5719999999999998  0.5254499999999999  1.0000
  O   O5        1.0  0.9930000000000001  0.9778  0.61618  1.0000
  O   O6        1.0  0.3208  0.428  0.47455  1.0000
  O   O7        1.0  0.507  0.4778  0.11618  1.0000
  O   O8        1.0  0.8605  0.4078  0.13859  1.0000
  O   O9        1.0  0.1768  0.9552000000000002  0.67589  1.0000
  O   O10       1.0  0.8442  0.7844  0.99717  1.0000
  O   O11       1.0  0.493  0.5222  0.88382  1.0000
  O   O12       1.0  0.6904  0.8703  0.94518  1.0000
  O   O13       1.0  0.8208  0.072  0.025449999999999993  1.0000
  O   O14       1.0  0.2536  0.3711  0.7146599999999999  1.0000
  O   O15       1.0  0.7938  0.6188  0.22579  1.0000
  O   O16       1.0  0.3784  0.8425  0.03189999999999999  1.0000
  O   O17       1.0  0.3605  0.0922  0.36141  1.0000
  O   O18       1.0  0.3232  0.4552  0.17588999999999994  1.0000
  O   O19       1.0  0.4464  0.5889999999999999  0.10876  1.0000
  O   O20       1.0  0.8005  0.4863  0.47368  1.0000
  O   O21       1.0  0.6995  0.9863  0.9736799999999999  1.0000
  O   O22       1.0  0.5536  0.411  0.8912399999999999  1.0000
  O   O23       1.0  0.1251  0.040899999999999985  0.9971  1.0000
  O   O24       1.0  0.8841  0.3811  0.19788  1.0000
  O   O25       1.0  0.1395  0.5922  0.86141  1.0000
  O   O26       1.0  0.8096  0.3703  0.4451799999999999  1.0000
  O   O27       1.0  0.6159  0.8811  0.69788  1.0000
  O   O28       1.0  0.6271  0.1131  0.02483  1.0000
  O   O29       1.0  0.7536  0.12889999999999996  0.78534  1.0000
  O   O30       1.0  0.6216  0.1575  0.9681  1.0000
  O   O31       1.0  0.1216  0.34249999999999997  0.5319  1.0000
  O   O32       1.0  0.624  0.3399  0.44522  1.0000
  O   O33       1.0  0.8562  0.16389999999999996  0.31295999999999996  1.0000
  O   O34       1.0  0.0392  0.5015  0.12272999999999999  1.0000
  O   O35       1.0  0.7062  0.1188  0.72579  1.0000
  O   O36       1.0  0.3749  0.5409  0.49709999999999993  1.0000
  O   O37       1.0  0.3562  0.3361  0.18704  1.0000
  O   O38       1.0  0.12399999999999999  0.1601  0.054779999999999995  1.0000
  O   O39       1.0  0.6438  0.6639  0.8129599999999999  1.0000
  O   O40       1.0  0.38410000000000005  0.1189  0.30212  1.0000
  O   O41       1.0  0.1293  0.2179  0.78674  1.0000
  O   O42       1.0  0.1159  0.6189  0.80212  1.0000
  O   O43       1.0  0.6293  0.28209999999999996  0.7132599999999998  1.0000
  O   O44       1.0  0.8749  0.9591  0.0029  1.0000
  O   O45       1.0  0.376  0.6601  0.55478  1.0000
  O   O46       1.0  0.2464  0.8711  0.21466  1.0000
  O   O47       1.0  0.1558  0.2156  0.00283  1.0000
  O   O48       1.0  0.972  0.37309999999999993  0.8600799999999998  1.0000
  O   O49       1.0  0.2062  0.38119999999999993  0.7742099999999997  1.0000
  O   O50       1.0  0.8232  0.0448  0.32411  1.0000
  O   O51       1.0  0.9464  0.911  0.39124  1.0000
  O   O52       1.0  0.5392  0.9984999999999999  0.3772699999999999  1.0000
  O   O53       1.0  0.1792  0.9280000000000002  0.97455  1.0000
  O   O54       1.0  0.8729  0.6131  0.52483  1.0000
  O   O55       1.0  0.7650000000000002  0.842  0.19132  1.0000
  O   O56       1.0  0.876  0.8399  0.94522  1.0000
  O   O57       1.0  0.0536  0.089  0.60876  1.0000
  O   O58       1.0  0.8784  0.6575  0.4681  1.0000
  O   O59       1.0  0.007  0.02219999999999999  0.38382  1.0000
  O   O60       1.0  0.1271  0.3869  0.47517  1.0000
  O   O61       1.0  0.6395  0.9077999999999999  0.6385899999999998  1.0000
  O   O62       1.0  0.8707  0.7821  0.21325999999999998  1.0000
  O   O63       1.0  0.3707  0.7179  0.2867399999999999  1.0000
  O   O64       1.0  0.9608  0.49849999999999994  0.87727  1.0000
  O   O65       1.0  0.6558  0.2844  0.49717  1.0000
  O   O66       1.0  0.028  0.6269  0.13992  1.0000
  O   O67       1.0  0.735  0.34199999999999997  0.6913199999999999  1.0000
  O   O68       1.0  0.1904  0.6296999999999999  0.5548199999999998  1.0000
  O   O69       1.0  0.6251  0.4591  0.5029  1.0000
  O   O70       1.0  0.472  0.1269  0.63992  1.0000
  O   O71       1.0  0.3442  0.7155999999999999  0.5028299999999999  1.0000
  O   O72       1.0  0.7464  0.6289  0.28533999999999987  1.0000
  O   O73       1.0  0.528  0.8731  0.36007999999999996  1.0000
  O   O74       1.0  0.235  0.158  0.80868  1.0000
  O   O75       1.0  0.1995  0.5137  0.5263199999999999  1.0000
  O   O76       1.0  0.1438  0.8361  0.68704  1.0000
  O   O77       1.0  0.265  0.658  0.30868  1.0000
  O   O78       1.0  0.3096  0.1297  0.05482  1.0000
  O   O79       1.0  0.2938  0.8812  0.27421  1.0000
  O   O80       1.0  0.3729  0.8869  0.97517  1.0000
