data_image0
_chemical_formula_structural       C5NiC3H4N4H4C17NiC3H4N4H4C17NiC3H4N4H4C17NiC3H4N4H4C17NiC3H4N4H4C17NiC3H4N4H4C17NiC3H4N4H4C17NiC3H4N4H4C12N32C5NiC3H4N4H4C17NiC3H4N4H4C17NiC3H4N4H4C17NiC3H4N4H4C17NiC3H4N4H4C17NiC3H4N4H4C17NiC3H4N4H4C17NiC3H4N4H4C12N32C5NiC3H4N4H4C17NiC3H4N4H4C17NiC3H4N4H4C17NiC3H4N4H4C17NiC3H4N4H4C17NiC3H4N4H4C17NiC3H4N4H4C17NiC3H4N4H4C12N32C5NiC3H4N4H4C17NiC3H4N4H4C17NiC3H4N4H4C17NiC3H4N4H4C17NiC3H4N4H4C17NiC3H4N4H4C17NiC3H4N4H4C17NiC3H4N4H4C12N32C5NiC3H4N4H4C17NiC3H4N4H4C17NiC3H4N4H4C17NiC3H4N4H4C17NiC3H4N4H4C17NiC3H4N4H4C17NiC3H4N4H4C17NiC3H4N4H4C12N32C5NiC3H4N4H4C17NiC3H4N4H4C17NiC3H4N4H4C17NiC3H4N4H4C17NiC3H4N4H4C17NiC3H4N4H4C17NiC3H4N4H4C17NiC3H4N4H4C12N32C5NiC3H4N4H4C17NiC3H4N4H4C17NiC3H4N4H4C17NiC3H4N4H4C17NiC3H4N4H4C17NiC3H4N4H4C17NiC3H4N4H4C17NiC3H4N4H4C12N32C5NiC3H4N4H4C17NiC3H4N4H4C17NiC3H4N4H4C17NiC3H4N4H4C17NiC3H4N4H4C17NiC3H4N4H4C17NiC3H4N4H4C17NiC3H4N4H4C12N32C5NiC3H4N4H4C17NiC3H4N4H4C17NiC3H4N4H4C17NiC3H4N4H4C17NiC3H4N4H4C17NiC3H4N4H4C17NiC3H4N4H4C17NiC3H4N4H4C12N32C5NiC3H4N4H4C17NiC3H4N4H4C17NiC3H4N4H4C17NiC3H4N4H4C17NiC3H4N4H4C17NiC3H4N4H4C17NiC3H4N4H4C17NiC3H4N4H4C12N32
_chemical_formula_sum              "C1600 Ni80 H640 N640"
_cell_length_a       32.3662
_cell_length_b       32.36619999999999
_cell_length_c       25.8198
_cell_angle_alpha    90.0
_cell_angle_beta     90.0
_cell_angle_gamma    90.29

_space_group_name_H-M_alt    "P 1"
_space_group_IT_number       1

loop_
  _space_group_symop_operation_xyz
  'x, y, z'

loop_
  _atom_site_type_symbol
  _atom_site_label
  _atom_site_symmetry_multiplicity
  _atom_site_fract_x
  _atom_site_fract_y
  _atom_site_fract_z
  _atom_site_occupancy
  C   C1        1.0  0.9764800000000002  0.12886  0.03849000000000001  1.0000
  C   C2        1.0  0.9622300000000003  0.08814  0.039720000000000005  1.0000
  C   C3        1.0  0.9168500000000003  0.07727  0.04013000000000001  1.0000
  C   C4        1.0  0.90908  0.03324  0.04441  1.0000
  C   C5        1.0  0.8681400000000002  0.0199  0.04597  1.0000
  Ni  Ni1       1.0  0.99728  0.99915  0.047240000000000004  1.0000
  C   C6        1.0  0.90902  0.96515  0.05012  1.0000
  C   C7        1.0  0.86812  0.97809  0.04852  1.0000
  C   C8        1.0  0.07851  0.07672  0.03997000000000001  1.0000
  H   H1        1.0  0.9555700000000003  0.84221  0.05645000000000001  1.0000
  H   H2        1.0  0.03723000000000001  0.842  0.05658000000000001  1.0000
  H   H3        1.0  0.15385  0.95907  0.049220000000000014  1.0000
  H   H4        1.0  0.15471  0.03773  0.04487000000000001  1.0000
  N   N1        1.0  0.997  0.9371  0.05319  1.0000
  N   N2        1.0  0.058270000000000016  0.9989200000000001  0.04723  1.0000
  N   N3        1.0  0.9976  0.06124000000000002  0.04129000000000001  1.0000
  N   N4        1.0  0.93627  0.9992700000000001  0.04726000000000002  1.0000
  H   H5        1.0  0.03926  0.15599  0.037860000000000005  1.0000
  H   H6        1.0  0.95741  0.15625  0.03791  1.0000
  H   H7        1.0  0.8402700000000002  0.03827  0.044960000000000014  1.0000
  H   H8        1.0  0.84028  0.95942  0.04942000000000001  1.0000
  C   C9        1.0  0.96158  0.9103  0.05477000000000001  1.0000
  C   C10       1.0  0.9750100000000003  0.8694800000000003  0.055950000000000014  1.0000
  C   C11       1.0  0.01813  0.86936  0.05601000000000001  1.0000
  C   C12       1.0  0.03209  0.91012  0.05484000000000001  1.0000
  C   C13       1.0  0.07705  0.92089  0.05455  1.0000
  C   C14       1.0  0.08519  0.96477  0.05012  1.0000
  C   C15       1.0  0.1262  0.97768  0.04844  1.0000
  C   C16       1.0  0.12661  0.01943  0.04588000000000001  1.0000
  C   C17       1.0  0.08581000000000003  0.03278  0.04431000000000001  1.0000
  C   C18       1.0  0.9168100000000002  0.92128  0.05443  1.0000
  C   C19       1.0  0.03335  0.08791  0.03965000000000001  1.0000
  C   C20       1.0  0.01976  0.12872  0.03846  1.0000
  C   C21       1.0  0.11802000000000003  0.72659  0.06798  1.0000
  C   C22       1.0  0.15935  0.71473  0.06842  1.0000
  C   C23       1.0  0.16835  0.67107  0.06777  1.0000
  C   C24       1.0  0.21396  0.66158  0.07097  1.0000
  C   C25       1.0  0.22892  0.62128  0.07222  1.0000
  Ni  Ni2       1.0  0.24667  0.75178  0.07358  1.0000
  C   C26       1.0  0.28505  0.66388  0.07603  1.0000
  C   C27       1.0  0.27216  0.62268  0.07467000000000001  1.0000
  C   C28       1.0  0.16348  0.8269100000000001  0.06758  1.0000
  H   H9        1.0  0.40524  0.71896  0.9802000000000001  1.0000
  H   H10       1.0  0.4022  0.79892  0.9801600000000003  1.0000
  H   H11       1.0  0.28048  0.9103300000000002  0.07567  1.0000
  H   H12       1.0  0.19941  0.90688  0.07158000000000002  1.0000
  N   N5        1.0  0.3082200000000001  0.75461  0.07798000000000001  1.0000
  N   N6        1.0  0.24384000000000006  0.81353  0.07343000000000002  1.0000
  N   N7        1.0  0.18557  0.74962  0.06936  1.0000
  N   N8        1.0  0.24879  0.68956  0.07356  1.0000
  H   H13       1.0  0.08837000000000003  0.78599  0.06767000000000001  1.0000
  H   H14       1.0  0.09065000000000002  0.70729  0.06792  1.0000
  H   H15       1.0  0.21037  0.59333  0.07125000000000001  1.0000
  H   H16       1.0  0.2921  0.59593  0.07553  1.0000
  C   C29       1.0  0.33656  0.72118  0.07908  1.0000
  C   C30       1.0  0.37686  0.7366  0.07985  1.0000
  C   C31       1.0  0.37532  0.77902  0.07993  1.0000
  C   C32       1.0  0.3340800000000001  0.79056  0.07928000000000002  1.0000
  C   C33       1.0  0.3228400000000001  0.83458  0.07947  1.0000
  C   C34       1.0  0.27763  0.84182  0.07593  1.0000
  C   C35       1.0  0.26239  0.88208  0.07464000000000003  1.0000
  C   C36       1.0  0.21961000000000006  0.8804  0.07224  1.0000
  C   C37       1.0  0.20773000000000005  0.83914  0.07086000000000002  1.0000
  C   C38       1.0  0.3301600000000001  0.676  0.07937  1.0000
  C   C39       1.0  0.15717  0.78272  0.06828000000000002  1.0000
  C   C40       1.0  0.11671  0.76832  0.06788000000000001  1.0000
  C   C41       1.0  0.4854  0.86563  0.09022000000000001  1.0000
  C   C42       1.0  0.47014  0.9058700000000002  0.09124  1.0000
  C   C43       1.0  0.4248600000000001  0.91309  0.09117000000000003  1.0000
  C   C44       1.0  0.41361  0.95702  0.09502  1.0000
  C   C45       1.0  0.37236  0.96852  0.09654  1.0000
  Ni  Ni3       1.0  0.5011700000000002  0.99575  0.9979900000000003  1.0000
  C   C46       1.0  0.4111500000000001  0.02629  0.10062000000000003  1.0000
  C   C47       1.0  0.3708300000000001  0.01091  0.09915000000000003  1.0000
  C   C48       1.0  0.58445  0.92074  0.99105  1.0000
  H   H17       1.0  0.4557600000000001  0.15138  0.10680000000000002  1.0000
  H   H18       1.0  0.5375200000000002  0.15397  0.00698  1.0000
  H   H19       1.0  0.65732  0.04026  0.9998200000000003  1.0000
  H   H20       1.0  0.6596  0.96154  0.9955200000000002  1.0000
  N   N9        1.0  0.49905  0.057790000000000015  0.10360000000000003  1.0000
  N   N10       1.0  0.56237  0.99789  0.9979800000000002  1.0000
  N   N11       1.0  0.50399  0.93415  0.9925200000000002  1.0000
  N   N12       1.0  0.4395000000000001  0.99292  0.09786000000000002  1.0000
  H   H21       1.0  0.5483700000000002  0.84086  0.98977  1.0000
  H   H22       1.0  0.46731  0.83738  0.08978  1.0000
  H   H23       1.0  0.34549  0.94861  0.09572000000000003  1.0000
  H   H24       1.0  0.34246  0.028550000000000002  0.10027000000000003  1.0000
  C   C49       1.0  0.46274  0.08345  0.10506000000000003  1.0000
  C   C50       1.0  0.47569  0.12463  0.10626000000000002  1.0000
  C   C51       1.0  0.5189600000000002  0.12603  0.006360000000000002  1.0000
  C   C52       1.0  0.53394  0.08575  0.00524  1.0000
  C   C53       1.0  0.57959  0.07629  0.004960000000000001  1.0000
  C   C54       1.0  0.58861  0.03272  0.0007100000000000002  1.0000
  C   C55       1.0  0.62995  0.02093  0.99906  1.0000
  C   C56       1.0  0.63126  0.97922  0.9965700000000001  1.0000
  C   C57       1.0  0.59079  0.96485  0.9951400000000001  1.0000
  C   C58       1.0  0.41757  0.07138  0.10470000000000002  1.0000
  C   C59       1.0  0.5401400000000002  0.90856  0.99099  1.0000
  C   C60       1.0  0.5282000000000002  0.86733  0.9901200000000002  1.0000
  C   C61       1.0  0.12006000000000003  0.22693  0.02719  1.0000
  C   C62       1.0  0.16089  0.21361  0.02677  1.0000
  C   C63       1.0  0.16813  0.16955  0.02738  1.0000
  C   C64       1.0  0.21317  0.15816  0.024250000000000008  1.0000
  C   C65       1.0  0.22638  0.11722  0.02295  1.0000
  Ni  Ni4       1.0  0.24949  0.24712  0.02182  1.0000
  C   C66       1.0  0.28417  0.15731000000000006  0.01931  1.0000
  C   C67       1.0  0.2696000000000001  0.1167  0.020550000000000006  1.0000
  C   C68       1.0  0.16906  0.3259  0.027590000000000007  1.0000
  H   H25       1.0  0.4061800000000001  0.20685  0.01584  1.0000
  H   H26       1.0  0.40662  0.28631  0.015870000000000002  1.0000
  H   H27       1.0  0.29115000000000013  0.40457  0.019900000000000004  1.0000
  H   H28       1.0  0.20942000000000005  0.40472  0.02412  1.0000
  N   N13       1.0  0.31063  0.24669  0.01774  1.0000
  N   N14       1.0  0.24975000000000003  0.30957  0.02192  1.0000
  N   N15       1.0  0.18841000000000005  0.24758  0.025840000000000005  1.0000
  N   N16       1.0  0.24905  0.18466  0.021780000000000008  1.0000
  H   H29       1.0  0.09254  0.28717  0.027430000000000006  1.0000
  H   H30       1.0  0.09199000000000003  0.2086  0.027320000000000004  1.0000
  H   H31       1.0  0.20666000000000007  0.09011  0.023770000000000006  1.0000
  H   H32       1.0  0.28843  0.08911  0.01957  1.0000
  C   C69       1.0  0.33763  0.21213  0.016660000000000005  1.0000
  C   C70       1.0  0.37852  0.22553  0.01613  1.0000
  C   C71       1.0  0.37875  0.26765  0.01615  1.0000
  C   C72       1.0  0.33798  0.28108  0.01672  1.0000
  C   C73       1.0  0.3304400000000001  0.32562  0.01626  1.0000
  C   C74       1.0  0.28532000000000013  0.33643  0.01947  1.0000
  C   C75       1.0  0.27172  0.37724  0.02078  1.0000
  C   C76       1.0  0.22852000000000006  0.37734  0.023200000000000005  1.0000
  C   C77       1.0  0.21441000000000004  0.3366  0.024450000000000006  1.0000
  C   C78       1.0  0.3297200000000001  0.16748  0.01614  1.0000
  C   C79       1.0  0.16132  0.28178  0.02687000000000001  1.0000
  C   C80       1.0  0.12034000000000003  0.26868  0.027240000000000004  1.0000
  C   C81       1.0  0.6187200000000003  0.22846  0.017380000000000003  1.0000
  C   C82       1.0  0.6595800000000003  0.21532  0.01781  1.0000
  C   C83       1.0  0.6671  0.17124  0.017220000000000003  1.0000
  C   C84       1.0  0.71219  0.16023  0.02029  1.0000
  C   C85       1.0  0.7258000000000002  0.11943  0.02158  1.0000
  Ni  Ni5       1.0  0.74799  0.24935  0.02259  1.0000
  C   C86       1.0  0.7831200000000003  0.1601  0.02506  1.0000
  C   C87       1.0  0.76902  0.11935  0.02389000000000001  1.0000
  C   C88       1.0  0.6675000000000002  0.32779  0.017070000000000005  1.0000
  H   H33       1.0  0.90493  0.20981  0.02794  1.0000
  H   H34       1.0  0.90534  0.2884  0.0279  1.0000
  H   H35       1.0  0.78985  0.40653  0.02456  1.0000
  H   H36       1.0  0.70802  0.40677  0.020490000000000008  1.0000
  N   N17       1.0  0.80902  0.24918  0.02643  1.0000
  N   N18       1.0  0.7482400000000002  0.31168  0.02255  1.0000
  N   N19       1.0  0.68694  0.24948  0.018740000000000003  1.0000
  N   N20       1.0  0.7477900000000002  0.18703  0.02265  1.0000
  H   H37       1.0  0.59097  0.28869  0.11715000000000003  1.0000
  H   H38       1.0  0.5907400000000003  0.20989  0.11719  1.0000
  H   H39       1.0  0.70639  0.09213000000000003  0.02088  1.0000
  H   H40       1.0  0.7881300000000002  0.09198  0.0248  1.0000
  C   C89       1.0  0.83615  0.21507  0.027390000000000008  1.0000
  C   C90       1.0  0.87711  0.22825  0.027770000000000006  1.0000
  C   C91       1.0  0.8773  0.27  0.027750000000000007  1.0000
  C   C92       1.0  0.83646  0.28323  0.027360000000000002  1.0000
  C   C93       1.0  0.82909  0.32728  0.028010000000000007  1.0000
  C   C94       1.0  0.78394  0.33842  0.024970000000000006  1.0000
  C   C95       1.0  0.77036  0.37925  0.02372  1.0000
  C   C96       1.0  0.7271  0.37937  0.02136  1.0000
  C   C97       1.0  0.7128800000000002  0.33863  0.02013  1.0000
  C   C98       1.0  0.8284000000000002  0.17097  0.028050000000000005  1.0000
  C   C99       1.0  0.65978  0.2836  0.01774  1.0000
  C   C100      1.0  0.6188200000000001  0.27027  0.11735  1.0000
  C   C101      1.0  0.6214  0.728  0.07781000000000003  1.0000
  C   C102      1.0  0.66219  0.71461  0.07747000000000001  1.0000
  C   C103      1.0  0.6694600000000003  0.67057  0.07812  1.0000
  C   C104      1.0  0.71457  0.65934  0.07506  1.0000
  C   C105      1.0  0.72812  0.6185  0.07380000000000002  1.0000
  Ni  Ni6       1.0  0.7506  0.7483000000000002  0.07268  1.0000
  C   C106      1.0  0.7856  0.65911  0.0702  1.0000
  C   C107      1.0  0.7713900000000002  0.61837  0.07144  1.0000
  C   C108      1.0  0.6709300000000002  0.82673  0.07837000000000002  1.0000
  H   H41       1.0  0.90749  0.70917  0.0672  1.0000
  H   H42       1.0  0.90748  0.788  0.06724  1.0000
  H   H43       1.0  0.79234  0.90548  0.07083  1.0000
  H   H44       1.0  0.71068  0.9057  0.07497  1.0000
  N   N21       1.0  0.8115200000000002  0.74818  0.06876000000000002  1.0000
  N   N22       1.0  0.75089  0.81054  0.07274000000000001  1.0000
  N   N23       1.0  0.68971  0.74853  0.07658  1.0000
  N   N24       1.0  0.7502700000000001  0.68604  0.07264  1.0000
  H   H45       1.0  0.5941700000000002  0.78833  0.07784000000000002  1.0000
  H   H46       1.0  0.5933000000000003  0.70973  0.07786000000000003  1.0000
  H   H47       1.0  0.70862  0.59123  0.07464000000000003  1.0000
  H   H48       1.0  0.79046  0.59097  0.07056  1.0000
  C   C109      1.0  0.8386900000000003  0.71415  0.06778  1.0000
  C   C110      1.0  0.87961  0.72753  0.06737  1.0000
  C   C111      1.0  0.8796300000000002  0.76936  0.06737  1.0000
  C   C112      1.0  0.83875  0.78236  0.06777  1.0000
  C   C113      1.0  0.83098  0.82633  0.06711000000000002  1.0000
  C   C114      1.0  0.7862700000000002  0.83736  0.07027  1.0000
  C   C115      1.0  0.77288  0.87821  0.07162000000000002  1.0000
  C   C116      1.0  0.72978  0.87833  0.07403000000000001  1.0000
  C   C117      1.0  0.71584  0.83754  0.07527  1.0000
  C   C118      1.0  0.83093  0.67003  0.06714  1.0000
  C   C119      1.0  0.66281  0.78275  0.07758000000000001  1.0000
  C   C120      1.0  0.62182  0.76977  0.07785  1.0000
  C   C121      1.0  0.4760900000000001  0.37051  0.00615  1.0000
  C   C122      1.0  0.4624700000000001  0.4113  0.004940000000000001  1.0000
  C   C123      1.0  0.4173  0.42207  0.004590000000000001  1.0000
  C   C124      1.0  0.4097500000000001  0.46653  0.0004700000000000001  1.0000
  C   C125      1.0  0.3689400000000001  0.47991  0.09897000000000003  1.0000
  Ni  Ni7       1.0  0.49835000000000007  0.50041  0.99769  1.0000
  C   C126      1.0  0.41008  0.53535  0.09492000000000003  1.0000
  C   C127      1.0  0.36917  0.522  0.09643  1.0000
  C   C128      1.0  0.57886  0.42177  0.004810000000000001  1.0000
  H   H49       1.0  0.45939  0.6582100000000002  0.08858  1.0000
  H   H50       1.0  0.54118  0.65718  0.08855  1.0000
  H   H51       1.0  0.6559400000000002  0.53889  0.09555  1.0000
  H   H52       1.0  0.65541  0.46034  0.99998  1.0000
  N   N25       1.0  0.49877000000000005  0.56269  0.09194  1.0000
  N   N26       1.0  0.55952  0.49994  0.9977  1.0000
  N   N27       1.0  0.49809  0.43813  0.0034400000000000003  1.0000
  N   N28       1.0  0.43709  0.50085  0.09769000000000003  1.0000
  H   H53       1.0  0.5384  0.34302  0.006830000000000001  1.0000
  H   H54       1.0  0.45665  0.34319  0.0067100000000000016  1.0000
  H   H55       1.0  0.3411000000000001  0.4612600000000001  0.9999600000000002  1.0000
  H   H56       1.0  0.3415200000000001  0.5407  0.09546000000000003  1.0000
  C   C129      1.0  0.46361  0.59003  0.09042  1.0000
  C   C130      1.0  0.47822  0.63062  0.08920000000000003  1.0000
  C   C131      1.0  0.52146  0.6300800000000002  0.08914  1.0000
  C   C132      1.0  0.53469  0.58916  0.09030000000000002  1.0000
  C   C133      1.0  0.57979  0.57778  0.09058  1.0000
  C   C134      1.0  0.58704  0.53382  0.09487000000000002  1.0000
  C   C135      1.0  0.6279  0.52057  0.99647  1.0000
  C   C136      1.0  0.62762  0.47884  0.9990000000000002  1.0000
  C   C137      1.0  0.58663  0.4658  0.00055  1.0000
  C   C138      1.0  0.41802  0.57992  0.09079  1.0000
  C   C139      1.0  0.53346  0.41112  0.005070000000000001  1.0000
  C   C140      1.0  0.5193100000000003  0.3704  0.00622  1.0000
  C   C141      1.0  0.97881  0.62791  0.0564  1.0000
  C   C142      1.0  0.96469  0.58717  0.055200000000000006  1.0000
  C   C143      1.0  0.9193700000000002  0.57634  0.054820000000000015  1.0000
  C   C144      1.0  0.91161  0.53234  0.05048  1.0000
  C   C145      1.0  0.8706300000000002  0.51922  0.04889000000000001  1.0000
  Ni  Ni8       1.0  0.99987  0.49814  0.04759  1.0000
  C   C146      1.0  0.9113  0.46432  0.04472000000000002  1.0000
  C   C147      1.0  0.87044  0.47749  0.04633000000000002  1.0000
  C   C148      1.0  0.08085000000000003  0.57611  0.05494000000000002  1.0000
  H   H57       1.0  0.95801  0.34119  0.03813  1.0000
  H   H58       1.0  0.03984  0.34096  0.03807  1.0000
  H   H59       1.0  0.15697  0.45879  0.0453  1.0000
  H   H60       1.0  0.15720000000000006  0.53759  0.049990000000000014  1.0000
  N   N29       1.0  0.99962  0.43599  0.04157000000000001  1.0000
  N   N30       1.0  0.061  0.49802  0.0476  1.0000
  N   N31       1.0  7.000000000000008e-05  0.56027  0.05360000000000001  1.0000
  N   N32       1.0  0.93875  0.4983  0.04759  1.0000
  H   H61       1.0  0.04143  0.6551200000000001  0.05693  1.0000
  H   H62       1.0  0.95969  0.65526  0.05696  1.0000
  H   H63       1.0  0.84281  0.53767  0.04987000000000001  1.0000
  H   H64       1.0  0.84241  0.45908  0.045370000000000014  1.0000
  C   C149      1.0  0.9638800000000002  0.40927  0.03996  1.0000
  C   C150      1.0  0.9774900000000002  0.36847  0.038720000000000004  1.0000
  C   C151      1.0  0.02077  0.36834  0.038680000000000006  1.0000
  C   C152      1.0  0.03502  0.40907  0.0399  1.0000
  C   C153      1.0  0.08045  0.41986  0.040240000000000005  1.0000
  C   C154      1.0  0.08818  0.46396  0.04466  1.0000
  C   C155      1.0  0.12913  0.47722  0.04629000000000001  1.0000
  C   C156      1.0  0.12926  0.51902  0.048950000000000014  1.0000
  C   C157      1.0  0.08838  0.53211  0.05055000000000001  1.0000
  C   C158      1.0  0.91868  0.42036  0.04037000000000001  1.0000
  C   C159      1.0  0.035700000000000016  0.58706  0.055240000000000004  1.0000
  C   C160      1.0  0.022040000000000008  0.62783  0.05641000000000001  1.0000
  N   N33       1.0  0.11936000000000002  0.10355  0.036050000000000006  1.0000
  N   N34       1.0  0.12727000000000002  0.14268  0.030760000000000003  1.0000
  N   N35       1.0  0.11681000000000001  0.8932  0.05875000000000001  1.0000
  N   N36       1.0  0.12315000000000002  0.85385  0.06386000000000001  1.0000
  N   N37       1.0  0.394  0.87515  0.08727  1.0000
  N   N38       1.0  0.35366  0.87256  0.08337000000000003  1.0000
  N   N39       1.0  0.36981  0.13883  0.0127  1.0000
  N   N40       1.0  0.37686  0.09908000000000003  0.00844  1.0000
  N   N41       1.0  0.8769300000000002  0.89353  0.05845  1.0000
  N   N42       1.0  0.8708400000000002  0.85415  0.06356  1.0000
  N   N43       1.0  0.87632  0.10443  0.03634  1.0000
  N   N44       1.0  0.86889  0.1437  0.031360000000000006  1.0000
  N   N45       1.0  0.6266000000000003  0.14378  0.01392  1.0000
  N   N46       1.0  0.61957  0.10445  0.008830000000000001  1.0000
  N   N47       1.0  0.6248100000000002  0.89385  0.08706  1.0000
  N   N48       1.0  0.63117  0.8545  0.082  1.0000
  N   N49       1.0  0.6206800000000002  0.60457  0.08672000000000003  1.0000
  N   N50       1.0  0.62861  0.64369  0.08146000000000002  1.0000
  N   N51       1.0  0.62693  0.35513  0.01369  1.0000
  N   N52       1.0  0.6194  0.39442  0.008680000000000002  1.0000
  N   N53       1.0  0.8699200000000002  0.35428  0.03132  1.0000
  N   N54       1.0  0.87783  0.39343  0.03652  1.0000
  N   N55       1.0  0.87144  0.6428  0.06377000000000001  1.0000
  N   N56       1.0  0.8788600000000002  0.60355  0.05869  1.0000
  N   N57       1.0  0.37714  0.39373  0.0084  1.0000
  N   N58       1.0  0.3705700000000001  0.35403  0.012820000000000003  1.0000
  N   N59       1.0  0.37087  0.64827  0.08281  1.0000
  N   N60       1.0  0.37791  0.60851  0.08695  1.0000
  N   N61       1.0  0.12839  0.64282  0.0643  1.0000
  N   N62       1.0  0.12137  0.60351  0.0589  1.0000
  N   N63       1.0  0.12855  0.35331  0.031090000000000007  1.0000
  N   N64       1.0  0.12103  0.3926  0.03624  1.0000
  C   C161      1.0  0.97647  0.12886  0.13849  1.0000
  C   C162      1.0  0.9622300000000003  0.08814  0.13972000000000004  1.0000
  C   C163      1.0  0.91684  0.07727  0.14013000000000003  1.0000
  C   C164      1.0  0.90908  0.03324  0.14441000000000004  1.0000
  C   C165      1.0  0.8681400000000002  0.0199  0.14597  1.0000
  Ni  Ni9       1.0  0.99728  0.9991599999999999  0.14724  1.0000
  C   C166      1.0  0.90902  0.96516  0.15012  1.0000
  C   C167      1.0  0.86812  0.97809  0.14852  1.0000
  C   C168      1.0  0.07850000000000003  0.07672  0.13997  1.0000
  H   H65       1.0  0.9555700000000003  0.84222  0.15645000000000006  1.0000
  H   H66       1.0  0.03723000000000001  0.842  0.15658000000000005  1.0000
  H   H67       1.0  0.15384000000000006  0.95908  0.14922  1.0000
  H   H68       1.0  0.1547  0.03773  0.14487000000000003  1.0000
  N   N65       1.0  0.997  0.9371  0.15319  1.0000
  N   N66       1.0  0.05826  0.9989200000000001  0.14723000000000003  1.0000
  N   N67       1.0  0.9976  0.06124000000000002  0.14129  1.0000
  N   N68       1.0  0.93627  0.99928  0.14726000000000003  1.0000
  H   H69       1.0  0.039250000000000014  0.15599  0.13786000000000004  1.0000
  H   H70       1.0  0.95741  0.15625  0.13791  1.0000
  H   H71       1.0  0.84026  0.03827  0.14496  1.0000
  H   H72       1.0  0.84028  0.95942  0.14942000000000003  1.0000
  C   C169      1.0  0.96158  0.91031  0.15477000000000002  1.0000
  C   C170      1.0  0.9750100000000003  0.8694800000000003  0.15595  1.0000
  C   C171      1.0  0.01813  0.86936  0.15601000000000007  1.0000
  C   C172      1.0  0.03209  0.91013  0.15484000000000006  1.0000
  C   C173      1.0  0.07705  0.92089  0.15455000000000005  1.0000
  C   C174      1.0  0.08518  0.96478  0.15012  1.0000
  C   C175      1.0  0.1262  0.97769  0.14844000000000002  1.0000
  C   C176      1.0  0.12661  0.01944  0.14588  1.0000
  C   C177      1.0  0.0858  0.03278  0.14431000000000002  1.0000
  C   C178      1.0  0.9168100000000002  0.92129  0.15443  1.0000
  C   C179      1.0  0.03334  0.08791  0.13965000000000002  1.0000
  C   C180      1.0  0.01976  0.12873  0.13846  1.0000
  C   C181      1.0  0.11803  0.72659  0.16798000000000005  1.0000
  C   C182      1.0  0.15936  0.71474  0.16842  1.0000
  C   C183      1.0  0.16835  0.67107  0.16777  1.0000
  C   C184      1.0  0.21396  0.66159  0.17098  1.0000
  C   C185      1.0  0.22894000000000006  0.62129  0.17222000000000007  1.0000
  Ni  Ni10      1.0  0.24668  0.7517900000000002  0.17358  1.0000
  C   C186      1.0  0.28506  0.66389  0.17603000000000005  1.0000
  C   C187      1.0  0.27217  0.62269  0.17467000000000002  1.0000
  C   C188      1.0  0.16349  0.82692  0.16758  1.0000
  H   H73       1.0  0.40523  0.71895  0.0802  1.0000
  H   H74       1.0  0.4021900000000001  0.7989100000000002  0.08016000000000001  1.0000
  H   H75       1.0  0.28048  0.91034  0.17567000000000005  1.0000
  H   H76       1.0  0.19942  0.90689  0.17158000000000007  1.0000
  N   N69       1.0  0.3082200000000001  0.75462  0.17798000000000005  1.0000
  N   N70       1.0  0.24384000000000006  0.81354  0.17343000000000006  1.0000
  N   N71       1.0  0.18558  0.74962  0.16936000000000004  1.0000
  N   N72       1.0  0.24879  0.68956  0.17356000000000005  1.0000
  H   H77       1.0  0.08838  0.78599  0.16767000000000007  1.0000
  H   H78       1.0  0.09065000000000002  0.70729  0.16792000000000007  1.0000
  H   H79       1.0  0.21039000000000005  0.59334  0.17125000000000004  1.0000
  H   H80       1.0  0.29211  0.59594  0.17553  1.0000
  C   C189      1.0  0.33657  0.72119  0.17908  1.0000
  C   C190      1.0  0.3768700000000001  0.73661  0.17985  1.0000
  C   C191      1.0  0.3753300000000001  0.77903  0.17993000000000003  1.0000
  C   C192      1.0  0.33409  0.79057  0.17928  1.0000
  C   C193      1.0  0.32285  0.83459  0.17947  1.0000
  C   C194      1.0  0.27763  0.84183  0.17593000000000006  1.0000
  C   C195      1.0  0.26239  0.88209  0.17464000000000002  1.0000
  C   C196      1.0  0.21961000000000006  0.8804  0.17224000000000003  1.0000
  C   C197      1.0  0.20774  0.83915  0.17086  1.0000
  C   C198      1.0  0.33017  0.67601  0.17937  1.0000
  C   C199      1.0  0.15717  0.78273  0.16828000000000007  1.0000
  C   C200      1.0  0.11672000000000003  0.76832  0.16788000000000003  1.0000
  C   C201      1.0  0.48541  0.8656400000000001  0.19023  1.0000
  C   C202      1.0  0.47015  0.90588  0.19124000000000005  1.0000
  C   C203      1.0  0.42487  0.9131  0.19117000000000003  1.0000
  C   C204      1.0  0.4136200000000001  0.95704  0.19502000000000005  1.0000
  C   C205      1.0  0.3723700000000001  0.96853  0.19654  1.0000
  Ni  Ni11      1.0  0.50115  0.99573  0.09799000000000002  1.0000
  C   C206      1.0  0.41116  0.02631  0.20062000000000002  1.0000
  C   C207      1.0  0.37084  0.01092  0.19915000000000005  1.0000
  C   C208      1.0  0.5844400000000002  0.92073  0.09105  1.0000
  H   H81       1.0  0.45577  0.15139  0.2068  1.0000
  H   H82       1.0  0.53751  0.15395  0.10698000000000003  1.0000
  H   H83       1.0  0.6573100000000002  0.04024  0.09982000000000003  1.0000
  H   H84       1.0  0.6595800000000003  0.96153  0.09552000000000001  1.0000
  N   N73       1.0  0.49906  0.05781  0.20360000000000003  1.0000
  N   N74       1.0  0.56235  0.9978799999999999  0.09798  1.0000
  N   N75       1.0  0.50398  0.93414  0.09252  1.0000
  N   N76       1.0  0.43951  0.99293  0.19786  1.0000
  H   H85       1.0  0.54835  0.84085  0.08977  1.0000
  H   H86       1.0  0.4673200000000001  0.8374  0.18978  1.0000
  H   H87       1.0  0.3455  0.9486200000000002  0.19573000000000004  1.0000
  H   H88       1.0  0.34247  0.02857  0.20027000000000003  1.0000
  C   C209      1.0  0.46276  0.08347  0.20506  1.0000
  C   C210      1.0  0.4757  0.12465  0.20626000000000003  1.0000
  C   C211      1.0  0.51894  0.12602  0.10636  1.0000
  C   C212      1.0  0.53393  0.08573  0.10523000000000002  1.0000
  C   C213      1.0  0.57958  0.07627  0.10496000000000003  1.0000
  C   C214      1.0  0.58859  0.0327  0.10071000000000001  1.0000
  C   C215      1.0  0.62994  0.02091  0.09906000000000001  1.0000
  C   C216      1.0  0.63125  0.9792  0.09657000000000003  1.0000
  C   C217      1.0  0.59077  0.96483  0.09514000000000003  1.0000
  C   C218      1.0  0.4175800000000001  0.0714  0.20470000000000005  1.0000
  C   C219      1.0  0.54013  0.90855  0.09099000000000002  1.0000
  C   C220      1.0  0.52819  0.86732  0.09012  1.0000
  C   C221      1.0  0.12004  0.22693  0.12719000000000003  1.0000
  C   C222      1.0  0.16086000000000006  0.21361  0.12677000000000002  1.0000
  C   C223      1.0  0.16811  0.16955  0.12738000000000002  1.0000
  C   C224      1.0  0.21315  0.15815  0.12425000000000003  1.0000
  C   C225      1.0  0.22636  0.11721  0.12295000000000003  1.0000
  Ni  Ni12      1.0  0.24947000000000003  0.24711  0.12182  1.0000
  C   C226      1.0  0.28415  0.1573  0.11931000000000003  1.0000
  C   C227      1.0  0.2695800000000001  0.11669  0.12055000000000003  1.0000
  C   C228      1.0  0.16904  0.3259  0.1276  1.0000
  H   H89       1.0  0.40616000000000013  0.20685  0.11584000000000003  1.0000
  H   H90       1.0  0.40659  0.2863  0.11587000000000003  1.0000
  H   H91       1.0  0.29113  0.40455  0.11990000000000002  1.0000
  H   H92       1.0  0.20940000000000006  0.4047100000000001  0.12412000000000002  1.0000
  N   N77       1.0  0.31061  0.24668  0.11774000000000003  1.0000
  N   N78       1.0  0.24972  0.30956  0.12192000000000003  1.0000
  N   N79       1.0  0.18839  0.24757  0.12584  1.0000
  N   N80       1.0  0.24903000000000003  0.18465  0.12178000000000003  1.0000
  H   H93       1.0  0.09252000000000003  0.28717  0.12743  1.0000
  H   H94       1.0  0.09197  0.2086  0.12732  1.0000
  H   H95       1.0  0.20664  0.0901  0.12377000000000003  1.0000
  H   H96       1.0  0.28841  0.0891  0.11957000000000002  1.0000
  C   C229      1.0  0.3376000000000001  0.21212  0.11666  1.0000
  C   C230      1.0  0.3785000000000001  0.22552  0.11613  1.0000
  C   C231      1.0  0.37872  0.26764  0.11615  1.0000
  C   C232      1.0  0.3379500000000001  0.28107  0.11672000000000003  1.0000
  C   C233      1.0  0.33041  0.32561  0.11626  1.0000
  C   C234      1.0  0.2853  0.33641  0.11947000000000002  1.0000
  C   C235      1.0  0.2717000000000001  0.37723  0.12078000000000001  1.0000
  C   C236      1.0  0.2285  0.3773300000000001  0.12320000000000002  1.0000
  C   C237      1.0  0.21439000000000005  0.33659  0.12445000000000002  1.0000
  C   C238      1.0  0.3297  0.16747  0.11614000000000002  1.0000
  C   C239      1.0  0.16129000000000004  0.28177  0.12687000000000004  1.0000
  C   C240      1.0  0.12031  0.2686700000000001  0.12724  1.0000
  C   C241      1.0  0.6187  0.22845  0.11738  1.0000
  C   C242      1.0  0.65956  0.21531  0.11781000000000003  1.0000
  C   C243      1.0  0.6670800000000002  0.17122  0.11722  1.0000
  C   C244      1.0  0.71217  0.16022  0.12028  1.0000
  C   C245      1.0  0.72579  0.11942  0.12158000000000001  1.0000
  Ni  Ni13      1.0  0.74797  0.24934  0.12259  1.0000
  C   C246      1.0  0.78311  0.1601  0.12506000000000003  1.0000
  C   C247      1.0  0.7690100000000002  0.11934  0.12389000000000003  1.0000
  C   C248      1.0  0.66747  0.3277800000000001  0.11707000000000002  1.0000
  H   H97       1.0  0.90492  0.20982  0.12794000000000003  1.0000
  H   H98       1.0  0.90531  0.2884  0.1279  1.0000
  H   H99       1.0  0.78982  0.40653  0.12456  1.0000
  H   H100      1.0  0.708  0.40676  0.12049  1.0000
  N   N81       1.0  0.8090000000000003  0.24918  0.12643  1.0000
  N   N82       1.0  0.74822  0.31168  0.12255000000000003  1.0000
  N   N83       1.0  0.68692  0.24946999999999997  0.11874000000000003  1.0000
  N   N84       1.0  0.74777  0.18703  0.12265  1.0000
  H   H101      1.0  0.5909900000000002  0.28871  0.21715  1.0000
  H   H102      1.0  0.59076  0.20991  0.21719000000000005  1.0000
  H   H103      1.0  0.70638  0.09212  0.12088000000000003  1.0000
  H   H104      1.0  0.78812  0.09198  0.12480000000000001  1.0000
  C   C249      1.0  0.8361300000000003  0.21507  0.12739  1.0000
  C   C250      1.0  0.87709  0.22825  0.12777  1.0000
  C   C251      1.0  0.8772800000000002  0.27001  0.12775000000000003  1.0000
  C   C252      1.0  0.83643  0.28323  0.12736  1.0000
  C   C253      1.0  0.82907  0.32728  0.12801000000000004  1.0000
  C   C254      1.0  0.7839200000000001  0.33842  0.12496  1.0000
  C   C255      1.0  0.77033  0.37924  0.12372000000000002  1.0000
  C   C256      1.0  0.72707  0.37937  0.12136000000000002  1.0000
  C   C257      1.0  0.71286  0.33862  0.12013000000000003  1.0000
  C   C258      1.0  0.82839  0.17097  0.12805  1.0000
  C   C259      1.0  0.6597600000000002  0.28359  0.11774000000000003  1.0000
  C   C260      1.0  0.61884  0.27029  0.21735000000000004  1.0000
  C   C261      1.0  0.62141  0.72802  0.17781000000000002  1.0000
  C   C262      1.0  0.6622  0.71463  0.17747000000000004  1.0000
  C   C263      1.0  0.66947  0.67059  0.17812  1.0000
  C   C264      1.0  0.71457  0.6593600000000001  0.17506000000000005  1.0000
  C   C265      1.0  0.72813  0.61853  0.1738  1.0000
  Ni  Ni14      1.0  0.75061  0.74832  0.17268  1.0000
  C   C266      1.0  0.7856100000000003  0.65913  0.17020000000000005  1.0000
  C   C267      1.0  0.7714000000000001  0.61839  0.17144000000000004  1.0000
  C   C268      1.0  0.67094  0.82675  0.17837000000000006  1.0000
  H   H105      1.0  0.9075000000000002  0.70918  0.1672  1.0000
  H   H106      1.0  0.90749  0.78802  0.16724000000000003  1.0000
  H   H107      1.0  0.79235  0.9055  0.17083000000000004  1.0000
  H   H108      1.0  0.71069  0.90571  0.17497000000000004  1.0000
  N   N85       1.0  0.81153  0.7482  0.16876  1.0000
  N   N86       1.0  0.7509000000000001  0.81056  0.17274  1.0000
  N   N87       1.0  0.68972  0.74855  0.17658  1.0000
  N   N88       1.0  0.75028  0.68606  0.17264  1.0000
  H   H109      1.0  0.59418  0.78835  0.17784  1.0000
  H   H110      1.0  0.59331  0.70975  0.17787  1.0000
  H   H111      1.0  0.70863  0.59125  0.17464000000000002  1.0000
  H   H112      1.0  0.79046  0.59099  0.17056  1.0000
  C   C269      1.0  0.8387  0.71417  0.16778  1.0000
  C   C270      1.0  0.8796200000000002  0.72755  0.16737000000000002  1.0000
  C   C271      1.0  0.87964  0.76937  0.16737000000000002  1.0000
  C   C272      1.0  0.8387600000000002  0.78237  0.16777  1.0000
  C   C273      1.0  0.8309900000000002  0.82634  0.16711  1.0000
  C   C274      1.0  0.78628  0.83737  0.17027  1.0000
  C   C275      1.0  0.7728900000000001  0.87822  0.17161000000000007  1.0000
  C   C276      1.0  0.7297900000000003  0.87834  0.17403000000000002  1.0000
  C   C277      1.0  0.7158500000000002  0.83756  0.17527  1.0000
  C   C278      1.0  0.83094  0.67004  0.16714  1.0000
  C   C279      1.0  0.66282  0.78277  0.17758  1.0000
  C   C280      1.0  0.62183  0.76979  0.17785000000000006  1.0000
  C   C281      1.0  0.47606  0.37049  0.10615  1.0000
  C   C282      1.0  0.46244  0.41129  0.10494000000000002  1.0000
  C   C283      1.0  0.41727  0.42206  0.10459000000000003  1.0000
  C   C284      1.0  0.40972  0.46651  0.10047  1.0000
  C   C285      1.0  0.36896  0.47992  0.19897000000000006  1.0000
  Ni  Ni15      1.0  0.49832  0.5004  0.09769000000000003  1.0000
  C   C286      1.0  0.41011  0.53536  0.19492000000000004  1.0000
  C   C287      1.0  0.36919  0.52202  0.19643000000000005  1.0000
  C   C288      1.0  0.57883  0.42175  0.10481  1.0000
  H   H113      1.0  0.45941  0.65822  0.18858000000000005  1.0000
  H   H114      1.0  0.5412  0.6572  0.18855000000000005  1.0000
  H   H115      1.0  0.65597  0.53891  0.19555  1.0000
  H   H116      1.0  0.6553800000000002  0.46032  0.09998000000000003  1.0000
  N   N89       1.0  0.4988  0.56271  0.19194000000000003  1.0000
  N   N90       1.0  0.55949  0.49992000000000003  0.09770000000000001  1.0000
  N   N91       1.0  0.49806000000000006  0.43811  0.10344000000000003  1.0000
  N   N92       1.0  0.43711  0.50086  0.19769000000000006  1.0000
  H   H117      1.0  0.53837  0.34301  0.10683000000000001  1.0000
  H   H118      1.0  0.45662000000000014  0.34318  0.10671000000000003  1.0000
  H   H119      1.0  0.34107  0.46125  0.09996000000000002  1.0000
  H   H120      1.0  0.3415400000000001  0.54071  0.19546000000000002  1.0000
  C   C289      1.0  0.4636400000000001  0.59005  0.19042  1.0000
  C   C290      1.0  0.4782400000000001  0.63064  0.18920000000000006  1.0000
  C   C291      1.0  0.5214800000000003  0.6301  0.18914  1.0000
  C   C292      1.0  0.53472  0.58918  0.1903  1.0000
  C   C293      1.0  0.57981  0.5778  0.19058  1.0000
  C   C294      1.0  0.58706  0.53384  0.19487  1.0000
  C   C295      1.0  0.62787  0.52055  0.09647000000000003  1.0000
  C   C296      1.0  0.62759  0.47883  0.09900000000000003  1.0000
  C   C297      1.0  0.5866  0.46578  0.10055000000000001  1.0000
  C   C298      1.0  0.41804  0.57993  0.19079000000000004  1.0000
  C   C299      1.0  0.53343  0.4111  0.10507000000000002  1.0000
  C   C300      1.0  0.51928  0.37038  0.10622000000000001  1.0000
  C   C301      1.0  0.9788  0.62791  0.1564  1.0000
  C   C302      1.0  0.9646800000000002  0.58718  0.15520000000000003  1.0000
  C   C303      1.0  0.91936  0.57635  0.15482000000000004  1.0000
  C   C304      1.0  0.9116000000000002  0.5323500000000001  0.15048000000000003  1.0000
  C   C305      1.0  0.8706200000000002  0.51923  0.14889000000000002  1.0000
  Ni  Ni16      1.0  0.99985  0.49814  0.14759  1.0000
  C   C306      1.0  0.91129  0.46432  0.14472  1.0000
  C   C307      1.0  0.8704200000000002  0.47749  0.14633000000000002  1.0000
  C   C308      1.0  0.08084  0.57611  0.15494000000000002  1.0000
  H   H121      1.0  0.9579900000000002  0.34119  0.13813000000000003  1.0000
  H   H122      1.0  0.03983000000000001  0.34096  0.13807  1.0000
  H   H123      1.0  0.15695  0.45878  0.1453  1.0000
  H   H124      1.0  0.15719  0.53758  0.14999  1.0000
  N   N93       1.0  0.9996000000000002  0.43599  0.14157  1.0000
  N   N94       1.0  0.06099  0.49802  0.14760000000000004  1.0000
  N   N95       1.0  6.000000000000001e-05  0.56028  0.15360000000000001  1.0000
  N   N96       1.0  0.93874  0.4983  0.14759  1.0000
  H   H125      1.0  0.04143  0.6551200000000001  0.15693000000000004  1.0000
  H   H126      1.0  0.95969  0.65527  0.15696000000000004  1.0000
  H   H127      1.0  0.8428  0.53768  0.14987000000000003  1.0000
  H   H128      1.0  0.84239  0.45909  0.14537000000000003  1.0000
  C   C309      1.0  0.96386  0.40927  0.13996  1.0000
  C   C310      1.0  0.97747  0.36847  0.13872  1.0000
  C   C311      1.0  0.02075  0.36835  0.13868  1.0000
  C   C312      1.0  0.03500000000000002  0.40907  0.1399  1.0000
  C   C313      1.0  0.08043000000000003  0.41986  0.14024  1.0000
  C   C314      1.0  0.08816000000000003  0.46396  0.14466  1.0000
  C   C315      1.0  0.12912  0.47722  0.14629  1.0000
  C   C316      1.0  0.12925000000000006  0.51902  0.14895  1.0000
  C   C317      1.0  0.08837000000000003  0.53211  0.15055  1.0000
  C   C318      1.0  0.91866  0.42037  0.14037000000000002  1.0000
  C   C319      1.0  0.035700000000000016  0.58706  0.15524  1.0000
  C   C320      1.0  0.022030000000000008  0.62783  0.15641000000000002  1.0000
  N   N97       1.0  0.11935000000000003  0.10355  0.13605000000000003  1.0000
  N   N98       1.0  0.12726  0.14268  0.13076000000000002  1.0000
  N   N99       1.0  0.11681000000000001  0.8932  0.15875000000000003  1.0000
  N   N100      1.0  0.12316  0.85385  0.16386000000000006  1.0000
  N   N101      1.0  0.39401000000000014  0.87517  0.18727000000000005  1.0000
  N   N102      1.0  0.35366  0.87257  0.18338  1.0000
  N   N103      1.0  0.36979  0.13882  0.11270000000000002  1.0000
  N   N104      1.0  0.37684  0.09907  0.10844  1.0000
  N   N105      1.0  0.8769300000000002  0.89354  0.15845  1.0000
  N   N106      1.0  0.87085  0.85416  0.16356000000000004  1.0000
  N   N107      1.0  0.87631  0.10444000000000003  0.13634  1.0000
  N   N108      1.0  0.8688800000000002  0.1437  0.13136  1.0000
  N   N109      1.0  0.62658  0.14376  0.11392  1.0000
  N   N110      1.0  0.6195600000000002  0.10443  0.10883000000000001  1.0000
  N   N111      1.0  0.62482  0.89387  0.18706  1.0000
  N   N112      1.0  0.63118  0.8545100000000002  0.182  1.0000
  N   N113      1.0  0.6207  0.60459  0.18672000000000002  1.0000
  N   N114      1.0  0.6286300000000002  0.64371  0.18146  1.0000
  N   N115      1.0  0.6269  0.35511  0.11369000000000003  1.0000
  N   N116      1.0  0.61937  0.39441  0.10868000000000003  1.0000
  N   N117      1.0  0.8699  0.35428  0.13132000000000002  1.0000
  N   N118      1.0  0.87781  0.39344  0.13652  1.0000
  N   N119      1.0  0.87144  0.64281  0.16377  1.0000
  N   N120      1.0  0.8788600000000002  0.60356  0.15869000000000003  1.0000
  N   N121      1.0  0.37711  0.39371  0.10840000000000001  1.0000
  N   N122      1.0  0.37054  0.35402  0.11283  1.0000
  N   N123      1.0  0.37088  0.64828  0.18281000000000003  1.0000
  N   N124      1.0  0.37793  0.60852  0.18695000000000006  1.0000
  N   N125      1.0  0.12839  0.64282  0.16430000000000006  1.0000
  N   N126      1.0  0.12137  0.60351  0.15889000000000006  1.0000
  N   N127      1.0  0.12853  0.35331  0.13109  1.0000
  N   N128      1.0  0.12101000000000003  0.3926  0.13624000000000003  1.0000
  C   C321      1.0  0.9764800000000002  0.12886  0.23849000000000004  1.0000
  C   C322      1.0  0.96224  0.08814  0.23972000000000004  1.0000
  C   C323      1.0  0.9168500000000003  0.07727  0.24013000000000007  1.0000
  C   C324      1.0  0.90909  0.03324  0.24441000000000002  1.0000
  C   C325      1.0  0.8681400000000002  0.0199  0.24597  1.0000
  Ni  Ni17      1.0  0.99728  0.9991599999999999  0.24724000000000004  1.0000
  C   C326      1.0  0.90903  0.96516  0.25012000000000006  1.0000
  C   C327      1.0  0.86813  0.97809  0.24852000000000005  1.0000
  C   C328      1.0  0.07851  0.07673  0.23997000000000004  1.0000
  H   H129      1.0  0.9555800000000002  0.84221  0.25645  1.0000
  H   H130      1.0  0.03723000000000001  0.842  0.25658000000000003  1.0000
  H   H131      1.0  0.15385  0.95907  0.24922000000000002  1.0000
  H   H132      1.0  0.15471  0.03773  0.24487000000000006  1.0000
  N   N129      1.0  0.997  0.9371  0.25319  1.0000
  N   N130      1.0  0.058270000000000016  0.9989200000000001  0.24723  1.0000
  N   N131      1.0  0.99761  0.06124000000000002  0.24129000000000006  1.0000
  N   N132      1.0  0.93627  0.9992700000000001  0.24726  1.0000
  H   H133      1.0  0.03926  0.15599  0.23786000000000004  1.0000
  H   H134      1.0  0.95741  0.15625  0.23791000000000004  1.0000
  H   H135      1.0  0.8402700000000002  0.03827  0.24496000000000004  1.0000
  H   H136      1.0  0.84029  0.95942  0.24942000000000006  1.0000
  C   C329      1.0  0.96158  0.9103  0.25477  1.0000
  C   C330      1.0  0.97502  0.8694800000000003  0.25595000000000007  1.0000
  C   C331      1.0  0.01813  0.86936  0.25601000000000007  1.0000
  C   C332      1.0  0.03210000000000001  0.91013  0.25484  1.0000
  C   C333      1.0  0.07705  0.92089  0.25455  1.0000
  C   C334      1.0  0.08519  0.96478  0.25012000000000006  1.0000
  C   C335      1.0  0.1262  0.97769  0.24844  1.0000
  C   C336      1.0  0.12661  0.01944  0.24588  1.0000
  C   C337      1.0  0.08581000000000003  0.03278  0.24431  1.0000
  C   C338      1.0  0.91682  0.92128  0.25443  1.0000
  C   C339      1.0  0.03335  0.08792  0.23965000000000006  1.0000
  C   C340      1.0  0.01976  0.12873  0.23846000000000006  1.0000
  C   C341      1.0  0.11802000000000003  0.72659  0.26798  1.0000
  C   C342      1.0  0.15935  0.71473  0.26842  1.0000
  C   C343      1.0  0.16835  0.67107  0.26777000000000006  1.0000
  C   C344      1.0  0.21396  0.66158  0.27097000000000004  1.0000
  C   C345      1.0  0.22893000000000002  0.62128  0.27222  1.0000
  Ni  Ni18      1.0  0.24667  0.75178  0.27358  1.0000
  C   C346      1.0  0.2850600000000001  0.66388  0.27603000000000005  1.0000
  C   C347      1.0  0.27217  0.62268  0.27467  1.0000
  C   C348      1.0  0.16349  0.82692  0.26758  1.0000
  H   H137      1.0  0.40524  0.71897  0.1802  1.0000
  H   H138      1.0  0.4022  0.79892  0.18016000000000004  1.0000
  H   H139      1.0  0.28048  0.9103300000000002  0.27567  1.0000
  H   H140      1.0  0.19942  0.90688  0.27158000000000004  1.0000
  N   N133      1.0  0.3082200000000001  0.75461  0.27798  1.0000
  N   N134      1.0  0.24384000000000006  0.81353  0.27343  1.0000
  N   N135      1.0  0.18558  0.74962  0.26936  1.0000
  N   N136      1.0  0.24879  0.68956  0.27356  1.0000
  H   H141      1.0  0.08838  0.78599  0.26767  1.0000
  H   H142      1.0  0.09065000000000002  0.70729  0.26792  1.0000
  H   H143      1.0  0.21038  0.59333  0.27125  1.0000
  H   H144      1.0  0.29211  0.59593  0.27553  1.0000
  C   C349      1.0  0.33657  0.72118  0.27908000000000005  1.0000
  C   C350      1.0  0.3768700000000001  0.7366  0.27985000000000004  1.0000
  C   C351      1.0  0.37532  0.77902  0.27993  1.0000
  C   C352      1.0  0.3340800000000001  0.79056  0.27928  1.0000
  C   C353      1.0  0.32285  0.83458  0.27947  1.0000
  C   C354      1.0  0.27763  0.84182  0.27593  1.0000
  C   C355      1.0  0.26239  0.88208  0.27464  1.0000
  C   C356      1.0  0.21961000000000006  0.8804  0.27224  1.0000
  C   C357      1.0  0.20774  0.83914  0.27086  1.0000
  C   C358      1.0  0.33017  0.676  0.27937000000000006  1.0000
  C   C359      1.0  0.15717  0.78272  0.2682800000000001  1.0000
  C   C360      1.0  0.11672000000000003  0.76832  0.26788  1.0000
  C   C361      1.0  0.4854  0.86563  0.29022000000000003  1.0000
  C   C362      1.0  0.47014  0.9058700000000002  0.29124  1.0000
  C   C363      1.0  0.42487  0.91309  0.29117  1.0000
  C   C364      1.0  0.4136200000000001  0.95702  0.29502  1.0000
  C   C365      1.0  0.3723700000000001  0.96852  0.2965400000000001  1.0000
  Ni  Ni19      1.0  0.50116  0.99575  0.19799  1.0000
  C   C366      1.0  0.4111500000000001  0.02629  0.30062  1.0000
  C   C367      1.0  0.3708300000000001  0.01091  0.29915  1.0000
  C   C368      1.0  0.58445  0.92074  0.19105000000000005  1.0000
  H   H145      1.0  0.45577  0.15138  0.30680000000000013  1.0000
  H   H146      1.0  0.5375200000000002  0.15397  0.20698000000000005  1.0000
  H   H147      1.0  0.65732  0.04026  0.19982000000000003  1.0000
  H   H148      1.0  0.65959  0.96154  0.19552  1.0000
  N   N137      1.0  0.49905  0.057790000000000015  0.3036  1.0000
  N   N138      1.0  0.56236  0.99789  0.19798  1.0000
  N   N139      1.0  0.50399  0.93415  0.19252000000000005  1.0000
  N   N140      1.0  0.43951  0.99292  0.2978600000000001  1.0000
  H   H149      1.0  0.54836  0.84086  0.18977000000000005  1.0000
  H   H150      1.0  0.46731  0.83738  0.2897800000000001  1.0000
  H   H151      1.0  0.34549  0.94861  0.29572  1.0000
  H   H152      1.0  0.34247  0.028550000000000002  0.30027  1.0000
  C   C369      1.0  0.4627500000000001  0.08345  0.30506000000000005  1.0000
  C   C370      1.0  0.47569  0.12463  0.30626  1.0000
  C   C371      1.0  0.51895  0.12603  0.20636000000000004  1.0000
  C   C372      1.0  0.53394  0.08575  0.20524000000000006  1.0000
  C   C373      1.0  0.57959  0.07629  0.20496000000000006  1.0000
  C   C374      1.0  0.5886  0.03272  0.20071  1.0000
  C   C375      1.0  0.62995  0.02093  0.19906000000000004  1.0000
  C   C376      1.0  0.63126  0.97922  0.19657  1.0000
  C   C377      1.0  0.5907800000000002  0.96485  0.19514  1.0000
  C   C378      1.0  0.4175800000000001  0.07139  0.3047  1.0000
  C   C379      1.0  0.5401400000000002  0.90856  0.19099000000000005  1.0000
  C   C380      1.0  0.5282000000000002  0.86734  0.19012000000000007  1.0000
  C   C381      1.0  0.12006000000000003  0.22693  0.22719000000000006  1.0000
  C   C382      1.0  0.16088  0.21362  0.22677000000000005  1.0000
  C   C383      1.0  0.16813  0.16956  0.22738000000000005  1.0000
  C   C384      1.0  0.21317  0.15816  0.22425000000000006  1.0000
  C   C385      1.0  0.22638  0.11722  0.22295000000000004  1.0000
  Ni  Ni20      1.0  0.24949  0.24712  0.22182  1.0000
  C   C386      1.0  0.28417  0.15731000000000006  0.21931000000000006  1.0000
  C   C387      1.0  0.2696000000000001  0.1167  0.22055000000000005  1.0000
  C   C388      1.0  0.16906  0.3259  0.22759000000000001  1.0000
  H   H153      1.0  0.4061800000000001  0.20686000000000002  0.21584000000000003  1.0000
  H   H154      1.0  0.40661  0.28631  0.21587000000000003  1.0000
  H   H155      1.0  0.29115000000000013  0.40457  0.2199  1.0000
  H   H156      1.0  0.20942000000000005  0.40472  0.22412000000000007  1.0000
  N   N141      1.0  0.31063  0.24669  0.21774000000000004  1.0000
  N   N142      1.0  0.24974  0.30957  0.22192  1.0000
  N   N143      1.0  0.18841000000000005  0.24758  0.22584000000000007  1.0000
  N   N144      1.0  0.24905  0.18466  0.22178000000000006  1.0000
  H   H157      1.0  0.09254  0.28717  0.22743000000000002  1.0000
  H   H158      1.0  0.09199000000000003  0.2086  0.22732000000000005  1.0000
  H   H159      1.0  0.20666000000000007  0.09011  0.22377  1.0000
  H   H160      1.0  0.28843  0.08911  0.21957  1.0000
  C   C389      1.0  0.33762  0.21214  0.21666  1.0000
  C   C390      1.0  0.37852  0.22553  0.21613000000000004  1.0000
  C   C391      1.0  0.37874  0.26765  0.21615  1.0000
  C   C392      1.0  0.3379700000000001  0.28108  0.21672  1.0000
  C   C393      1.0  0.33043  0.32562  0.21626000000000006  1.0000
  C   C394      1.0  0.28532000000000013  0.33643  0.21947000000000005  1.0000
  C   C395      1.0  0.27172  0.37724  0.22078000000000006  1.0000
  C   C396      1.0  0.22852000000000006  0.37734  0.2232  1.0000
  C   C397      1.0  0.21441000000000004  0.3366  0.22445  1.0000
  C   C398      1.0  0.32971  0.16748  0.21614000000000005  1.0000
  C   C399      1.0  0.16131  0.28178  0.22687000000000004  1.0000
  C   C400      1.0  0.12034000000000003  0.26868  0.22724000000000003  1.0000
  C   C401      1.0  0.61871  0.22846  0.21738000000000005  1.0000
  C   C402      1.0  0.6595800000000003  0.21533  0.21781000000000006  1.0000
  C   C403      1.0  0.66709  0.17124  0.21722000000000005  1.0000
  C   C404      1.0  0.71219  0.16023  0.22029  1.0000
  C   C405      1.0  0.7258000000000002  0.11943  0.22158000000000005  1.0000
  Ni  Ni21      1.0  0.74799  0.24935  0.22259  1.0000
  C   C406      1.0  0.7831200000000003  0.16011  0.22506  1.0000
  C   C407      1.0  0.76902  0.11935  0.22389000000000006  1.0000
  C   C408      1.0  0.66749  0.3278  0.21707000000000007  1.0000
  H   H161      1.0  0.90493  0.20982  0.22794  1.0000
  H   H162      1.0  0.9053300000000002  0.2884  0.2279  1.0000
  H   H163      1.0  0.7898400000000002  0.40654  0.22456000000000007  1.0000
  H   H164      1.0  0.70802  0.40677  0.22049000000000005  1.0000
  N   N145      1.0  0.80902  0.24919  0.22643  1.0000
  N   N146      1.0  0.7482400000000002  0.31168  0.22255000000000005  1.0000
  N   N147      1.0  0.68694  0.24948  0.21874  1.0000
  N   N148      1.0  0.74778  0.18703  0.22265  1.0000
  H   H165      1.0  0.59098  0.28869  0.31715000000000004  1.0000
  H   H166      1.0  0.59075  0.20989  0.31719  1.0000
  H   H167      1.0  0.70639  0.09213000000000003  0.22088000000000005  1.0000
  H   H168      1.0  0.7881300000000002  0.09198  0.2248  1.0000
  C   C409      1.0  0.8361400000000002  0.21507  0.22739000000000006  1.0000
  C   C410      1.0  0.87711  0.22825  0.22777000000000006  1.0000
  C   C411      1.0  0.8773  0.27001  0.22775  1.0000
  C   C412      1.0  0.8364500000000002  0.28323  0.22736  1.0000
  C   C413      1.0  0.82909  0.32728  0.22801000000000002  1.0000
  C   C414      1.0  0.78394  0.33843  0.22497000000000003  1.0000
  C   C415      1.0  0.77036  0.37925  0.22372000000000003  1.0000
  C   C416      1.0  0.7270900000000002  0.37938  0.22136000000000006  1.0000
  C   C417      1.0  0.7128800000000002  0.33863  0.22013000000000002  1.0000
  C   C418      1.0  0.8284000000000002  0.17097  0.22805000000000006  1.0000
  C   C419      1.0  0.65978  0.2836  0.21774000000000004  1.0000
  C   C420      1.0  0.61883  0.27027  0.3173500000000001  1.0000
  C   C421      1.0  0.62141  0.72801  0.27781  1.0000
  C   C422      1.0  0.66219  0.71461  0.27747000000000005  1.0000
  C   C423      1.0  0.66947  0.67058  0.27812  1.0000
  C   C424      1.0  0.71457  0.65934  0.27506  1.0000
  C   C425      1.0  0.72813  0.61851  0.2738  1.0000
  Ni  Ni22      1.0  0.75061  0.7483000000000002  0.27268  1.0000
  C   C426      1.0  0.7856100000000003  0.65912  0.27020000000000005  1.0000
  C   C427      1.0  0.7714  0.61837  0.27144  1.0000
  C   C428      1.0  0.6709300000000002  0.82673  0.27837000000000006  1.0000
  H   H169      1.0  0.9075000000000002  0.70917  0.2672  1.0000
  H   H170      1.0  0.90748  0.78801  0.26724  1.0000
  H   H171      1.0  0.79234  0.90548  0.27083  1.0000
  H   H172      1.0  0.71069  0.9057  0.27497000000000005  1.0000
  N   N149      1.0  0.8115200000000002  0.74818  0.26876000000000005  1.0000
  N   N150      1.0  0.7509000000000001  0.81054  0.27274  1.0000
  N   N151      1.0  0.68972  0.74854  0.27658000000000005  1.0000
  N   N152      1.0  0.75028  0.68604  0.27264000000000005  1.0000
  H   H173      1.0  0.59418  0.78834  0.27784  1.0000
  H   H174      1.0  0.59331  0.70973  0.27786000000000005  1.0000
  H   H175      1.0  0.70863  0.59123  0.27464  1.0000
  H   H176      1.0  0.79046  0.59098  0.2705600000000001  1.0000
  C   C429      1.0  0.8386900000000003  0.71415  0.26778  1.0000
  C   C430      1.0  0.8796200000000002  0.72754  0.26737  1.0000
  C   C431      1.0  0.87964  0.76936  0.26737  1.0000
  C   C432      1.0  0.8387600000000002  0.78236  0.26777000000000006  1.0000
  C   C433      1.0  0.8309900000000002  0.82633  0.26711  1.0000
  C   C434      1.0  0.78628  0.83736  0.27027000000000007  1.0000
  C   C435      1.0  0.7728900000000001  0.87821  0.27162  1.0000
  C   C436      1.0  0.7297900000000003  0.87833  0.27403  1.0000
  C   C437      1.0  0.71584  0.83754  0.27527000000000007  1.0000
  C   C438      1.0  0.83094  0.67003  0.26714  1.0000
  C   C439      1.0  0.66282  0.78275  0.27758  1.0000
  C   C440      1.0  0.62183  0.76977  0.27785  1.0000
  C   C441      1.0  0.4760900000000001  0.37051  0.20615  1.0000
  C   C442      1.0  0.4624700000000001  0.4113  0.20494  1.0000
  C   C443      1.0  0.4173  0.42207  0.20459000000000002  1.0000
  C   C444      1.0  0.4097500000000001  0.46653  0.20047000000000006  1.0000
  C   C445      1.0  0.36895  0.47991  0.29897000000000007  1.0000
  Ni  Ni23      1.0  0.49835000000000007  0.5004200000000002  0.19769000000000006  1.0000
  C   C446      1.0  0.41009  0.53535  0.29492  1.0000
  C   C447      1.0  0.36918  0.52201  0.29643  1.0000
  C   C448      1.0  0.57886  0.42177  0.20481  1.0000
  H   H177      1.0  0.4594  0.6582100000000002  0.28858  1.0000
  H   H178      1.0  0.5411900000000002  0.65718  0.28855000000000003  1.0000
  H   H179      1.0  0.65595  0.53889  0.29555  1.0000
  H   H180      1.0  0.6554  0.46034  0.19997  1.0000
  N   N153      1.0  0.49878000000000006  0.56269  0.29194  1.0000
  N   N154      1.0  0.55952  0.49994  0.1977  1.0000
  N   N155      1.0  0.49808  0.43813  0.20344000000000004  1.0000
  N   N156      1.0  0.4371000000000001  0.50085  0.29769000000000007  1.0000
  H   H181      1.0  0.5384  0.34303  0.20683  1.0000
  H   H182      1.0  0.45665  0.34319  0.20671000000000003  1.0000
  H   H183      1.0  0.34109  0.4612600000000001  0.19996000000000005  1.0000
  H   H184      1.0  0.34153  0.5407  0.29546  1.0000
  C   C449      1.0  0.46362  0.59003  0.29042000000000007  1.0000
  C   C450      1.0  0.47823  0.63062  0.28920000000000007  1.0000
  C   C451      1.0  0.52147  0.6300800000000002  0.28914000000000006  1.0000
  C   C452      1.0  0.53471  0.58916  0.2903  1.0000
  C   C453      1.0  0.5798  0.57779  0.29058000000000006  1.0000
  C   C454      1.0  0.58705  0.53382  0.2948700000000001  1.0000
  C   C455      1.0  0.6279  0.52057  0.19647000000000006  1.0000
  C   C456      1.0  0.62762  0.47884  0.19900000000000007  1.0000
  C   C457      1.0  0.58662  0.4658  0.20055  1.0000
  C   C458      1.0  0.4180300000000001  0.57992  0.29079  1.0000
  C   C459      1.0  0.53346  0.41112  0.20507  1.0000
  C   C460      1.0  0.5193  0.3704  0.20622  1.0000
  C   C461      1.0  0.97881  0.62791  0.2564000000000001  1.0000
  C   C462      1.0  0.9647  0.58717  0.2552  1.0000
  C   C463      1.0  0.9193700000000002  0.57635  0.25482000000000005  1.0000
  C   C464      1.0  0.91161  0.5323500000000001  0.25048  1.0000
  C   C465      1.0  0.87064  0.51922  0.24889  1.0000
  Ni  Ni24      1.0  0.99987  0.49814  0.24759000000000006  1.0000
  C   C466      1.0  0.9113  0.46432  0.24472  1.0000
  C   C467      1.0  0.87044  0.47749  0.24633  1.0000
  C   C468      1.0  0.08085000000000003  0.57611  0.25494  1.0000
  H   H185      1.0  0.95801  0.34119  0.23813  1.0000
  H   H186      1.0  0.03984  0.34096  0.23807000000000003  1.0000
  H   H187      1.0  0.15697  0.45879  0.2453  1.0000
  H   H188      1.0  0.15721000000000004  0.53759  0.24999000000000005  1.0000
  N   N157      1.0  0.99962  0.43599  0.24157000000000006  1.0000
  N   N158      1.0  0.061010000000000016  0.49802  0.24760000000000004  1.0000
  N   N159      1.0  7.000000000000008e-05  0.56028  0.2536  1.0000
  N   N160      1.0  0.93875  0.4983  0.24759000000000006  1.0000
  H   H189      1.0  0.04143  0.6551200000000001  0.25693  1.0000
  H   H190      1.0  0.9597  0.65527  0.25696  1.0000
  H   H191      1.0  0.8428200000000002  0.53767  0.24987000000000006  1.0000
  H   H192      1.0  0.84241  0.45908  0.24537  1.0000
  C   C469      1.0  0.9638800000000002  0.40927  0.23996000000000003  1.0000
  C   C470      1.0  0.9774900000000002  0.36847  0.23872000000000004  1.0000
  C   C471      1.0  0.02077  0.36834  0.23868000000000003  1.0000
  C   C472      1.0  0.03502  0.40907  0.23990000000000006  1.0000
  C   C473      1.0  0.08045  0.41987  0.24024  1.0000
  C   C474      1.0  0.08818  0.46396  0.24466  1.0000
  C   C475      1.0  0.12913  0.47722  0.24629000000000006  1.0000
  C   C476      1.0  0.12926  0.51902  0.24895000000000006  1.0000
  C   C477      1.0  0.08838  0.53211  0.25055  1.0000
  C   C478      1.0  0.91868  0.42037  0.24037  1.0000
  C   C479      1.0  0.03571  0.58706  0.25524  1.0000
  C   C480      1.0  0.022040000000000008  0.62783  0.25641  1.0000
  N   N161      1.0  0.11936000000000002  0.10355  0.23605  1.0000
  N   N162      1.0  0.12727000000000002  0.14268  0.23076  1.0000
  N   N163      1.0  0.11682000000000003  0.8932  0.25875  1.0000
  N   N164      1.0  0.12316  0.85385  0.26386000000000004  1.0000
  N   N165      1.0  0.39401000000000014  0.87516  0.28727  1.0000
  N   N166      1.0  0.35366  0.87256  0.28337000000000007  1.0000
  N   N167      1.0  0.36981  0.13883  0.21270000000000003  1.0000
  N   N168      1.0  0.37685  0.09908000000000003  0.20844000000000004  1.0000
  N   N169      1.0  0.8769300000000002  0.89353  0.25845000000000007  1.0000
  N   N170      1.0  0.87085  0.85415  0.26356  1.0000
  N   N171      1.0  0.87632  0.10444000000000003  0.23634000000000002  1.0000
  N   N172      1.0  0.86889  0.1437  0.23136000000000007  1.0000
  N   N173      1.0  0.6266000000000003  0.14378  0.21392000000000005  1.0000
  N   N174      1.0  0.61957  0.10445  0.20883000000000004  1.0000
  N   N175      1.0  0.6248100000000002  0.89385  0.28706  1.0000
  N   N176      1.0  0.63118  0.8545  0.282  1.0000
  N   N177      1.0  0.62069  0.60457  0.28672  1.0000
  N   N178      1.0  0.62862  0.6437  0.28146  1.0000
  N   N179      1.0  0.62693  0.35513  0.21369000000000002  1.0000
  N   N180      1.0  0.6194  0.39443  0.20868000000000006  1.0000
  N   N181      1.0  0.8699200000000002  0.35428  0.23132000000000005  1.0000
  N   N182      1.0  0.87783  0.39344  0.23652000000000006  1.0000
  N   N183      1.0  0.87145  0.6428  0.26377000000000006  1.0000
  N   N184      1.0  0.87887  0.60355  0.25869  1.0000
  N   N185      1.0  0.37714  0.39373  0.2084  1.0000
  N   N186      1.0  0.37056  0.35403  0.21282  1.0000
  N   N187      1.0  0.37088  0.64827  0.28281  1.0000
  N   N188      1.0  0.3779200000000001  0.60851  0.28695000000000004  1.0000
  N   N189      1.0  0.12840000000000004  0.64282  0.26430000000000003  1.0000
  N   N190      1.0  0.12137  0.60351  0.2589000000000001  1.0000
  N   N191      1.0  0.12855  0.35331  0.23109000000000005  1.0000
  N   N192      1.0  0.12103  0.3926  0.23624  1.0000
  C   C481      1.0  0.97647  0.12886  0.33849000000000007  1.0000
  C   C482      1.0  0.9622300000000003  0.08814  0.33972  1.0000
  C   C483      1.0  0.9168500000000003  0.07727  0.34013  1.0000
  C   C484      1.0  0.90908  0.03324  0.34441  1.0000
  C   C485      1.0  0.8681400000000002  0.0199  0.34597  1.0000
  Ni  Ni25      1.0  0.99728  0.9991599999999999  0.3472400000000001  1.0000
  C   C486      1.0  0.90902  0.96516  0.3501200000000001  1.0000
  C   C487      1.0  0.86812  0.97809  0.3485200000000001  1.0000
  C   C488      1.0  0.07850000000000003  0.07672  0.3399700000000001  1.0000
  H   H193      1.0  0.9555700000000003  0.84221  0.3564500000000001  1.0000
  H   H194      1.0  0.03723000000000001  0.842  0.35658  1.0000
  H   H195      1.0  0.15384000000000006  0.95907  0.3492200000000001  1.0000
  H   H196      1.0  0.1547  0.03773  0.34487  1.0000
  N   N193      1.0  0.997  0.9371  0.35319  1.0000
  N   N194      1.0  0.05826  0.9989200000000001  0.34723  1.0000
  N   N195      1.0  0.9976  0.06124000000000002  0.34129  1.0000
  N   N196      1.0  0.93627  0.9992700000000001  0.3472600000000001  1.0000
  H   H197      1.0  0.039250000000000014  0.15599  0.33786  1.0000
  H   H198      1.0  0.95741  0.15625  0.33791000000000004  1.0000
  H   H199      1.0  0.8402700000000002  0.03827  0.34496  1.0000
  H   H200      1.0  0.84028  0.95942  0.3494200000000001  1.0000
  C   C489      1.0  0.96158  0.9103  0.3547700000000001  1.0000
  C   C490      1.0  0.9750100000000003  0.8694800000000003  0.35595  1.0000
  C   C491      1.0  0.01813  0.86936  0.35601  1.0000
  C   C492      1.0  0.03209  0.91013  0.35484  1.0000
  C   C493      1.0  0.07704  0.92089  0.35455  1.0000
  C   C494      1.0  0.08518  0.96478  0.3501200000000001  1.0000
  C   C495      1.0  0.1262  0.97768  0.34844  1.0000
  C   C496      1.0  0.12661  0.01944  0.34588  1.0000
  C   C497      1.0  0.0858  0.03278  0.34431  1.0000
  C   C498      1.0  0.9168100000000002  0.92128  0.35443  1.0000
  C   C499      1.0  0.03334  0.08791  0.3396500000000001  1.0000
  C   C500      1.0  0.01976  0.12872  0.3384600000000001  1.0000
  C   C501      1.0  0.11802000000000003  0.72659  0.36798000000000003  1.0000
  C   C502      1.0  0.15935  0.71474  0.36842  1.0000
  C   C503      1.0  0.16835  0.67107  0.3677700000000001  1.0000
  C   C504      1.0  0.21396  0.66159  0.3709700000000001  1.0000
  C   C505      1.0  0.22893000000000002  0.62129  0.37222000000000005  1.0000
  Ni  Ni26      1.0  0.24667  0.75178  0.37358000000000013  1.0000
  C   C506      1.0  0.28506  0.66389  0.37603000000000003  1.0000
  C   C507      1.0  0.27217  0.62269  0.37467  1.0000
  C   C508      1.0  0.16349  0.82692  0.36758  1.0000
  H   H201      1.0  0.40524  0.71896  0.28020000000000006  1.0000
  H   H202      1.0  0.4022  0.7989100000000002  0.28017  1.0000
  H   H203      1.0  0.28048  0.91034  0.3756700000000001  1.0000
  H   H204      1.0  0.19941  0.90688  0.3715800000000001  1.0000
  N   N197      1.0  0.3082200000000001  0.75461  0.37798000000000004  1.0000
  N   N198      1.0  0.24384000000000006  0.81354  0.3734300000000001  1.0000
  N   N199      1.0  0.18557  0.74962  0.36936000000000013  1.0000
  N   N200      1.0  0.24879  0.68956  0.37356000000000006  1.0000
  H   H205      1.0  0.08837000000000003  0.78599  0.36767  1.0000
  H   H206      1.0  0.09065000000000002  0.70729  0.36792  1.0000
  H   H207      1.0  0.21038  0.59334  0.37125000000000014  1.0000
  H   H208      1.0  0.2921  0.59594  0.3755300000000001  1.0000
  C   C509      1.0  0.33656  0.72118  0.3790800000000001  1.0000
  C   C510      1.0  0.37686  0.73661  0.37985  1.0000
  C   C511      1.0  0.37532  0.77902  0.37993  1.0000
  C   C512      1.0  0.3340800000000001  0.79057  0.3792800000000001  1.0000
  C   C513      1.0  0.32285  0.83458  0.37947  1.0000
  C   C514      1.0  0.27763  0.84183  0.3759300000000001  1.0000
  C   C515      1.0  0.26239  0.88209  0.37464  1.0000
  C   C516      1.0  0.21961000000000006  0.8804  0.3722400000000001  1.0000
  C   C517      1.0  0.20773000000000005  0.83915  0.37086  1.0000
  C   C518      1.0  0.33017  0.67601  0.3793700000000001  1.0000
  C   C519      1.0  0.15717  0.78273  0.36828  1.0000
  C   C520      1.0  0.11671  0.76832  0.3678800000000001  1.0000
  C   C521      1.0  0.4854  0.8656400000000001  0.39023  1.0000
  C   C522      1.0  0.47014  0.90588  0.39124000000000003  1.0000
  C   C523      1.0  0.42487  0.9131  0.39117000000000013  1.0000
  C   C524      1.0  0.4136200000000001  0.95703  0.39502000000000004  1.0000
  C   C525      1.0  0.37236  0.96853  0.39654  1.0000
  Ni  Ni27      1.0  0.50116  0.99573  0.29799  1.0000
  C   C526      1.0  0.4111500000000001  0.0263  0.4006200000000001  1.0000
  C   C527      1.0  0.3708300000000001  0.01092  0.39915  1.0000
  C   C528      1.0  0.5844400000000002  0.92073  0.29105000000000003  1.0000
  H   H209      1.0  0.4557600000000001  0.15139  0.4068  1.0000
  H   H210      1.0  0.53751  0.15395  0.30698000000000003  1.0000
  H   H211      1.0  0.65732  0.04024  0.29982  1.0000
  H   H212      1.0  0.65959  0.96153  0.2955200000000001  1.0000
  N   N201      1.0  0.49905  0.0578  0.4036  1.0000
  N   N202      1.0  0.56236  0.9978799999999999  0.2979800000000001  1.0000
  N   N203      1.0  0.50398  0.93414  0.29252  1.0000
  N   N204      1.0  0.4395000000000001  0.99293  0.3978600000000001  1.0000
  H   H213      1.0  0.54836  0.84085  0.28977  1.0000
  H   H214      1.0  0.46731  0.83739  0.38978000000000007  1.0000
  H   H215      1.0  0.34549  0.9486200000000002  0.39572  1.0000
  H   H216      1.0  0.34247  0.02856  0.4002700000000001  1.0000
  C   C529      1.0  0.4627500000000001  0.08346  0.40506  1.0000
  C   C530      1.0  0.47569  0.12463999999999999  0.4062600000000001  1.0000
  C   C531      1.0  0.51895  0.12602  0.30636  1.0000
  C   C532      1.0  0.53393  0.08573  0.30523  1.0000
  C   C533      1.0  0.57958  0.07627  0.30496000000000006  1.0000
  C   C534      1.0  0.5886  0.0327  0.30071  1.0000
  C   C535      1.0  0.62995  0.02092  0.29906000000000005  1.0000
  C   C536      1.0  0.63125  0.9792  0.29657000000000006  1.0000
  C   C537      1.0  0.5907800000000002  0.96484  0.29514  1.0000
  C   C538      1.0  0.4175800000000001  0.07139  0.40470000000000006  1.0000
  C   C539      1.0  0.54013  0.90855  0.29099  1.0000
  C   C540      1.0  0.5282000000000002  0.86732  0.29012  1.0000
  C   C541      1.0  0.12005  0.22693  0.32719  1.0000
  C   C542      1.0  0.16087000000000007  0.21361  0.3267700000000001  1.0000
  C   C543      1.0  0.16812  0.16955  0.3273800000000001  1.0000
  C   C544      1.0  0.21316  0.15815  0.32425  1.0000
  C   C545      1.0  0.22637  0.11721  0.32295  1.0000
  Ni  Ni28      1.0  0.24947000000000003  0.24711  0.3218200000000001  1.0000
  C   C546      1.0  0.28416  0.1573  0.31931  1.0000
  C   C547      1.0  0.26959  0.11669  0.32055000000000006  1.0000
  C   C548      1.0  0.16905  0.3259  0.3276  1.0000
  H   H217      1.0  0.40617  0.20685  0.31584000000000007  1.0000
  H   H218      1.0  0.40660000000000013  0.2863  0.31587000000000004  1.0000
  H   H219      1.0  0.29114  0.40456  0.31990000000000013  1.0000
  H   H220      1.0  0.20941000000000007  0.4047100000000001  0.32412000000000013  1.0000
  N   N205      1.0  0.31061  0.24668  0.31774  1.0000
  N   N206      1.0  0.24973  0.30956  0.32192000000000004  1.0000
  N   N207      1.0  0.18839  0.24757  0.3258400000000001  1.0000
  N   N208      1.0  0.24903000000000003  0.18465  0.32178  1.0000
  H   H221      1.0  0.09253  0.28717  0.32743  1.0000
  H   H222      1.0  0.09198  0.2086  0.3273200000000001  1.0000
  H   H223      1.0  0.20665  0.0901  0.3237700000000001  1.0000
  H   H224      1.0  0.28841  0.0891  0.31957  1.0000
  C   C549      1.0  0.33761  0.21212  0.31666  1.0000
  C   C550      1.0  0.37851  0.22552  0.3161300000000001  1.0000
  C   C551      1.0  0.37873  0.26764  0.31615  1.0000
  C   C552      1.0  0.33796  0.28107  0.31672  1.0000
  C   C553      1.0  0.3304200000000001  0.32561  0.31626  1.0000
  C   C554      1.0  0.2853  0.33642  0.3194700000000001  1.0000
  C   C555      1.0  0.2717000000000001  0.37723  0.3207800000000001  1.0000
  C   C556      1.0  0.22851000000000005  0.3773300000000001  0.32320000000000004  1.0000
  C   C557      1.0  0.21440000000000006  0.33659  0.32445  1.0000
  C   C558      1.0  0.3297  0.16747  0.31614  1.0000
  C   C559      1.0  0.1613  0.28177  0.32687  1.0000
  C   C560      1.0  0.12032  0.2686700000000001  0.32724000000000003  1.0000
  C   C561      1.0  0.6187  0.22845  0.31738000000000005  1.0000
  C   C562      1.0  0.65957  0.21531  0.3178100000000001  1.0000
  C   C563      1.0  0.6670800000000002  0.17122  0.31722  1.0000
  C   C564      1.0  0.7121800000000003  0.16022  0.3202900000000001  1.0000
  C   C565      1.0  0.7258000000000002  0.11942  0.32158  1.0000
  Ni  Ni29      1.0  0.74798  0.24934  0.32259000000000004  1.0000
  C   C566      1.0  0.78311  0.1601  0.32506  1.0000
  C   C567      1.0  0.76902  0.11934  0.3238900000000001  1.0000
  C   C568      1.0  0.66748  0.3277800000000001  0.31707  1.0000
  H   H225      1.0  0.90492  0.20982  0.32794  1.0000
  H   H226      1.0  0.90532  0.2884  0.32790000000000014  1.0000
  H   H227      1.0  0.78983  0.40653  0.32456000000000007  1.0000
  H   H228      1.0  0.7080100000000003  0.40676  0.3204900000000001  1.0000
  N   N209      1.0  0.80901  0.24918  0.32643  1.0000
  N   N210      1.0  0.74822  0.31167  0.3225500000000001  1.0000
  N   N211      1.0  0.6869300000000003  0.24946999999999997  0.31874000000000013  1.0000
  N   N212      1.0  0.74777  0.18703  0.32265  1.0000
  H   H229      1.0  0.5909900000000002  0.28871  0.41715  1.0000
  H   H230      1.0  0.59075  0.20991  0.4171900000000001  1.0000
  H   H231      1.0  0.70639  0.09212  0.32087000000000004  1.0000
  H   H232      1.0  0.7881300000000002  0.09198  0.32480000000000003  1.0000
  C   C569      1.0  0.8361300000000003  0.21507  0.32739  1.0000
  C   C570      1.0  0.87709  0.22825  0.32777  1.0000
  C   C571      1.0  0.87729  0.27  0.32775  1.0000
  C   C572      1.0  0.83644  0.28323  0.32736  1.0000
  C   C573      1.0  0.82908  0.32728  0.32801000000000013  1.0000
  C   C574      1.0  0.7839300000000002  0.33842  0.32496000000000014  1.0000
  C   C575      1.0  0.7703400000000002  0.37924  0.32372000000000006  1.0000
  C   C576      1.0  0.72708  0.37936  0.3213600000000001  1.0000
  C   C577      1.0  0.71286  0.33862  0.32013000000000014  1.0000
  C   C578      1.0  0.82839  0.17097  0.32805000000000006  1.0000
  C   C579      1.0  0.65977  0.28359  0.31774  1.0000
  C   C580      1.0  0.61883  0.27028  0.41735000000000005  1.0000
  C   C581      1.0  0.62141  0.72802  0.37781  1.0000
  C   C582      1.0  0.66219  0.71462  0.37747000000000014  1.0000
  C   C583      1.0  0.66947  0.67059  0.37812000000000007  1.0000
  C   C584      1.0  0.71457  0.65935  0.3750600000000001  1.0000
  C   C585      1.0  0.72812  0.61852  0.3738  1.0000
  Ni  Ni30      1.0  0.75061  0.74831  0.3726800000000001  1.0000
  C   C586      1.0  0.7856  0.65913  0.3702  1.0000
  C   C587      1.0  0.7713900000000002  0.61838  0.37144  1.0000
  C   C588      1.0  0.6709300000000002  0.82675  0.37837  1.0000
  H   H233      1.0  0.9075000000000002  0.70918  0.3672  1.0000
  H   H234      1.0  0.90748  0.78801  0.3672400000000001  1.0000
  H   H235      1.0  0.79234  0.90549  0.37083  1.0000
  H   H236      1.0  0.71069  0.90571  0.37497000000000014  1.0000
  N   N213      1.0  0.8115200000000002  0.74819  0.36876000000000003  1.0000
  N   N214      1.0  0.75089  0.81055  0.37274000000000007  1.0000
  N   N215      1.0  0.68972  0.74855  0.3765800000000001  1.0000
  N   N216      1.0  0.75028  0.68605  0.37264000000000014  1.0000
  H   H237      1.0  0.59418  0.78835  0.37784  1.0000
  H   H238      1.0  0.5933000000000003  0.70974  0.3778600000000001  1.0000
  H   H239      1.0  0.70862  0.59124  0.37464  1.0000
  H   H240      1.0  0.79046  0.59099  0.3705600000000001  1.0000
  C   C589      1.0  0.8386900000000003  0.71416  0.36778  1.0000
  C   C590      1.0  0.8796200000000002  0.72754  0.36737000000000003  1.0000
  C   C591      1.0  0.87964  0.76937  0.36737000000000003  1.0000
  C   C592      1.0  0.8387600000000002  0.78237  0.3677700000000001  1.0000
  C   C593      1.0  0.8309900000000002  0.82634  0.36711  1.0000
  C   C594      1.0  0.7862700000000002  0.83737  0.3702700000000001  1.0000
  C   C595      1.0  0.7728900000000001  0.87822  0.37161000000000005  1.0000
  C   C596      1.0  0.7297900000000003  0.87834  0.37403  1.0000
  C   C597      1.0  0.71584  0.83755  0.3752700000000001  1.0000
  C   C598      1.0  0.83093  0.67004  0.36714  1.0000
  C   C599      1.0  0.66282  0.78276  0.37758  1.0000
  C   C600      1.0  0.62183  0.76978  0.37785000000000013  1.0000
  C   C601      1.0  0.4760700000000001  0.37049  0.3061500000000001  1.0000
  C   C602      1.0  0.46245000000000014  0.41129  0.30494  1.0000
  C   C603      1.0  0.4172800000000001  0.42206  0.30459000000000014  1.0000
  C   C604      1.0  0.40973  0.46652  0.30047  1.0000
  C   C605      1.0  0.36895  0.47992  0.39897000000000005  1.0000
  Ni  Ni31      1.0  0.49833  0.5004  0.29769000000000007  1.0000
  C   C606      1.0  0.41010000000000013  0.53536  0.3949200000000001  1.0000
  C   C607      1.0  0.36918  0.52201  0.3964300000000001  1.0000
  C   C608      1.0  0.57884  0.42175  0.3048100000000001  1.0000
  H   H241      1.0  0.4594  0.65822  0.3885800000000001  1.0000
  H   H242      1.0  0.5411900000000002  0.65719  0.3885500000000001  1.0000
  H   H243      1.0  0.65596  0.5389  0.39555  1.0000
  H   H244      1.0  0.65539  0.46032  0.29998  1.0000
  N   N217      1.0  0.49879  0.56271  0.39194  1.0000
  N   N218      1.0  0.5595  0.49992999999999993  0.2977000000000001  1.0000
  N   N219      1.0  0.49807  0.43812  0.30344  1.0000
  N   N220      1.0  0.4371000000000001  0.50086  0.39769000000000004  1.0000
  H   H245      1.0  0.53838  0.34301  0.30683  1.0000
  H   H246      1.0  0.45663  0.34318  0.30671  1.0000
  H   H247      1.0  0.34108  0.46125  0.29996000000000006  1.0000
  H   H248      1.0  0.34153  0.54071  0.39546  1.0000
  C   C609      1.0  0.46363  0.59004  0.3904200000000001  1.0000
  C   C610      1.0  0.47823  0.63063  0.38920000000000005  1.0000
  C   C611      1.0  0.52147  0.63009  0.3891400000000001  1.0000
  C   C612      1.0  0.53471  0.58917  0.3903000000000001  1.0000
  C   C613      1.0  0.5798  0.5778  0.39058  1.0000
  C   C614      1.0  0.58705  0.53383  0.39487000000000005  1.0000
  C   C615      1.0  0.62788  0.52055  0.29647000000000007  1.0000
  C   C616      1.0  0.6276  0.47883  0.29900000000000004  1.0000
  C   C617      1.0  0.5866100000000002  0.46578  0.30055  1.0000
  C   C618      1.0  0.4180300000000001  0.57993  0.39079000000000014  1.0000
  C   C619      1.0  0.53344  0.41111  0.30507  1.0000
  C   C620      1.0  0.51929  0.37038  0.30622  1.0000
  C   C621      1.0  0.9788  0.62791  0.3564000000000001  1.0000
  C   C622      1.0  0.9646800000000002  0.58718  0.3552000000000001  1.0000
  C   C623      1.0  0.91936  0.57635  0.35482000000000014  1.0000
  C   C624      1.0  0.9116000000000002  0.5323500000000001  0.35048  1.0000
  C   C625      1.0  0.8706200000000002  0.51922  0.34889  1.0000
  Ni  Ni32      1.0  0.99985  0.49814  0.34759000000000007  1.0000
  C   C626      1.0  0.91129  0.46432  0.34472  1.0000
  C   C627      1.0  0.8704200000000002  0.47749  0.34633000000000014  1.0000
  C   C628      1.0  0.08084  0.57611  0.3549400000000001  1.0000
  H   H249      1.0  0.958  0.34119  0.33813  1.0000
  H   H250      1.0  0.03983000000000001  0.34096  0.33807  1.0000
  H   H251      1.0  0.15695  0.45878  0.3453  1.0000
  H   H252      1.0  0.15719  0.53758  0.34999  1.0000
  N   N221      1.0  0.9996000000000002  0.43599  0.3415700000000001  1.0000
  N   N222      1.0  0.06099  0.49802  0.3476  1.0000
  N   N223      1.0  6.000000000000001e-05  0.56028  0.35360000000000014  1.0000
  N   N224      1.0  0.93874  0.4983  0.34759000000000007  1.0000
  H   H253      1.0  0.04143  0.6551200000000001  0.35693  1.0000
  H   H254      1.0  0.95969  0.65527  0.35696  1.0000
  H   H255      1.0  0.8428  0.53767  0.34987  1.0000
  H   H256      1.0  0.8424000000000003  0.45908  0.3453700000000001  1.0000
  C   C629      1.0  0.96386  0.40927  0.33996  1.0000
  C   C630      1.0  0.97748  0.36847  0.3387200000000001  1.0000
  C   C631      1.0  0.02076  0.36834  0.33868  1.0000
  C   C632      1.0  0.03500000000000002  0.40907  0.3399  1.0000
  C   C633      1.0  0.08043000000000003  0.41986  0.34024000000000004  1.0000
  C   C634      1.0  0.08816000000000003  0.46396  0.34466  1.0000
  C   C635      1.0  0.12912  0.47722  0.34629  1.0000
  C   C636      1.0  0.12925000000000006  0.51902  0.3489500000000001  1.0000
  C   C637      1.0  0.08837000000000003  0.53211  0.3505500000000001  1.0000
  C   C638      1.0  0.91866  0.42037  0.3403700000000001  1.0000
  C   C639      1.0  0.03569  0.58706  0.35524000000000006  1.0000
  C   C640      1.0  0.022030000000000008  0.62783  0.35641  1.0000
  N   N225      1.0  0.11935000000000003  0.10355  0.33605000000000007  1.0000
  N   N226      1.0  0.12726  0.14268  0.33076000000000005  1.0000
  N   N227      1.0  0.11681000000000001  0.8932  0.3587500000000001  1.0000
  N   N228      1.0  0.12315000000000002  0.85385  0.36386  1.0000
  N   N229      1.0  0.394  0.87516  0.3872700000000001  1.0000
  N   N230      1.0  0.35366  0.87257  0.38337  1.0000
  N   N231      1.0  0.36980000000000013  0.13882  0.3127000000000001  1.0000
  N   N232      1.0  0.37685  0.09907  0.30844  1.0000
  N   N233      1.0  0.8769300000000002  0.89353  0.35845  1.0000
  N   N234      1.0  0.87085  0.85415  0.36356  1.0000
  N   N235      1.0  0.87631  0.10443  0.33634000000000003  1.0000
  N   N236      1.0  0.8688800000000002  0.1437  0.3313600000000001  1.0000
  N   N237      1.0  0.62659  0.14376  0.3139200000000001  1.0000
  N   N238      1.0  0.61957  0.10444000000000003  0.30883  1.0000
  N   N239      1.0  0.6248100000000002  0.89386  0.38706  1.0000
  N   N240      1.0  0.63118  0.8545100000000002  0.382  1.0000
  N   N241      1.0  0.62069  0.60458  0.3867200000000001  1.0000
  N   N242      1.0  0.62862  0.64371  0.38146000000000013  1.0000
  N   N243      1.0  0.6269100000000002  0.35511  0.31369  1.0000
  N   N244      1.0  0.61938  0.39441  0.30868000000000007  1.0000
  N   N245      1.0  0.8699  0.35428  0.33132  1.0000
  N   N246      1.0  0.87782  0.39344  0.33652  1.0000
  N   N247      1.0  0.87144  0.64281  0.36377  1.0000
  N   N248      1.0  0.8788600000000002  0.60355  0.3586900000000001  1.0000
  N   N249      1.0  0.37712  0.39372  0.3084000000000001  1.0000
  N   N250      1.0  0.3705500000000001  0.35402  0.31282000000000004  1.0000
  N   N251      1.0  0.37087  0.64828  0.38281  1.0000
  N   N252      1.0  0.3779200000000001  0.60852  0.3869500000000001  1.0000
  N   N253      1.0  0.12839  0.64282  0.3643000000000001  1.0000
  N   N254      1.0  0.12136000000000002  0.60351  0.35889  1.0000
  N   N255      1.0  0.12853  0.35331  0.33109  1.0000
  N   N256      1.0  0.12102  0.3926  0.33624  1.0000
  C   C641      1.0  0.97647  0.12886  0.43849  1.0000
  C   C642      1.0  0.9622300000000003  0.08814  0.4397200000000001  1.0000
  C   C643      1.0  0.9168500000000003  0.07727  0.44013000000000013  1.0000
  C   C644      1.0  0.90908  0.03324  0.44441000000000014  1.0000
  C   C645      1.0  0.8681400000000002  0.0199  0.44597  1.0000
  Ni  Ni33      1.0  0.99728  0.9991599999999999  0.44724  1.0000
  C   C646      1.0  0.90903  0.96516  0.45012  1.0000
  C   C647      1.0  0.86812  0.97809  0.44852000000000003  1.0000
  C   C648      1.0  0.07850000000000003  0.07672  0.43997  1.0000
  H   H257      1.0  0.9555700000000003  0.84222  0.45645000000000013  1.0000
  H   H258      1.0  0.03723000000000001  0.842  0.45658  1.0000
  H   H259      1.0  0.15385  0.95907  0.44922  1.0000
  H   H260      1.0  0.15471  0.03773  0.4448700000000001  1.0000
  N   N257      1.0  0.997  0.9371  0.4531900000000001  1.0000
  N   N258      1.0  0.058270000000000016  0.9989200000000001  0.4472300000000001  1.0000
  N   N259      1.0  0.9976  0.06124000000000002  0.4412900000000001  1.0000
  N   N260      1.0  0.93627  0.9992700000000001  0.4472600000000001  1.0000
  H   H261      1.0  0.03926  0.15599  0.43786000000000014  1.0000
  H   H262      1.0  0.95741  0.15625  0.43791  1.0000
  H   H263      1.0  0.8402700000000002  0.03827  0.44496000000000013  1.0000
  H   H264      1.0  0.84029  0.95942  0.44942000000000004  1.0000
  C   C649      1.0  0.96158  0.9103  0.45477000000000006  1.0000
  C   C650      1.0  0.9750100000000003  0.8694800000000003  0.45595000000000013  1.0000
  C   C651      1.0  0.01813  0.86936  0.45601000000000014  1.0000
  C   C652      1.0  0.03209  0.91013  0.45484000000000013  1.0000
  C   C653      1.0  0.07705  0.92089  0.4545500000000001  1.0000
  C   C654      1.0  0.08519  0.96478  0.45012  1.0000
  C   C655      1.0  0.1262  0.97769  0.44844  1.0000
  C   C656      1.0  0.12661  0.01944  0.44588  1.0000
  C   C657      1.0  0.08581000000000003  0.03278  0.44431  1.0000
  C   C658      1.0  0.91682  0.92128  0.45443  1.0000
  C   C659      1.0  0.03335  0.08792  0.43965000000000004  1.0000
  C   C660      1.0  0.01976  0.12873  0.43846  1.0000
  C   C661      1.0  0.11803  0.72659  0.46798  1.0000
  C   C662      1.0  0.15936  0.71474  0.4684200000000001  1.0000
  C   C663      1.0  0.16835  0.67107  0.46777  1.0000
  C   C664      1.0  0.21396  0.66158  0.4709800000000001  1.0000
  C   C665      1.0  0.22893000000000002  0.62128  0.47222000000000003  1.0000
  Ni  Ni34      1.0  0.24668  0.75178  0.47358000000000006  1.0000
  C   C666      1.0  0.28506  0.66389  0.47603  1.0000
  C   C667      1.0  0.27217  0.62268  0.47467  1.0000
  C   C668      1.0  0.16349  0.82692  0.4675800000000001  1.0000
  H   H265      1.0  0.40523  0.71896  0.3802  1.0000
  H   H266      1.0  0.4022  0.79892  0.38016000000000005  1.0000
  H   H267      1.0  0.28048  0.91034  0.4756700000000001  1.0000
  H   H268      1.0  0.19942  0.90688  0.47158  1.0000
  N   N261      1.0  0.3082200000000001  0.75461  0.47798  1.0000
  N   N262      1.0  0.24384000000000006  0.81354  0.47343000000000013  1.0000
  N   N263      1.0  0.18558  0.74962  0.4693600000000001  1.0000
  N   N264      1.0  0.24879  0.68956  0.47356  1.0000
  H   H269      1.0  0.08838  0.78599  0.4676700000000001  1.0000
  H   H270      1.0  0.09065000000000002  0.70729  0.46792  1.0000
  H   H271      1.0  0.21038  0.59334  0.4712500000000001  1.0000
  H   H272      1.0  0.29211  0.59594  0.47553000000000006  1.0000
  C   C669      1.0  0.33657  0.72118  0.47908  1.0000
  C   C670      1.0  0.3768700000000001  0.73661  0.4798500000000001  1.0000
  C   C671      1.0  0.3753300000000001  0.77902  0.47993000000000013  1.0000
  C   C672      1.0  0.33409  0.79057  0.47928000000000004  1.0000
  C   C673      1.0  0.32285  0.83458  0.4794700000000001  1.0000
  C   C674      1.0  0.27763  0.84183  0.47593000000000013  1.0000
  C   C675      1.0  0.26239  0.88209  0.4746400000000001  1.0000
  C   C676      1.0  0.21961000000000006  0.8804  0.4722400000000001  1.0000
  C   C677      1.0  0.20774  0.83914  0.4708600000000001  1.0000
  C   C678      1.0  0.33017  0.67601  0.47937  1.0000
  C   C679      1.0  0.15717  0.78273  0.4682800000000001  1.0000
  C   C680      1.0  0.11672000000000003  0.76832  0.4678800000000001  1.0000
  C   C681      1.0  0.48541  0.86563  0.49022  1.0000
  C   C682      1.0  0.47015  0.9058700000000002  0.49124  1.0000
  C   C683      1.0  0.42487  0.91309  0.4911700000000001  1.0000
  C   C684      1.0  0.4136200000000001  0.95703  0.4950200000000001  1.0000
  C   C685      1.0  0.3723700000000001  0.96852  0.4965400000000001  1.0000
  Ni  Ni35      1.0  0.50116  0.99574  0.39799  1.0000
  C   C686      1.0  0.41116  0.0263  0.5006200000000001  1.0000
  C   C687      1.0  0.37084  0.01092  0.49915  1.0000
  C   C688      1.0  0.5844400000000002  0.92074  0.3910500000000001  1.0000
  H   H273      1.0  0.45577  0.15138  0.5068  1.0000
  H   H274      1.0  0.53751  0.15396  0.4069800000000001  1.0000
  H   H275      1.0  0.65732  0.04025  0.39982  1.0000
  H   H276      1.0  0.65959  0.96154  0.39552  1.0000
  N   N265      1.0  0.49905  0.0578  0.5036  1.0000
  N   N266      1.0  0.56236  0.99789  0.39798000000000006  1.0000
  N   N267      1.0  0.50398  0.93415  0.39252000000000004  1.0000
  N   N268      1.0  0.43951  0.99292  0.4978600000000001  1.0000
  H   H277      1.0  0.54836  0.84086  0.3897700000000001  1.0000
  H   H278      1.0  0.46731  0.83739  0.48978000000000005  1.0000
  H   H279      1.0  0.3455  0.94861  0.4957200000000001  1.0000
  H   H280      1.0  0.34247  0.02856  0.5002700000000001  1.0000
  C   C689      1.0  0.4627500000000001  0.08346  0.50506  1.0000
  C   C690      1.0  0.47569  0.12463999999999999  0.5062600000000002  1.0000
  C   C691      1.0  0.51895  0.12603  0.40636  1.0000
  C   C692      1.0  0.53393  0.08574  0.4052400000000001  1.0000
  C   C693      1.0  0.57958  0.07628  0.40496000000000004  1.0000
  C   C694      1.0  0.5886  0.03271  0.4007100000000001  1.0000
  C   C695      1.0  0.62995  0.02093  0.39906  1.0000
  C   C696      1.0  0.63125  0.97921  0.39657  1.0000
  C   C697      1.0  0.5907800000000002  0.96485  0.39514  1.0000
  C   C698      1.0  0.4175800000000001  0.07139  0.5047  1.0000
  C   C699      1.0  0.54013  0.90856  0.3909900000000001  1.0000
  C   C700      1.0  0.5282000000000002  0.86733  0.39012000000000013  1.0000
  C   C701      1.0  0.12006000000000003  0.22693  0.4271900000000001  1.0000
  C   C702      1.0  0.16088  0.21361  0.42677000000000004  1.0000
  C   C703      1.0  0.16812  0.16955  0.42738000000000004  1.0000
  C   C704      1.0  0.21316  0.15816  0.4242500000000001  1.0000
  C   C705      1.0  0.22637  0.11722  0.4229500000000001  1.0000
  Ni  Ni36      1.0  0.24948  0.24712  0.4218200000000001  1.0000
  C   C706      1.0  0.28416  0.15731000000000006  0.4193100000000001  1.0000
  C   C707      1.0  0.26959  0.1167  0.42055000000000003  1.0000
  C   C708      1.0  0.16905  0.3259  0.42759  1.0000
  H   H281      1.0  0.40617  0.20685  0.41584  1.0000
  H   H282      1.0  0.40661  0.28631  0.41587  1.0000
  H   H283      1.0  0.29114  0.40456  0.4199000000000001  1.0000
  H   H284      1.0  0.20941000000000007  0.4047100000000001  0.42412000000000005  1.0000
  N   N269      1.0  0.3106200000000001  0.24669  0.4177400000000001  1.0000
  N   N270      1.0  0.24974  0.30957  0.42192  1.0000
  N   N271      1.0  0.18840000000000007  0.24758  0.42584000000000005  1.0000
  N   N272      1.0  0.24904  0.18466  0.42178  1.0000
  H   H285      1.0  0.09253  0.28717  0.4274300000000001  1.0000
  H   H286      1.0  0.09198  0.2086  0.42732000000000003  1.0000
  H   H287      1.0  0.20665  0.0901  0.4237700000000001  1.0000
  H   H288      1.0  0.2884200000000001  0.08911  0.41957  1.0000
  C   C709      1.0  0.33762  0.21213  0.41666  1.0000
  C   C710      1.0  0.37851  0.22553  0.41613  1.0000
  C   C711      1.0  0.37874  0.26765  0.41615000000000013  1.0000
  C   C712      1.0  0.3379700000000001  0.28108  0.41672  1.0000
  C   C713      1.0  0.33043  0.32562  0.41626000000000013  1.0000
  C   C714      1.0  0.28531  0.33642  0.41947000000000007  1.0000
  C   C715      1.0  0.27171  0.37724  0.42078000000000004  1.0000
  C   C716      1.0  0.22851000000000005  0.37734  0.4232  1.0000
  C   C717      1.0  0.21440000000000006  0.33659  0.42445  1.0000
  C   C718      1.0  0.32971  0.16747  0.4161400000000001  1.0000
  C   C719      1.0  0.16131  0.28178  0.42687000000000014  1.0000
  C   C720      1.0  0.12033  0.26868  0.42724  1.0000
  C   C721      1.0  0.61871  0.22846  0.41738000000000003  1.0000
  C   C722      1.0  0.65957  0.21532  0.41781000000000007  1.0000
  C   C723      1.0  0.66709  0.17124  0.4172200000000001  1.0000
  C   C724      1.0  0.7121800000000003  0.16023  0.42029  1.0000
  C   C725      1.0  0.7258000000000002  0.11943  0.4215800000000001  1.0000
  Ni  Ni37      1.0  0.74798  0.24935  0.42259  1.0000
  C   C726      1.0  0.78311  0.16011  0.42506  1.0000
  C   C727      1.0  0.76902  0.11935  0.42389000000000004  1.0000
  C   C728      1.0  0.66749  0.32779  0.41707  1.0000
  H   H289      1.0  0.90492  0.20982  0.42794  1.0000
  H   H290      1.0  0.9053300000000002  0.2884  0.42790000000000006  1.0000
  H   H291      1.0  0.78983  0.40654  0.42456000000000005  1.0000
  H   H292      1.0  0.7080100000000003  0.40677  0.42049000000000003  1.0000
  N   N273      1.0  0.80901  0.24919  0.42643  1.0000
  N   N274      1.0  0.74823  0.31168  0.4225500000000001  1.0000
  N   N275      1.0  0.6869300000000003  0.24948  0.41874000000000006  1.0000
  N   N276      1.0  0.74778  0.18703  0.42265000000000014  1.0000
  H   H293      1.0  0.5909900000000002  0.2887  0.51715  1.0000
  H   H294      1.0  0.5907499999999999  0.2099  0.5171900000000001  1.0000
  H   H295      1.0  0.70639  0.09213000000000003  0.42088  1.0000
  H   H296      1.0  0.7881300000000002  0.09198  0.4248  1.0000
  C   C729      1.0  0.8361400000000002  0.21507  0.42739  1.0000
  C   C730      1.0  0.8771000000000002  0.22826  0.42777  1.0000
  C   C731      1.0  0.87729  0.27001  0.42775000000000013  1.0000
  C   C732      1.0  0.8364500000000002  0.28323  0.42736  1.0000
  C   C733      1.0  0.82908  0.32728  0.4280100000000001  1.0000
  C   C734      1.0  0.7839300000000002  0.33843  0.4249600000000001  1.0000
  C   C735      1.0  0.77035  0.37925  0.42372  1.0000
  C   C736      1.0  0.7270900000000002  0.37937  0.42136000000000007  1.0000
  C   C737      1.0  0.71287  0.33863  0.4201300000000001  1.0000
  C   C738      1.0  0.82839  0.17097  0.42805000000000004  1.0000
  C   C739      1.0  0.65977  0.2836  0.4177400000000001  1.0000
  C   C740      1.0  0.61883  0.27028  0.51735  1.0000
  C   C741      1.0  0.62141  0.72801  0.4778100000000001  1.0000
  C   C742      1.0  0.6622  0.71462  0.4774700000000001  1.0000
  C   C743      1.0  0.66947  0.67058  0.47812000000000004  1.0000
  C   C744      1.0  0.71458  0.65935  0.4750600000000001  1.0000
  C   C745      1.0  0.72813  0.61851  0.4738000000000001  1.0000
  Ni  Ni38      1.0  0.75061  0.74831  0.47268000000000004  1.0000
  C   C746      1.0  0.7856100000000003  0.65912  0.4702000000000001  1.0000
  C   C747      1.0  0.7714  0.61838  0.47144000000000014  1.0000
  C   C748      1.0  0.67094  0.82674  0.47837000000000013  1.0000
  H   H297      1.0  0.9075000000000002  0.70918  0.4672000000000001  1.0000
  H   H298      1.0  0.90749  0.78801  0.4672400000000001  1.0000
  H   H299      1.0  0.79235  0.90549  0.47083000000000014  1.0000
  H   H300      1.0  0.71069  0.9057  0.4749700000000001  1.0000
  N   N277      1.0  0.81153  0.74819  0.46876  1.0000
  N   N278      1.0  0.7509000000000001  0.81055  0.47274000000000005  1.0000
  N   N279      1.0  0.68972  0.74854  0.47658  1.0000
  N   N280      1.0  0.75028  0.68605  0.4726400000000001  1.0000
  H   H301      1.0  0.59418  0.78834  0.4778400000000001  1.0000
  H   H302      1.0  0.59331  0.70974  0.47786  1.0000
  H   H303      1.0  0.70863  0.59124  0.4746400000000001  1.0000
  H   H304      1.0  0.79046  0.59098  0.47056000000000003  1.0000
  C   C749      1.0  0.8387  0.71416  0.46778  1.0000
  C   C750      1.0  0.8796200000000002  0.72754  0.4673700000000001  1.0000
  C   C751      1.0  0.87964  0.76937  0.4673700000000001  1.0000
  C   C752      1.0  0.8387600000000002  0.78237  0.46777  1.0000
  C   C753      1.0  0.8309900000000002  0.82633  0.46711000000000014  1.0000
  C   C754      1.0  0.78628  0.83736  0.47027  1.0000
  C   C755      1.0  0.7728900000000001  0.87821  0.47161  1.0000
  C   C756      1.0  0.7297900000000003  0.87833  0.4740300000000001  1.0000
  C   C757      1.0  0.7158500000000002  0.83755  0.47527  1.0000
  C   C758      1.0  0.83094  0.67004  0.4671400000000001  1.0000
  C   C759      1.0  0.66282  0.78275  0.4775800000000001  1.0000
  C   C760      1.0  0.62183  0.76977  0.4778500000000001  1.0000
  C   C761      1.0  0.47608  0.3705  0.40615000000000007  1.0000
  C   C762      1.0  0.46245000000000014  0.4113  0.40494  1.0000
  C   C763      1.0  0.41729  0.42207  0.40459  1.0000
  C   C764      1.0  0.40973  0.46653  0.4004700000000001  1.0000
  C   C765      1.0  0.36895  0.47992  0.49897  1.0000
  Ni  Ni39      1.0  0.49834  0.50041  0.39769000000000004  1.0000
  C   C766      1.0  0.41010000000000013  0.53535  0.4949200000000001  1.0000
  C   C767      1.0  0.36918  0.52201  0.4964300000000001  1.0000
  C   C768      1.0  0.57885  0.42176  0.4048100000000001  1.0000
  H   H305      1.0  0.45941  0.6582100000000002  0.4885800000000001  1.0000
  H   H306      1.0  0.5412  0.65719  0.4885500000000001  1.0000
  H   H307      1.0  0.65596  0.53889  0.4955500000000001  1.0000
  H   H308      1.0  0.65539  0.46033  0.39997  1.0000
  N   N281      1.0  0.49879  0.5627  0.49194  1.0000
  N   N282      1.0  0.5595100000000002  0.49994  0.3977  1.0000
  N   N283      1.0  0.49807  0.43813  0.40344000000000013  1.0000
  N   N284      1.0  0.4371000000000001  0.50085  0.49769  1.0000
  H   H309      1.0  0.5383900000000003  0.34302  0.40683  1.0000
  H   H310      1.0  0.4566400000000001  0.34319  0.40671  1.0000
  H   H311      1.0  0.34108  0.4612600000000001  0.39996000000000004  1.0000
  H   H312      1.0  0.34153  0.5407  0.4954600000000001  1.0000
  C   C769      1.0  0.46363  0.59003  0.49042  1.0000
  C   C770      1.0  0.47823  0.63063  0.4892  1.0000
  C   C771      1.0  0.5214800000000003  0.63009  0.48914  1.0000
  C   C772      1.0  0.53471  0.58917  0.49030000000000007  1.0000
  C   C773      1.0  0.5798  0.57779  0.4905800000000001  1.0000
  C   C774      1.0  0.58705  0.53383  0.49487000000000003  1.0000
  C   C775      1.0  0.62788  0.52056  0.39647000000000004  1.0000
  C   C776      1.0  0.6276100000000002  0.47884  0.3990000000000001  1.0000
  C   C777      1.0  0.5866100000000002  0.4658  0.40055  1.0000
  C   C778      1.0  0.4180300000000001  0.57992  0.4907900000000001  1.0000
  C   C779      1.0  0.53344  0.41112  0.4050700000000001  1.0000
  C   C780      1.0  0.51929  0.37039  0.40622  1.0000
  C   C781      1.0  0.97881  0.62791  0.45640000000000003  1.0000
  C   C782      1.0  0.96469  0.58718  0.4552000000000001  1.0000
  C   C783      1.0  0.9193700000000002  0.57635  0.4548200000000001  1.0000
  C   C784      1.0  0.91161  0.5323500000000001  0.4504800000000001  1.0000
  C   C785      1.0  0.8706300000000002  0.51922  0.4488900000000001  1.0000
  Ni  Ni40      1.0  0.99986  0.49814  0.44759000000000004  1.0000
  C   C786      1.0  0.9113  0.46432  0.44472  1.0000
  C   C787      1.0  0.87043  0.47749  0.4463300000000001  1.0000
  C   C788      1.0  0.08085000000000003  0.57611  0.45494000000000007  1.0000
  H   H313      1.0  0.958  0.34119  0.43813000000000013  1.0000
  H   H314      1.0  0.03984  0.34096  0.4380700000000001  1.0000
  H   H315      1.0  0.15696  0.45878  0.4453  1.0000
  H   H316      1.0  0.15720000000000006  0.53758  0.4499900000000001  1.0000
  N   N285      1.0  0.9996100000000001  0.43599  0.44157  1.0000
  N   N286      1.0  0.061  0.49802  0.4476000000000001  1.0000
  N   N287      1.0  7.000000000000008e-05  0.56028  0.4536000000000001  1.0000
  N   N288      1.0  0.93875  0.4983  0.44759000000000004  1.0000
  H   H317      1.0  0.04143  0.6551200000000001  0.45693  1.0000
  H   H318      1.0  0.9597  0.65527  0.45696  1.0000
  H   H319      1.0  0.84281  0.53767  0.4498700000000001  1.0000
  H   H320      1.0  0.84241  0.45908  0.4453700000000001  1.0000
  C   C789      1.0  0.9638700000000002  0.40927  0.43996000000000013  1.0000
  C   C790      1.0  0.9774900000000002  0.36847  0.43872000000000005  1.0000
  C   C791      1.0  0.02077  0.36835  0.4386800000000001  1.0000
  C   C792      1.0  0.03501  0.40907  0.4399000000000001  1.0000
  C   C793      1.0  0.08044  0.41986  0.44024  1.0000
  C   C794      1.0  0.08817  0.46396  0.44466  1.0000
  C   C795      1.0  0.12913  0.47722  0.44629000000000013  1.0000
  C   C796      1.0  0.12926  0.51902  0.44895000000000007  1.0000
  C   C797      1.0  0.08838  0.53211  0.45055000000000006  1.0000
  C   C798      1.0  0.9186700000000002  0.42037  0.4403700000000001  1.0000
  C   C799      1.0  0.035700000000000016  0.58706  0.45524  1.0000
  C   C800      1.0  0.022040000000000008  0.62783  0.45641  1.0000
  N   N289      1.0  0.11936000000000002  0.10355  0.43605  1.0000
  N   N290      1.0  0.12727000000000002  0.14268  0.43076  1.0000
  N   N291      1.0  0.11682000000000003  0.8932  0.4587500000000001  1.0000
  N   N292      1.0  0.12316  0.85385  0.4638600000000001  1.0000
  N   N293      1.0  0.39401000000000014  0.87516  0.4872700000000001  1.0000
  N   N294      1.0  0.35366  0.87256  0.48338000000000003  1.0000
  N   N295      1.0  0.36980000000000013  0.13883  0.4127  1.0000
  N   N296      1.0  0.37685  0.09908000000000003  0.40844000000000014  1.0000
  N   N297      1.0  0.8769300000000002  0.89353  0.45845000000000014  1.0000
  N   N298      1.0  0.87085  0.85415  0.46356000000000014  1.0000
  N   N299      1.0  0.87631  0.10444000000000003  0.43634  1.0000
  N   N300      1.0  0.86889  0.1437  0.4313600000000001  1.0000
  N   N301      1.0  0.62659  0.14377  0.41392  1.0000
  N   N302      1.0  0.61957  0.10445  0.40883  1.0000
  N   N303      1.0  0.6248100000000002  0.89385  0.4870600000000001  1.0000
  N   N304      1.0  0.63118  0.8545  0.4820000000000001  1.0000
  N   N305      1.0  0.62069  0.60458  0.4867200000000001  1.0000
  N   N306      1.0  0.6286300000000002  0.6437  0.48146000000000005  1.0000
  N   N307      1.0  0.62692  0.35512  0.41369  1.0000
  N   N308      1.0  0.61939  0.39442  0.4086800000000001  1.0000
  N   N309      1.0  0.86991  0.35428  0.4313200000000001  1.0000
  N   N310      1.0  0.87783  0.39344  0.43652000000000013  1.0000
  N   N311      1.0  0.87145  0.64281  0.4637700000000001  1.0000
  N   N312      1.0  0.8788600000000002  0.60355  0.4586900000000001  1.0000
  N   N313      1.0  0.37713  0.39372  0.4084  1.0000
  N   N314      1.0  0.37056  0.35403  0.41282  1.0000
  N   N315      1.0  0.37088  0.64827  0.48281000000000013  1.0000
  N   N316      1.0  0.3779200000000001  0.60851  0.4869500000000001  1.0000
  N   N317      1.0  0.12840000000000004  0.64282  0.4643000000000001  1.0000
  N   N318      1.0  0.12137  0.60351  0.45890000000000003  1.0000
  N   N319      1.0  0.12854000000000004  0.35331  0.4310900000000001  1.0000
  N   N320      1.0  0.12102  0.3926  0.4362400000000001  1.0000
  C   C801      1.0  0.97647  0.12886  0.53849  1.0000
  C   C802      1.0  0.9622300000000003  0.08814  0.53972  1.0000
  C   C803      1.0  0.9168500000000003  0.07727  0.5401300000000001  1.0000
  C   C804      1.0  0.90908  0.03324  0.5444100000000001  1.0000
  C   C805      1.0  0.8681400000000002  0.0199  0.54597  1.0000
  Ni  Ni41      1.0  0.99728  0.9991599999999999  0.5472400000000001  1.0000
  C   C806      1.0  0.90902  0.96516  0.55012  1.0000
  C   C807      1.0  0.86812  0.97809  0.54852  1.0000
  C   C808      1.0  0.07850000000000003  0.07672  0.5399700000000001  1.0000
  H   H321      1.0  0.9555700000000003  0.84221  0.5564500000000001  1.0000
  H   H322      1.0  0.03723000000000001  0.842  0.55658  1.0000
  H   H323      1.0  0.15385  0.95907  0.54922  1.0000
  H   H324      1.0  0.15471  0.03773  0.54487  1.0000
  N   N321      1.0  0.997  0.9371  0.5531900000000001  1.0000
  N   N322      1.0  0.058270000000000016  0.9989200000000001  0.5472300000000001  1.0000
  N   N323      1.0  0.9976  0.06124000000000002  0.5412900000000002  1.0000
  N   N324      1.0  0.93627  0.9992700000000001  0.5472600000000001  1.0000
  H   H325      1.0  0.03926  0.15599  0.53786  1.0000
  H   H326      1.0  0.95741  0.15625  0.53791  1.0000
  H   H327      1.0  0.8402700000000002  0.03827  0.5449600000000001  1.0000
  H   H328      1.0  0.84028  0.95942  0.54942  1.0000
  C   C809      1.0  0.96158  0.9103  0.55477  1.0000
  C   C810      1.0  0.9750100000000003  0.8694800000000003  0.5559500000000002  1.0000
  C   C811      1.0  0.01813  0.86936  0.5560100000000001  1.0000
  C   C812      1.0  0.03209  0.91013  0.55484  1.0000
  C   C813      1.0  0.07705  0.92089  0.55455  1.0000
  C   C814      1.0  0.08519  0.96478  0.55012  1.0000
  C   C815      1.0  0.1262  0.97768  0.54844  1.0000
  C   C816      1.0  0.12661  0.01944  0.54588  1.0000
  C   C817      1.0  0.08581000000000003  0.03278  0.54431  1.0000
  C   C818      1.0  0.9168100000000002  0.92128  0.55443  1.0000
  C   C819      1.0  0.03335  0.08791  0.53965  1.0000
  C   C820      1.0  0.01976  0.12872  0.53846  1.0000
  C   C821      1.0  0.11802000000000003  0.72659  0.5679800000000003  1.0000
  C   C822      1.0  0.15935  0.71474  0.5684200000000001  1.0000
  C   C823      1.0  0.16835  0.67107  0.56777  1.0000
  C   C824      1.0  0.21396  0.66159  0.57097  1.0000
  C   C825      1.0  0.22893000000000002  0.62128  0.57222  1.0000
  Ni  Ni42      1.0  0.24667  0.75178  0.5735800000000001  1.0000
  C   C826      1.0  0.28506  0.66389  0.57603  1.0000
  C   C827      1.0  0.27217  0.62269  0.5746700000000002  1.0000
  C   C828      1.0  0.16349  0.82692  0.5675800000000001  1.0000
  H   H329      1.0  0.40524  0.71896  0.4802000000000001  1.0000
  H   H330      1.0  0.4022  0.7989100000000002  0.48016  1.0000
  H   H331      1.0  0.28048  0.91034  0.5756700000000001  1.0000
  H   H332      1.0  0.19942  0.90688  0.57158  1.0000
  N   N325      1.0  0.3082200000000001  0.75461  0.57798  1.0000
  N   N326      1.0  0.24384000000000006  0.81354  0.5734300000000001  1.0000
  N   N327      1.0  0.18558  0.74962  0.5693600000000001  1.0000
  N   N328      1.0  0.24879  0.68956  0.57356  1.0000
  H   H333      1.0  0.08837000000000003  0.78599  0.5676700000000001  1.0000
  H   H334      1.0  0.09065000000000002  0.70729  0.56792  1.0000
  H   H335      1.0  0.21038  0.59334  0.57125  1.0000
  H   H336      1.0  0.29211  0.59594  0.57553  1.0000
  C   C829      1.0  0.33656  0.72118  0.57908  1.0000
  C   C830      1.0  0.37686  0.73661  0.5798500000000001  1.0000
  C   C831      1.0  0.37532  0.77902  0.57993  1.0000
  C   C832      1.0  0.3340800000000001  0.79057  0.57928  1.0000
  C   C833      1.0  0.32285  0.83458  0.5794700000000002  1.0000
  C   C834      1.0  0.27763  0.84183  0.57593  1.0000
  C   C835      1.0  0.26239  0.88209  0.5746400000000002  1.0000
  C   C836      1.0  0.21961000000000006  0.8804  0.5722400000000001  1.0000
  C   C837      1.0  0.20773000000000005  0.83915  0.5708600000000001  1.0000
  C   C838      1.0  0.33017  0.67601  0.57937  1.0000
  C   C839      1.0  0.15717  0.78273  0.5682800000000001  1.0000
  C   C840      1.0  0.11672000000000003  0.76832  0.56788  1.0000
  C   C841      1.0  0.4854  0.8656400000000001  0.59022  1.0000
  C   C842      1.0  0.47014  0.90588  0.59124  1.0000
  C   C843      1.0  0.42487  0.9131  0.5911700000000001  1.0000
  C   C844      1.0  0.4136200000000001  0.95703  0.59502  1.0000
  C   C845      1.0  0.3723700000000001  0.96853  0.5965400000000002  1.0000
  Ni  Ni43      1.0  0.50116  0.99574  0.4979900000000001  1.0000
  C   C846      1.0  0.4111500000000001  0.0263  0.60062  1.0000
  C   C847      1.0  0.3708300000000001  0.01092  0.59915  1.0000
  C   C848      1.0  0.58445  0.92073  0.4910500000000001  1.0000
  H   H337      1.0  0.45577  0.15139  0.6068000000000002  1.0000
  H   H338      1.0  0.5375200000000002  0.15396  0.50698  1.0000
  H   H339      1.0  0.65732  0.04025  0.4998200000000001  1.0000
  H   H340      1.0  0.65959  0.96153  0.4955200000000001  1.0000
  N   N329      1.0  0.49905  0.0578  0.6036000000000002  1.0000
  N   N330      1.0  0.56236  0.9978799999999999  0.49798000000000003  1.0000
  N   N331      1.0  0.50399  0.93414  0.4925200000000001  1.0000
  N   N332      1.0  0.43951  0.99292  0.5978600000000001  1.0000
  H   H341      1.0  0.54836  0.84085  0.4897700000000001  1.0000
  H   H342      1.0  0.46731  0.83739  0.58978  1.0000
  H   H343      1.0  0.34549  0.9486200000000002  0.5957200000000002  1.0000
  H   H344      1.0  0.34247  0.02856  0.6002700000000001  1.0000
  C   C849      1.0  0.4627500000000001  0.08346  0.6050600000000002  1.0000
  C   C850      1.0  0.47569  0.12463999999999999  0.60626  1.0000
  C   C851      1.0  0.51895  0.12602  0.50636  1.0000
  C   C852      1.0  0.53393  0.08574  0.50523  1.0000
  C   C853      1.0  0.57959  0.07628  0.5049600000000001  1.0000
  C   C854      1.0  0.5886  0.03271  0.5007100000000001  1.0000
  C   C855      1.0  0.62995  0.02092  0.49906  1.0000
  C   C856      1.0  0.63125  0.97921  0.4965700000000001  1.0000
  C   C857      1.0  0.5907800000000002  0.96484  0.49514000000000014  1.0000
  C   C858      1.0  0.4175800000000001  0.07139  0.6047  1.0000
  C   C859      1.0  0.54013  0.90855  0.4909900000000001  1.0000
  C   C860      1.0  0.5282000000000002  0.86732  0.4901200000000001  1.0000
  C   C861      1.0  0.12005  0.22693  0.5271900000000002  1.0000
  C   C862      1.0  0.16088  0.21361  0.52677  1.0000
  C   C863      1.0  0.16812  0.16955  0.52738  1.0000
  C   C864      1.0  0.21316  0.15815  0.52425  1.0000
  C   C865      1.0  0.22637  0.11722  0.5229500000000001  1.0000
  Ni  Ni44      1.0  0.24948  0.24711  0.5218200000000001  1.0000
  C   C866      1.0  0.28416  0.15731000000000006  0.5193100000000002  1.0000
  C   C867      1.0  0.26959  0.11669  0.52055  1.0000
  C   C868      1.0  0.16905  0.3259  0.52759  1.0000
  H   H345      1.0  0.40617  0.20685  0.51584  1.0000
  H   H346      1.0  0.40661  0.2863  0.51587  1.0000
  H   H347      1.0  0.29114  0.40456  0.5199  1.0000
  H   H348      1.0  0.20941000000000007  0.4047100000000001  0.52412  1.0000
  N   N333      1.0  0.3106200000000001  0.24668  0.51774  1.0000
  N   N334      1.0  0.24974  0.30956  0.52192  1.0000
  N   N335      1.0  0.18840000000000007  0.24758  0.52584  1.0000
  N   N336      1.0  0.24904  0.18466  0.52178  1.0000
  H   H349      1.0  0.09253  0.28717  0.5274300000000001  1.0000
  H   H350      1.0  0.09198  0.2086  0.52732  1.0000
  H   H351      1.0  0.20665  0.0901  0.5237700000000001  1.0000
  H   H352      1.0  0.2884200000000001  0.08911  0.51957  1.0000
  C   C869      1.0  0.33762  0.21213  0.51666  1.0000
  C   C870      1.0  0.37851  0.22553  0.51613  1.0000
  C   C871      1.0  0.37874  0.26764  0.5161500000000001  1.0000
  C   C872      1.0  0.3379700000000001  0.28108  0.51672  1.0000
  C   C873      1.0  0.33043  0.32561  0.5162600000000002  1.0000
  C   C874      1.0  0.28531  0.33642  0.51947  1.0000
  C   C875      1.0  0.27171  0.37724  0.52078  1.0000
  C   C876      1.0  0.22852000000000006  0.37734  0.5232  1.0000
  C   C877      1.0  0.21440000000000006  0.33659  0.52445  1.0000
  C   C878      1.0  0.32971  0.16747  0.5161400000000002  1.0000
  C   C879      1.0  0.16131  0.28177  0.52687  1.0000
  C   C880      1.0  0.12033  0.2686700000000001  0.52724  1.0000
  C   C881      1.0  0.61871  0.22845  0.51738  1.0000
  C   C882      1.0  0.65957  0.21532  0.5178100000000001  1.0000
  C   C883      1.0  0.66709  0.17123  0.5172200000000001  1.0000
  C   C884      1.0  0.7121800000000003  0.16022  0.52029  1.0000
  C   C885      1.0  0.7258000000000002  0.11942  0.5215800000000002  1.0000
  Ni  Ni45      1.0  0.74798  0.24935  0.52259  1.0000
  C   C886      1.0  0.7831200000000003  0.1601  0.52506  1.0000
  C   C887      1.0  0.76902  0.11934  0.52389  1.0000
  C   C888      1.0  0.66748  0.32779  0.5170700000000001  1.0000
  H   H353      1.0  0.90493  0.20982  0.52794  1.0000
  H   H354      1.0  0.9053300000000002  0.2884  0.5279  1.0000
  H   H355      1.0  0.78983  0.40653  0.52456  1.0000
  H   H356      1.0  0.7080100000000003  0.40676  0.52049  1.0000
  N   N337      1.0  0.80901  0.24918  0.52643  1.0000
  N   N338      1.0  0.74823  0.31168  0.5225500000000001  1.0000
  N   N339      1.0  0.6869300000000003  0.24946999999999997  0.5187400000000001  1.0000
  N   N340      1.0  0.74778  0.18703  0.52265  1.0000
  H   H357      1.0  0.5909900000000002  0.2887  0.61715  1.0000
  H   H358      1.0  0.5907499999999999  0.2099  0.6171900000000001  1.0000
  H   H359      1.0  0.70639  0.09212  0.5208800000000001  1.0000
  H   H360      1.0  0.7881300000000002  0.09198  0.5248  1.0000
  C   C889      1.0  0.8361400000000002  0.21507  0.52739  1.0000
  C   C890      1.0  0.8771000000000002  0.22825  0.52777  1.0000
  C   C891      1.0  0.87729  0.27  0.52775  1.0000
  C   C892      1.0  0.8364500000000002  0.28323  0.5273600000000002  1.0000
  C   C893      1.0  0.82908  0.32728  0.5280100000000001  1.0000
  C   C894      1.0  0.7839300000000002  0.33842  0.5249600000000001  1.0000
  C   C895      1.0  0.77035  0.37924  0.52372  1.0000
  C   C896      1.0  0.72708  0.37937  0.52136  1.0000
  C   C897      1.0  0.71287  0.33862  0.5201300000000001  1.0000
  C   C898      1.0  0.82839  0.17097  0.52805  1.0000
  C   C899      1.0  0.65977  0.28359  0.51774  1.0000
  C   C900      1.0  0.61883  0.27028  0.61735  1.0000
  C   C901      1.0  0.62141  0.72802  0.5778100000000002  1.0000
  C   C902      1.0  0.66219  0.71462  0.5774700000000001  1.0000
  C   C903      1.0  0.66947  0.67059  0.57812  1.0000
  C   C904      1.0  0.71457  0.65935  0.57506  1.0000
  C   C905      1.0  0.72812  0.61852  0.5738  1.0000
  Ni  Ni46      1.0  0.75061  0.74831  0.5726800000000001  1.0000
  C   C906      1.0  0.7856  0.65913  0.5702000000000002  1.0000
  C   C907      1.0  0.7713900000000002  0.61838  0.57144  1.0000
  C   C908      1.0  0.6709300000000002  0.82674  0.5783700000000002  1.0000
  H   H361      1.0  0.9075000000000002  0.70918  0.5672000000000001  1.0000
  H   H362      1.0  0.90748  0.78801  0.5672400000000001  1.0000
  H   H363      1.0  0.79234  0.90549  0.57083  1.0000
  H   H364      1.0  0.71069  0.90571  0.5749700000000001  1.0000
  N   N341      1.0  0.8115200000000002  0.74819  0.56876  1.0000
  N   N342      1.0  0.7509000000000001  0.81055  0.57274  1.0000
  N   N343      1.0  0.68972  0.74855  0.57658  1.0000
  N   N344      1.0  0.75028  0.68605  0.5726400000000001  1.0000
  H   H365      1.0  0.59418  0.78835  0.5778400000000001  1.0000
  H   H366      1.0  0.59331  0.70974  0.57786  1.0000
  H   H367      1.0  0.70863  0.59124  0.5746400000000002  1.0000
  H   H368      1.0  0.79046  0.59098  0.57056  1.0000
  C   C909      1.0  0.8386900000000003  0.71416  0.56778  1.0000
  C   C910      1.0  0.8796200000000002  0.72754  0.5673700000000002  1.0000
  C   C911      1.0  0.87964  0.76937  0.5673700000000002  1.0000
  C   C912      1.0  0.8387600000000002  0.78237  0.56777  1.0000
  C   C913      1.0  0.8309900000000002  0.82634  0.56711  1.0000
  C   C914      1.0  0.78628  0.83737  0.57027  1.0000
  C   C915      1.0  0.7728900000000001  0.87822  0.57161  1.0000
  C   C916      1.0  0.7297900000000003  0.87834  0.5740300000000002  1.0000
  C   C917      1.0  0.71584  0.83755  0.57527  1.0000
  C   C918      1.0  0.83094  0.67004  0.56714  1.0000
  C   C919      1.0  0.66282  0.78276  0.5775800000000002  1.0000
  C   C920      1.0  0.62183  0.76978  0.5778500000000001  1.0000
  C   C921      1.0  0.47608  0.3705  0.5061500000000001  1.0000
  C   C922      1.0  0.46246  0.41129  0.50494  1.0000
  C   C923      1.0  0.41729  0.42207  0.50459  1.0000
  C   C924      1.0  0.40974  0.46652  0.50047  1.0000
  C   C925      1.0  0.36895  0.47992  0.59897  1.0000
  Ni  Ni47      1.0  0.49834  0.5004  0.49769  1.0000
  C   C926      1.0  0.41010000000000013  0.53536  0.59492  1.0000
  C   C927      1.0  0.36918  0.52201  0.5964300000000001  1.0000
  C   C928      1.0  0.57885  0.42176  0.5048100000000001  1.0000
  H   H369      1.0  0.4594  0.65822  0.5885800000000001  1.0000
  H   H370      1.0  0.5411900000000002  0.65719  0.5885500000000001  1.0000
  H   H371      1.0  0.65596  0.5389  0.5955500000000001  1.0000
  H   H372      1.0  0.65539  0.46033  0.4999800000000001  1.0000
  N   N345      1.0  0.49879  0.5627  0.5919400000000002  1.0000
  N   N346      1.0  0.5595100000000002  0.49992999999999993  0.4977000000000001  1.0000
  N   N347      1.0  0.49807  0.43812  0.5034400000000001  1.0000
  N   N348      1.0  0.4371000000000001  0.50085  0.59769  1.0000
  H   H373      1.0  0.5383900000000003  0.34302  0.50683  1.0000
  H   H374      1.0  0.4566400000000001  0.34318  0.50671  1.0000
  H   H375      1.0  0.34108  0.46125  0.49996  1.0000
  H   H376      1.0  0.34153  0.54071  0.59546  1.0000
  C   C929      1.0  0.46363  0.59004  0.59042  1.0000
  C   C930      1.0  0.47823  0.63063  0.5892  1.0000
  C   C931      1.0  0.52147  0.63009  0.58914  1.0000
  C   C932      1.0  0.53471  0.58917  0.5903  1.0000
  C   C933      1.0  0.5798  0.57779  0.5905800000000001  1.0000
  C   C934      1.0  0.58705  0.53383  0.59487  1.0000
  C   C935      1.0  0.6278900000000002  0.52055  0.49647  1.0000
  C   C936      1.0  0.6276100000000002  0.47883  0.499  1.0000
  C   C937      1.0  0.5866100000000002  0.46579  0.50055  1.0000
  C   C938      1.0  0.4180300000000001  0.57993  0.59079  1.0000
  C   C939      1.0  0.53345  0.41111  0.5050700000000001  1.0000
  C   C940      1.0  0.51929  0.37039  0.50622  1.0000
  C   C941      1.0  0.9788  0.62791  0.5564  1.0000
  C   C942      1.0  0.96469  0.58718  0.5552  1.0000
  C   C943      1.0  0.9193700000000002  0.57635  0.5548200000000001  1.0000
  C   C944      1.0  0.9116000000000002  0.5323500000000001  0.55048  1.0000
  C   C945      1.0  0.8706300000000002  0.51922  0.5488900000000001  1.0000
  Ni  Ni48      1.0  0.99986  0.49814  0.54759  1.0000
  C   C946      1.0  0.91129  0.46432  0.54472  1.0000
  C   C947      1.0  0.87043  0.47749  0.5463300000000001  1.0000
  C   C948      1.0  0.08085000000000003  0.57611  0.5549400000000001  1.0000
  H   H377      1.0  0.958  0.34119  0.5381300000000001  1.0000
  H   H378      1.0  0.03984  0.34096  0.5380700000000002  1.0000
  H   H379      1.0  0.15696  0.45878  0.5453  1.0000
  H   H380      1.0  0.15720000000000006  0.53758  0.5499900000000001  1.0000
  N   N349      1.0  0.9996100000000001  0.43599  0.54157  1.0000
  N   N350      1.0  0.061  0.49802  0.5476  1.0000
  N   N351      1.0  7.000000000000008e-05  0.56028  0.5536000000000001  1.0000
  N   N352      1.0  0.93874  0.4983  0.54759  1.0000
  H   H381      1.0  0.04143  0.6551200000000001  0.55693  1.0000
  H   H382      1.0  0.95969  0.65527  0.55696  1.0000
  H   H383      1.0  0.84281  0.53767  0.54987  1.0000
  H   H384      1.0  0.8424000000000003  0.45908  0.5453700000000001  1.0000
  C   C949      1.0  0.9638700000000002  0.40927  0.5399600000000001  1.0000
  C   C950      1.0  0.97748  0.36847  0.53872  1.0000
  C   C951      1.0  0.02076  0.36834  0.5386800000000002  1.0000
  C   C952      1.0  0.03501  0.40907  0.5399000000000002  1.0000
  C   C953      1.0  0.08044  0.41986  0.5402400000000002  1.0000
  C   C954      1.0  0.08817  0.46396  0.54466  1.0000
  C   C955      1.0  0.12912  0.47722  0.5462900000000002  1.0000
  C   C956      1.0  0.12925000000000006  0.51902  0.54895  1.0000
  C   C957      1.0  0.08837000000000003  0.53211  0.5505500000000001  1.0000
  C   C958      1.0  0.9186700000000002  0.42037  0.5403700000000001  1.0000
  C   C959      1.0  0.035700000000000016  0.58706  0.55524  1.0000
  C   C960      1.0  0.022030000000000008  0.62783  0.55641  1.0000
  N   N353      1.0  0.11936000000000002  0.10355  0.53605  1.0000
  N   N354      1.0  0.12727000000000002  0.14268  0.53076  1.0000
  N   N355      1.0  0.11681000000000001  0.8932  0.5587500000000001  1.0000
  N   N356      1.0  0.12316  0.85385  0.5638600000000001  1.0000
  N   N357      1.0  0.394  0.87516  0.5872700000000001  1.0000
  N   N358      1.0  0.35366  0.87257  0.5833700000000002  1.0000
  N   N359      1.0  0.36980000000000013  0.13882  0.5127  1.0000
  N   N360      1.0  0.37685  0.09907  0.5084400000000001  1.0000
  N   N361      1.0  0.8769300000000002  0.89353  0.5584500000000001  1.0000
  N   N362      1.0  0.87085  0.85415  0.56356  1.0000
  N   N363      1.0  0.87631  0.10443  0.53634  1.0000
  N   N364      1.0  0.86889  0.1437  0.53136  1.0000
  N   N365      1.0  0.62659  0.14377  0.51392  1.0000
  N   N366      1.0  0.61957  0.10444000000000003  0.50883  1.0000
  N   N367      1.0  0.6248100000000002  0.89386  0.5870600000000001  1.0000
  N   N368      1.0  0.63118  0.8545100000000002  0.582  1.0000
  N   N369      1.0  0.62069  0.60458  0.58672  1.0000
  N   N370      1.0  0.62862  0.64371  0.5814600000000001  1.0000
  N   N371      1.0  0.62692  0.35512  0.51369  1.0000
  N   N372      1.0  0.61939  0.39441  0.50868  1.0000
  N   N373      1.0  0.86991  0.35428  0.5313200000000001  1.0000
  N   N374      1.0  0.87782  0.39344  0.53652  1.0000
  N   N375      1.0  0.87144  0.64281  0.5637700000000001  1.0000
  N   N376      1.0  0.8788600000000002  0.60355  0.55869  1.0000
  N   N377      1.0  0.37713  0.39372  0.5084  1.0000
  N   N378      1.0  0.37056  0.35403  0.51282  1.0000
  N   N379      1.0  0.37088  0.64828  0.5828100000000002  1.0000
  N   N380      1.0  0.3779200000000001  0.60851  0.5869500000000001  1.0000
  N   N381      1.0  0.12839  0.64282  0.5643000000000001  1.0000
  N   N382      1.0  0.12137  0.60351  0.5589  1.0000
  N   N383      1.0  0.12854000000000004  0.35331  0.53109  1.0000
  N   N384      1.0  0.12102  0.3926  0.53624  1.0000
  C   C961      1.0  0.97647  0.12886  0.63849  1.0000
  C   C962      1.0  0.9622300000000003  0.08814  0.63972  1.0000
  C   C963      1.0  0.9168500000000003  0.07727  0.6401300000000002  1.0000
  C   C964      1.0  0.90908  0.03324  0.64441  1.0000
  C   C965      1.0  0.8681400000000002  0.0199  0.64597  1.0000
  Ni  Ni49      1.0  0.99728  0.9991599999999999  0.6472400000000003  1.0000
  C   C966      1.0  0.90902  0.96516  0.65012  1.0000
  C   C967      1.0  0.86812  0.97809  0.64852  1.0000
  C   C968      1.0  0.07850000000000003  0.07672  0.6399700000000001  1.0000
  H   H385      1.0  0.9555700000000003  0.84221  0.65645  1.0000
  H   H386      1.0  0.03723000000000001  0.842  0.65658  1.0000
  H   H387      1.0  0.15384000000000006  0.95907  0.6492200000000002  1.0000
  H   H388      1.0  0.15471  0.03773  0.64487  1.0000
  N   N385      1.0  0.997  0.9371  0.65319  1.0000
  N   N386      1.0  0.058270000000000016  0.9989200000000001  0.6472300000000002  1.0000
  N   N387      1.0  0.9976  0.06124000000000002  0.6412900000000002  1.0000
  N   N388      1.0  0.93627  0.9992700000000001  0.6472600000000002  1.0000
  H   H389      1.0  0.039250000000000014  0.15599  0.63786  1.0000
  H   H390      1.0  0.95741  0.15625  0.63791  1.0000
  H   H391      1.0  0.8402700000000002  0.03827  0.64496  1.0000
  H   H392      1.0  0.84028  0.95942  0.6494200000000001  1.0000
  C   C969      1.0  0.96158  0.9103  0.65477  1.0000
  C   C970      1.0  0.9750100000000003  0.8694800000000003  0.6559500000000003  1.0000
  C   C971      1.0  0.01813  0.86936  0.6560100000000002  1.0000
  C   C972      1.0  0.03209  0.91013  0.65484  1.0000
  C   C973      1.0  0.07705  0.92089  0.6545500000000002  1.0000
  C   C974      1.0  0.08518  0.96478  0.65012  1.0000
  C   C975      1.0  0.1262  0.97768  0.64844  1.0000
  C   C976      1.0  0.12661  0.01944  0.64588  1.0000
  C   C977      1.0  0.0858  0.03278  0.6443100000000003  1.0000
  C   C978      1.0  0.9168100000000002  0.92128  0.6544300000000002  1.0000
  C   C979      1.0  0.03335  0.08791  0.6396500000000003  1.0000
  C   C980      1.0  0.01976  0.12872  0.6384600000000002  1.0000
  C   C981      1.0  0.11802000000000003  0.72659  0.66798  1.0000
  C   C982      1.0  0.15935  0.71474  0.6684200000000002  1.0000
  C   C983      1.0  0.16835  0.67107  0.6677700000000001  1.0000
  C   C984      1.0  0.21396  0.66158  0.6709700000000001  1.0000
  C   C985      1.0  0.22893000000000002  0.62128  0.67222  1.0000
  Ni  Ni50      1.0  0.24667  0.75178  0.67358  1.0000
  C   C986      1.0  0.28506  0.66389  0.67603  1.0000
  C   C987      1.0  0.27217  0.62268  0.6746700000000002  1.0000
  C   C988      1.0  0.16349  0.82692  0.66758  1.0000
  H   H393      1.0  0.40524  0.71896  0.5802000000000002  1.0000
  H   H394      1.0  0.4022  0.7989100000000002  0.5801700000000002  1.0000
  H   H395      1.0  0.28048  0.91034  0.6756700000000001  1.0000
  H   H396      1.0  0.19942  0.90688  0.6715800000000001  1.0000
  N   N389      1.0  0.3082200000000001  0.75461  0.67798  1.0000
  N   N390      1.0  0.24384000000000006  0.81354  0.67343  1.0000
  N   N391      1.0  0.18558  0.74962  0.6693600000000002  1.0000
  N   N392      1.0  0.24879  0.68956  0.67356  1.0000
  H   H397      1.0  0.08837000000000003  0.78599  0.66767  1.0000
  H   H398      1.0  0.09065000000000002  0.70729  0.6679200000000001  1.0000
  H   H399      1.0  0.21038  0.59334  0.6712500000000001  1.0000
  H   H400      1.0  0.2921  0.59594  0.67553  1.0000
  C   C989      1.0  0.33656  0.72118  0.6790800000000001  1.0000
  C   C990      1.0  0.37686  0.73661  0.6798500000000002  1.0000
  C   C991      1.0  0.37532  0.77902  0.67993  1.0000
  C   C992      1.0  0.3340800000000001  0.79057  0.67928  1.0000
  C   C993      1.0  0.32285  0.83458  0.67947  1.0000
  C   C994      1.0  0.27763  0.84183  0.67593  1.0000
  C   C995      1.0  0.26239  0.88209  0.6746400000000002  1.0000
  C   C996      1.0  0.21961000000000006  0.8804  0.67224  1.0000
  C   C997      1.0  0.20773000000000005  0.83914  0.6708600000000002  1.0000
  C   C998      1.0  0.33017  0.67601  0.6793700000000003  1.0000
  C   C999      1.0  0.15717  0.78273  0.66828  1.0000
  C   C1000     1.0  0.11672000000000003  0.76832  0.66788  1.0000
  C   C1001     1.0  0.4854  0.86563  0.69023  1.0000
  C   C1002     1.0  0.47014  0.9058700000000002  0.69124  1.0000
  C   C1003     1.0  0.42487  0.91309  0.69117  1.0000
  C   C1004     1.0  0.4136200000000001  0.95703  0.69502  1.0000
  C   C1005     1.0  0.37236  0.96852  0.69654  1.0000
  Ni  Ni51      1.0  0.50116  0.99574  0.5979900000000001  1.0000
  C   C1006     1.0  0.4111500000000001  0.0263  0.70062  1.0000
  C   C1007     1.0  0.3708300000000001  0.01092  0.6991500000000003  1.0000
  C   C1008     1.0  0.5844400000000002  0.92074  0.5910500000000001  1.0000
  H   H401      1.0  0.45577  0.15138  0.7068000000000002  1.0000
  H   H402      1.0  0.53751  0.15396  0.6069800000000001  1.0000
  H   H403      1.0  0.65732  0.04025  0.5998200000000002  1.0000
  H   H404      1.0  0.65959  0.96154  0.5955200000000002  1.0000
  N   N393      1.0  0.49905  0.0578  0.7036000000000002  1.0000
  N   N394      1.0  0.56236  0.99789  0.59798  1.0000
  N   N395      1.0  0.50398  0.93415  0.5925200000000003  1.0000
  N   N396      1.0  0.43951  0.99292  0.6978600000000001  1.0000
  H   H405      1.0  0.54836  0.84086  0.5897700000000001  1.0000
  H   H406      1.0  0.46731  0.83739  0.6897800000000001  1.0000
  H   H407      1.0  0.34549  0.94861  0.69572  1.0000
  H   H408      1.0  0.34247  0.02856  0.7002700000000002  1.0000
  C   C1009     1.0  0.4627500000000001  0.08346  0.7050600000000002  1.0000
  C   C1010     1.0  0.47569  0.12463999999999999  0.70626  1.0000
  C   C1011     1.0  0.51895  0.12603  0.60636  1.0000
  C   C1012     1.0  0.53393  0.08574  0.6052400000000001  1.0000
  C   C1013     1.0  0.57958  0.07628  0.60496  1.0000
  C   C1014     1.0  0.5886  0.03271  0.60071  1.0000
  C   C1015     1.0  0.62995  0.02092  0.59906  1.0000
  C   C1016     1.0  0.63125  0.97921  0.5965700000000002  1.0000
  C   C1017     1.0  0.5907800000000002  0.96484  0.5951400000000002  1.0000
  C   C1018     1.0  0.4175800000000001  0.07139  0.7047000000000002  1.0000
  C   C1019     1.0  0.54013  0.90856  0.5909900000000001  1.0000
  C   C1020     1.0  0.5282000000000002  0.86733  0.5901200000000001  1.0000
  C   C1021     1.0  0.12005  0.22693  0.62719  1.0000
  C   C1022     1.0  0.16087000000000007  0.21361  0.62677  1.0000
  C   C1023     1.0  0.16812  0.16955  0.62738  1.0000
  C   C1024     1.0  0.21316  0.15815  0.6242500000000002  1.0000
  C   C1025     1.0  0.22637  0.11722  0.62295  1.0000
  Ni  Ni52      1.0  0.24948  0.24712  0.62182  1.0000
  C   C1026     1.0  0.28416  0.15731000000000006  0.6193100000000001  1.0000
  C   C1027     1.0  0.26959  0.11669  0.62055  1.0000
  C   C1028     1.0  0.16905  0.3259  0.62759  1.0000
  H   H409      1.0  0.40617  0.20685  0.6158400000000002  1.0000
  H   H410      1.0  0.40660000000000013  0.28631  0.6158700000000003  1.0000
  H   H411      1.0  0.29114  0.40456  0.6199  1.0000
  H   H412      1.0  0.20941000000000007  0.4047100000000001  0.6241200000000001  1.0000
  N   N397      1.0  0.3106200000000001  0.24668  0.6177400000000001  1.0000
  N   N398      1.0  0.24973  0.30956  0.62192  1.0000
  N   N399      1.0  0.18840000000000007  0.24758  0.62584  1.0000
  N   N400      1.0  0.24904  0.18466  0.6217800000000002  1.0000
  H   H413      1.0  0.09253  0.28717  0.62743  1.0000
  H   H414      1.0  0.09198  0.2086  0.6273200000000001  1.0000
  H   H415      1.0  0.20665  0.0901  0.62377  1.0000
  H   H416      1.0  0.2884200000000001  0.08911  0.6195700000000002  1.0000
  C   C1029     1.0  0.33762  0.21213  0.6166600000000001  1.0000
  C   C1030     1.0  0.37851  0.22553  0.61613  1.0000
  C   C1031     1.0  0.37873  0.26764  0.61615  1.0000
  C   C1032     1.0  0.33796  0.28108  0.6167200000000002  1.0000
  C   C1033     1.0  0.3304200000000001  0.32562  0.61626  1.0000
  C   C1034     1.0  0.28531  0.33642  0.61947  1.0000
  C   C1035     1.0  0.27171  0.37724  0.62078  1.0000
  C   C1036     1.0  0.22851000000000005  0.37734  0.6232  1.0000
  C   C1037     1.0  0.21440000000000006  0.33659  0.6244500000000001  1.0000
  C   C1038     1.0  0.3297  0.16747  0.6161400000000001  1.0000
  C   C1039     1.0  0.1613  0.28178  0.6268700000000003  1.0000
  C   C1040     1.0  0.12033  0.2686700000000001  0.6272400000000002  1.0000
  C   C1041     1.0  0.6187  0.22846  0.6173800000000003  1.0000
  C   C1042     1.0  0.65957  0.21532  0.61781  1.0000
  C   C1043     1.0  0.66709  0.17123  0.6172200000000001  1.0000
  C   C1044     1.0  0.7121800000000003  0.16022  0.6202900000000002  1.0000
  C   C1045     1.0  0.7258000000000002  0.11943  0.62158  1.0000
  Ni  Ni53      1.0  0.74798  0.24935  0.62259  1.0000
  C   C1046     1.0  0.78311  0.1601  0.6250600000000001  1.0000
  C   C1047     1.0  0.76902  0.11935  0.62389  1.0000
  C   C1048     1.0  0.66748  0.32779  0.6170700000000001  1.0000
  H   H417      1.0  0.90492  0.20982  0.6279400000000003  1.0000
  H   H418      1.0  0.90532  0.2884  0.6279000000000001  1.0000
  H   H419      1.0  0.78983  0.40653  0.62456  1.0000
  H   H420      1.0  0.7080100000000003  0.40676  0.6204900000000001  1.0000
  N   N401      1.0  0.80901  0.24918  0.62643  1.0000
  N   N402      1.0  0.74823  0.31168  0.62255  1.0000
  N   N403      1.0  0.6869300000000003  0.24946999999999997  0.61874  1.0000
  N   N404      1.0  0.74778  0.18703  0.62265  1.0000
  H   H421      1.0  0.59098  0.2887  0.71715  1.0000
  H   H422      1.0  0.5907499999999999  0.2099  0.7171900000000002  1.0000
  H   H423      1.0  0.70639  0.09213000000000003  0.62088  1.0000
  H   H424      1.0  0.7881300000000002  0.09198  0.6248000000000002  1.0000
  C   C1049     1.0  0.8361400000000002  0.21507  0.6273900000000002  1.0000
  C   C1050     1.0  0.8771000000000002  0.22825  0.62777  1.0000
  C   C1051     1.0  0.87729  0.27  0.6277500000000001  1.0000
  C   C1052     1.0  0.83644  0.28323  0.6273600000000003  1.0000
  C   C1053     1.0  0.82908  0.32728  0.62801  1.0000
  C   C1054     1.0  0.7839300000000002  0.33842  0.62496  1.0000
  C   C1055     1.0  0.77035  0.37925  0.62372  1.0000
  C   C1056     1.0  0.72708  0.37937  0.62136  1.0000
  C   C1057     1.0  0.71287  0.33863  0.6201300000000002  1.0000
  C   C1058     1.0  0.82839  0.17097  0.6280500000000001  1.0000
  C   C1059     1.0  0.65977  0.2836  0.6177400000000001  1.0000
  C   C1060     1.0  0.61883  0.27028  0.7173500000000003  1.0000
  C   C1061     1.0  0.62141  0.72801  0.6778100000000002  1.0000
  C   C1062     1.0  0.66219  0.71462  0.6774700000000002  1.0000
  C   C1063     1.0  0.66947  0.67058  0.67812  1.0000
  C   C1064     1.0  0.71457  0.65935  0.6750600000000001  1.0000
  C   C1065     1.0  0.72812  0.61851  0.6738  1.0000
  Ni  Ni54      1.0  0.75061  0.74831  0.6726800000000001  1.0000
  C   C1066     1.0  0.7856  0.65912  0.6702  1.0000
  C   C1067     1.0  0.7713900000000002  0.61838  0.6714400000000003  1.0000
  C   C1068     1.0  0.6709300000000002  0.82674  0.67837  1.0000
  H   H425      1.0  0.9075000000000002  0.70917  0.6672000000000002  1.0000
  H   H426      1.0  0.90748  0.78801  0.66724  1.0000
  H   H427      1.0  0.79234  0.90549  0.6708300000000003  1.0000
  H   H428      1.0  0.71069  0.9057  0.6749700000000002  1.0000
  N   N405      1.0  0.8115200000000002  0.74819  0.6687600000000002  1.0000
  N   N406      1.0  0.75089  0.81055  0.6727400000000001  1.0000
  N   N407      1.0  0.68972  0.74854  0.6765800000000001  1.0000
  N   N408      1.0  0.75028  0.68605  0.67264  1.0000
  H   H429      1.0  0.59418  0.78834  0.6778400000000002  1.0000
  H   H430      1.0  0.5933000000000003  0.70974  0.6778700000000002  1.0000
  H   H431      1.0  0.70863  0.59124  0.6746400000000002  1.0000
  H   H432      1.0  0.79046  0.59098  0.6705600000000003  1.0000
  C   C1069     1.0  0.8386900000000003  0.71416  0.6677800000000003  1.0000
  C   C1070     1.0  0.8796200000000002  0.72754  0.66737  1.0000
  C   C1071     1.0  0.87964  0.76937  0.66737  1.0000
  C   C1072     1.0  0.8387600000000002  0.78236  0.6677700000000001  1.0000
  C   C1073     1.0  0.8309900000000002  0.82633  0.6671100000000002  1.0000
  C   C1074     1.0  0.7862700000000002  0.83736  0.67027  1.0000
  C   C1075     1.0  0.7728900000000001  0.87821  0.67161  1.0000
  C   C1076     1.0  0.7297900000000003  0.87833  0.6740300000000002  1.0000
  C   C1077     1.0  0.71584  0.83755  0.67527  1.0000
  C   C1078     1.0  0.83094  0.67004  0.6671400000000002  1.0000
  C   C1079     1.0  0.66282  0.78275  0.67758  1.0000
  C   C1080     1.0  0.62183  0.76978  0.67785  1.0000
  C   C1081     1.0  0.47608  0.3705  0.60615  1.0000
  C   C1082     1.0  0.46245000000000014  0.4113  0.6049400000000001  1.0000
  C   C1083     1.0  0.4172800000000001  0.42207  0.60459  1.0000
  C   C1084     1.0  0.40973  0.46652  0.6004700000000001  1.0000
  C   C1085     1.0  0.36895  0.47992  0.6989700000000002  1.0000
  Ni  Ni55      1.0  0.49834  0.50041  0.59769  1.0000
  C   C1086     1.0  0.41009  0.53535  0.69492  1.0000
  C   C1087     1.0  0.36918  0.52201  0.6964300000000002  1.0000
  C   C1088     1.0  0.57884  0.42176  0.6048100000000001  1.0000
  H   H433      1.0  0.4594  0.6582100000000002  0.68858  1.0000
  H   H434      1.0  0.5411900000000002  0.65719  0.68855  1.0000
  H   H435      1.0  0.65596  0.53889  0.6955500000000002  1.0000
  H   H436      1.0  0.65539  0.46033  0.5999800000000001  1.0000
  N   N409      1.0  0.49878000000000006  0.5627  0.69194  1.0000
  N   N410      1.0  0.5595100000000002  0.49992999999999993  0.5977000000000001  1.0000
  N   N411      1.0  0.49807  0.43812  0.6034400000000001  1.0000
  N   N412      1.0  0.4371000000000001  0.50085  0.6976900000000003  1.0000
  H   H437      1.0  0.5383900000000003  0.34302  0.6068300000000002  1.0000
  H   H438      1.0  0.4566400000000001  0.34319  0.60671  1.0000
  H   H439      1.0  0.34108  0.4612600000000001  0.59996  1.0000
  H   H440      1.0  0.34153  0.5407  0.6954600000000002  1.0000
  C   C1089     1.0  0.46362  0.59004  0.69042  1.0000
  C   C1090     1.0  0.47823  0.63063  0.6892  1.0000
  C   C1091     1.0  0.52147  0.63009  0.6891400000000001  1.0000
  C   C1092     1.0  0.53471  0.58917  0.6903000000000001  1.0000
  C   C1093     1.0  0.5798  0.57779  0.6905800000000002  1.0000
  C   C1094     1.0  0.58705  0.53383  0.6948700000000001  1.0000
  C   C1095     1.0  0.62788  0.52056  0.59647  1.0000
  C   C1096     1.0  0.6276  0.47884  0.599  1.0000
  C   C1097     1.0  0.5866100000000002  0.46579  0.6005500000000001  1.0000
  C   C1098     1.0  0.4180300000000001  0.57992  0.6907900000000001  1.0000
  C   C1099     1.0  0.53344  0.41111  0.60507  1.0000
  C   C1100     1.0  0.51929  0.37039  0.6062200000000002  1.0000
  C   C1101     1.0  0.9788  0.62791  0.6564000000000001  1.0000
  C   C1102     1.0  0.96469  0.58718  0.6552  1.0000
  C   C1103     1.0  0.9193700000000002  0.57635  0.6548200000000002  1.0000
  C   C1104     1.0  0.9116000000000002  0.5323500000000001  0.65048  1.0000
  C   C1105     1.0  0.8706300000000002  0.51922  0.64889  1.0000
  Ni  Ni56      1.0  0.99986  0.49814  0.6475900000000001  1.0000
  C   C1106     1.0  0.91129  0.46432  0.64472  1.0000
  C   C1107     1.0  0.87043  0.47749  0.64633  1.0000
  C   C1108     1.0  0.08085000000000003  0.57611  0.6549400000000002  1.0000
  H   H441      1.0  0.958  0.34119  0.63813  1.0000
  H   H442      1.0  0.03984  0.34096  0.63807  1.0000
  H   H443      1.0  0.15696  0.45878  0.6453  1.0000
  H   H444      1.0  0.15720000000000006  0.53758  0.64999  1.0000
  N   N413      1.0  0.9996100000000001  0.43599  0.64157  1.0000
  N   N414      1.0  0.061  0.49802  0.6476000000000002  1.0000
  N   N415      1.0  7.000000000000008e-05  0.56028  0.6536000000000002  1.0000
  N   N416      1.0  0.93874  0.4983  0.6475900000000001  1.0000
  H   H445      1.0  0.04143  0.6551200000000001  0.6569300000000002  1.0000
  H   H446      1.0  0.95969  0.65527  0.6569600000000002  1.0000
  H   H447      1.0  0.84281  0.53767  0.64987  1.0000
  H   H448      1.0  0.8424000000000003  0.45908  0.6453700000000002  1.0000
  C   C1109     1.0  0.9638700000000002  0.40927  0.63996  1.0000
  C   C1110     1.0  0.97748  0.36847  0.6387200000000001  1.0000
  C   C1111     1.0  0.02077  0.36834  0.63868  1.0000
  C   C1112     1.0  0.03501  0.40907  0.6399  1.0000
  C   C1113     1.0  0.08044  0.41986  0.64024  1.0000
  C   C1114     1.0  0.08817  0.46396  0.64466  1.0000
  C   C1115     1.0  0.12912  0.47722  0.6462900000000003  1.0000
  C   C1116     1.0  0.12925000000000006  0.51902  0.64895  1.0000
  C   C1117     1.0  0.08837000000000003  0.53211  0.6505500000000002  1.0000
  C   C1118     1.0  0.9186700000000002  0.42037  0.6403700000000002  1.0000
  C   C1119     1.0  0.035700000000000016  0.58706  0.65524  1.0000
  C   C1120     1.0  0.022040000000000008  0.62783  0.6564100000000003  1.0000
  N   N417      1.0  0.11936000000000002  0.10355  0.6360500000000002  1.0000
  N   N418      1.0  0.12726  0.14268  0.63076  1.0000
  N   N419      1.0  0.11681000000000001  0.8932  0.6587500000000002  1.0000
  N   N420      1.0  0.12315000000000002  0.85385  0.66386  1.0000
  N   N421      1.0  0.394  0.87516  0.68727  1.0000
  N   N422      1.0  0.35366  0.87256  0.68337  1.0000
  N   N423      1.0  0.36980000000000013  0.13883  0.6127000000000002  1.0000
  N   N424      1.0  0.37685  0.09907  0.6084400000000001  1.0000
  N   N425      1.0  0.8769300000000002  0.89353  0.6584500000000002  1.0000
  N   N426      1.0  0.87085  0.85415  0.66356  1.0000
  N   N427      1.0  0.87631  0.10444000000000003  0.63634  1.0000
  N   N428      1.0  0.8688800000000002  0.1437  0.63136  1.0000
  N   N429      1.0  0.62659  0.14377  0.61392  1.0000
  N   N430      1.0  0.61957  0.10444000000000003  0.60883  1.0000
  N   N431      1.0  0.6248100000000002  0.89386  0.68706  1.0000
  N   N432      1.0  0.63118  0.8545  0.682  1.0000
  N   N433      1.0  0.62069  0.60458  0.68672  1.0000
  N   N434      1.0  0.62862  0.6437  0.6814600000000001  1.0000
  N   N435      1.0  0.62692  0.35512  0.61369  1.0000
  N   N436      1.0  0.61939  0.39442  0.60868  1.0000
  N   N437      1.0  0.86991  0.35428  0.6313200000000002  1.0000
  N   N438      1.0  0.87782  0.39344  0.63652  1.0000
  N   N439      1.0  0.87144  0.64281  0.66377  1.0000
  N   N440      1.0  0.8788600000000002  0.60355  0.6586900000000001  1.0000
  N   N441      1.0  0.37713  0.39372  0.6084000000000002  1.0000
  N   N442      1.0  0.3705500000000001  0.35403  0.6128200000000001  1.0000
  N   N443      1.0  0.37087  0.64827  0.6828100000000003  1.0000
  N   N444      1.0  0.3779200000000001  0.60851  0.6869500000000002  1.0000
  N   N445      1.0  0.12839  0.64282  0.6643000000000002  1.0000
  N   N446      1.0  0.12137  0.60351  0.65889  1.0000
  N   N447      1.0  0.12854000000000004  0.35331  0.63109  1.0000
  N   N448      1.0  0.12102  0.3926  0.63624  1.0000
  C   C1121     1.0  0.9764800000000002  0.12886  0.73849  1.0000
  C   C1122     1.0  0.9622300000000003  0.08814  0.7397200000000003  1.0000
  C   C1123     1.0  0.9168500000000003  0.07727  0.74013  1.0000
  C   C1124     1.0  0.90908  0.03324  0.7444100000000001  1.0000
  C   C1125     1.0  0.8681400000000002  0.0199  0.7459700000000002  1.0000
  Ni  Ni57      1.0  0.99728  0.9991599999999999  0.74724  1.0000
  C   C1126     1.0  0.90903  0.96516  0.7501200000000002  1.0000
  C   C1127     1.0  0.86813  0.97809  0.7485200000000001  1.0000
  C   C1128     1.0  0.07850000000000003  0.07672  0.7399700000000002  1.0000
  H   H449      1.0  0.9555800000000002  0.84222  0.7564500000000001  1.0000
  H   H450      1.0  0.03723000000000001  0.842  0.7565800000000003  1.0000
  H   H451      1.0  0.15385  0.95907  0.74922  1.0000
  H   H452      1.0  0.15471  0.03773  0.7448700000000001  1.0000
  N   N449      1.0  0.997  0.9371  0.7531900000000001  1.0000
  N   N450      1.0  0.058270000000000016  0.9989200000000001  0.74723  1.0000
  N   N451      1.0  0.9976  0.06124000000000002  0.74129  1.0000
  N   N452      1.0  0.93627  0.99928  0.7472600000000003  1.0000
  H   H453      1.0  0.03926  0.15599  0.7378600000000002  1.0000
  H   H454      1.0  0.95741  0.15625  0.73791  1.0000
  H   H455      1.0  0.8402700000000002  0.03827  0.7449600000000002  1.0000
  H   H456      1.0  0.84029  0.95942  0.7494200000000002  1.0000
  C   C1129     1.0  0.96159  0.91031  0.75477  1.0000
  C   C1130     1.0  0.97502  0.8694800000000003  0.75595  1.0000
  C   C1131     1.0  0.01813  0.86936  0.75601  1.0000
  C   C1132     1.0  0.03210000000000001  0.91013  0.7548400000000002  1.0000
  C   C1133     1.0  0.07705  0.92089  0.75455  1.0000
  C   C1134     1.0  0.08519  0.96478  0.7501200000000002  1.0000
  C   C1135     1.0  0.1262  0.97769  0.7484400000000002  1.0000
  C   C1136     1.0  0.12661  0.01944  0.7458800000000002  1.0000
  C   C1137     1.0  0.08581000000000003  0.03278  0.74431  1.0000
  C   C1138     1.0  0.91682  0.92129  0.75443  1.0000
  C   C1139     1.0  0.03335  0.08792  0.73965  1.0000
  C   C1140     1.0  0.01976  0.12873  0.73846  1.0000
  C   C1141     1.0  0.11803  0.72659  0.7679800000000002  1.0000
  C   C1142     1.0  0.15936  0.71474  0.76842  1.0000
  C   C1143     1.0  0.16836  0.67107  0.7677700000000002  1.0000
  C   C1144     1.0  0.21397000000000005  0.66159  0.77098  1.0000
  C   C1145     1.0  0.22894000000000006  0.62129  0.7722200000000002  1.0000
  Ni  Ni58      1.0  0.24668  0.75178  0.77358  1.0000
  C   C1146     1.0  0.28506  0.66389  0.7760300000000002  1.0000
  C   C1147     1.0  0.27217  0.62269  0.77467  1.0000
  C   C1148     1.0  0.16349  0.82692  0.7675800000000002  1.0000
  H   H457      1.0  0.40524  0.71896  0.6802  1.0000
  H   H458      1.0  0.4022  0.7989100000000002  0.6801600000000002  1.0000
  H   H459      1.0  0.28048  0.91034  0.77567  1.0000
  H   H460      1.0  0.19942  0.90688  0.7715800000000003  1.0000
  N   N453      1.0  0.30823  0.75461  0.7779800000000002  1.0000
  N   N454      1.0  0.24385000000000007  0.81354  0.7734300000000001  1.0000
  N   N455      1.0  0.18558  0.74962  0.7693600000000003  1.0000
  N   N456      1.0  0.2488  0.68956  0.7735600000000002  1.0000
  H   H461      1.0  0.08838  0.78599  0.7676700000000002  1.0000
  H   H462      1.0  0.09066  0.70729  0.7679200000000003  1.0000
  H   H463      1.0  0.21039000000000005  0.59334  0.77125  1.0000
  H   H464      1.0  0.29211  0.59594  0.77553  1.0000
  C   C1149     1.0  0.33657  0.72118  0.7790800000000002  1.0000
  C   C1150     1.0  0.3768700000000001  0.73661  0.77985  1.0000
  C   C1151     1.0  0.3753300000000001  0.77902  0.7799300000000002  1.0000
  C   C1152     1.0  0.33409  0.79057  0.7792800000000001  1.0000
  C   C1153     1.0  0.32285  0.83458  0.7794700000000002  1.0000
  C   C1154     1.0  0.27763  0.84183  0.7759300000000001  1.0000
  C   C1155     1.0  0.26239  0.88209  0.77464  1.0000
  C   C1156     1.0  0.21961000000000006  0.8804  0.77224  1.0000
  C   C1157     1.0  0.20774  0.83915  0.77086  1.0000
  C   C1158     1.0  0.33017  0.67601  0.77937  1.0000
  C   C1159     1.0  0.15718  0.78273  0.7682800000000002  1.0000
  C   C1160     1.0  0.11672000000000003  0.76832  0.7678800000000001  1.0000
  C   C1161     1.0  0.48541  0.8656400000000001  0.79022  1.0000
  C   C1162     1.0  0.47015  0.90588  0.7912400000000003  1.0000
  C   C1163     1.0  0.42487  0.9131  0.79117  1.0000
  C   C1164     1.0  0.4136200000000001  0.95703  0.7950200000000002  1.0000
  C   C1165     1.0  0.3723700000000001  0.96853  0.7965400000000001  1.0000
  Ni  Ni59      1.0  0.50116  0.99574  0.6979900000000002  1.0000
  C   C1166     1.0  0.41116  0.0263  0.8006200000000001  1.0000
  C   C1167     1.0  0.37084  0.01092  0.79915  1.0000
  C   C1168     1.0  0.5844400000000002  0.92073  0.69105  1.0000
  H   H465      1.0  0.45577  0.15139  0.8068  1.0000
  H   H466      1.0  0.53751  0.15396  0.7069800000000002  1.0000
  H   H467      1.0  0.65732  0.04025  0.6998200000000002  1.0000
  H   H468      1.0  0.65959  0.96154  0.6955200000000002  1.0000
  N   N457      1.0  0.49906  0.0578  0.8036  1.0000
  N   N458      1.0  0.56236  0.9978799999999999  0.69798  1.0000
  N   N459      1.0  0.50398  0.93414  0.69252  1.0000
  N   N460      1.0  0.43951  0.99293  0.7978600000000002  1.0000
  H   H469      1.0  0.54836  0.84085  0.68977  1.0000
  H   H470      1.0  0.4673200000000001  0.83739  0.7897800000000003  1.0000
  H   H471      1.0  0.3455  0.9486200000000002  0.7957200000000002  1.0000
  H   H472      1.0  0.34247  0.02856  0.8002700000000003  1.0000
  C   C1169     1.0  0.46276  0.08346  0.80506  1.0000
  C   C1170     1.0  0.4757  0.12463999999999999  0.8062600000000001  1.0000
  C   C1171     1.0  0.51895  0.12602  0.70636  1.0000
  C   C1172     1.0  0.53393  0.08574  0.70523  1.0000
  C   C1173     1.0  0.57958  0.07628  0.70496  1.0000
  C   C1174     1.0  0.5886  0.03271  0.7007100000000003  1.0000
  C   C1175     1.0  0.62995  0.02092  0.6990600000000002  1.0000
  C   C1176     1.0  0.63125  0.97921  0.69657  1.0000
  C   C1177     1.0  0.5907800000000002  0.96484  0.69514  1.0000
  C   C1178     1.0  0.4175800000000001  0.07139  0.8047  1.0000
  C   C1179     1.0  0.54013  0.90855  0.69099  1.0000
  C   C1180     1.0  0.5282000000000002  0.86733  0.6901200000000002  1.0000
  C   C1181     1.0  0.12005  0.22693  0.7271900000000002  1.0000
  C   C1182     1.0  0.16087000000000007  0.21361  0.7267700000000002  1.0000
  C   C1183     1.0  0.16812  0.16955  0.7273800000000002  1.0000
  C   C1184     1.0  0.21316  0.15815  0.72425  1.0000
  C   C1185     1.0  0.22637  0.11722  0.7229500000000001  1.0000
  Ni  Ni60      1.0  0.24948  0.24711  0.7218200000000001  1.0000
  C   C1186     1.0  0.28416  0.15731000000000006  0.71931  1.0000
  C   C1187     1.0  0.26959  0.11669  0.7205500000000002  1.0000
  C   C1188     1.0  0.16905  0.3259  0.7276  1.0000
  H   H473      1.0  0.40617  0.20685  0.71584  1.0000
  H   H474      1.0  0.40660000000000013  0.2863  0.71587  1.0000
  H   H475      1.0  0.29114  0.40456  0.7199000000000001  1.0000
  H   H476      1.0  0.20941000000000007  0.4047100000000001  0.7241200000000002  1.0000
  N   N461      1.0  0.3106200000000001  0.24668  0.7177400000000002  1.0000
  N   N462      1.0  0.24973  0.30956  0.7219200000000002  1.0000
  N   N463      1.0  0.18840000000000007  0.24758  0.72584  1.0000
  N   N464      1.0  0.24904  0.18466  0.72178  1.0000
  H   H477      1.0  0.09253  0.28717  0.7274300000000001  1.0000
  H   H478      1.0  0.09198  0.2086  0.7273200000000002  1.0000
  H   H479      1.0  0.20665  0.0901  0.7237700000000001  1.0000
  H   H480      1.0  0.2884200000000001  0.08911  0.7195700000000003  1.0000
  C   C1189     1.0  0.33761  0.21213  0.71666  1.0000
  C   C1190     1.0  0.37851  0.22553  0.7161300000000003  1.0000
  C   C1191     1.0  0.37873  0.26764  0.7161500000000001  1.0000
  C   C1192     1.0  0.33796  0.28108  0.71672  1.0000
  C   C1193     1.0  0.3304200000000001  0.32561  0.71626  1.0000
  C   C1194     1.0  0.28531  0.33642  0.71947  1.0000
  C   C1195     1.0  0.27171  0.37724  0.7207800000000001  1.0000
  C   C1196     1.0  0.22851000000000005  0.37734  0.7232000000000002  1.0000
  C   C1197     1.0  0.21440000000000006  0.33659  0.7244500000000003  1.0000
  C   C1198     1.0  0.3297  0.16747  0.71614  1.0000
  C   C1199     1.0  0.1613  0.28178  0.72687  1.0000
  C   C1200     1.0  0.12032  0.2686700000000001  0.72724  1.0000
  C   C1201     1.0  0.6187  0.22845  0.7173800000000002  1.0000
  C   C1202     1.0  0.65957  0.21532  0.71781  1.0000
  C   C1203     1.0  0.66709  0.17123  0.7172200000000002  1.0000
  C   C1204     1.0  0.7121800000000003  0.16022  0.72029  1.0000
  C   C1205     1.0  0.7258000000000002  0.11943  0.7215800000000002  1.0000
  Ni  Ni61      1.0  0.74798  0.24935  0.7225900000000002  1.0000
  C   C1206     1.0  0.78311  0.1601  0.7250600000000003  1.0000
  C   C1207     1.0  0.76902  0.11934  0.72389  1.0000
  C   C1208     1.0  0.66748  0.32779  0.7170700000000002  1.0000
  H   H481      1.0  0.90492  0.20982  0.72794  1.0000
  H   H482      1.0  0.90532  0.2884  0.7279000000000002  1.0000
  H   H483      1.0  0.78983  0.40653  0.72456  1.0000
  H   H484      1.0  0.7080100000000003  0.40676  0.7204900000000002  1.0000
  N   N465      1.0  0.80901  0.24918  0.7264300000000002  1.0000
  N   N466      1.0  0.74823  0.31168  0.72255  1.0000
  N   N467      1.0  0.6869300000000003  0.24946999999999997  0.71874  1.0000
  N   N468      1.0  0.74778  0.18703  0.7226500000000002  1.0000
  H   H485      1.0  0.5909900000000002  0.2887  0.8171500000000003  1.0000
  H   H486      1.0  0.5907499999999999  0.2099  0.81719  1.0000
  H   H487      1.0  0.70639  0.09213000000000003  0.7208800000000002  1.0000
  H   H488      1.0  0.7881300000000002  0.09198  0.7248  1.0000
  C   C1209     1.0  0.8361400000000002  0.21507  0.72739  1.0000
  C   C1210     1.0  0.8771000000000002  0.22826  0.7277700000000003  1.0000
  C   C1211     1.0  0.87729  0.27001  0.72775  1.0000
  C   C1212     1.0  0.83644  0.28323  0.72736  1.0000
  C   C1213     1.0  0.82908  0.32728  0.7280100000000002  1.0000
  C   C1214     1.0  0.7839300000000002  0.33842  0.7249600000000002  1.0000
  C   C1215     1.0  0.77035  0.37925  0.7237200000000003  1.0000
  C   C1216     1.0  0.72708  0.37937  0.72136  1.0000
  C   C1217     1.0  0.71287  0.33863  0.72013  1.0000
  C   C1218     1.0  0.82839  0.17097  0.7280500000000002  1.0000
  C   C1219     1.0  0.65977  0.28359  0.7177400000000002  1.0000
  C   C1220     1.0  0.61883  0.27028  0.81735  1.0000
  C   C1221     1.0  0.62142  0.72802  0.77781  1.0000
  C   C1222     1.0  0.6622  0.71462  0.77747  1.0000
  C   C1223     1.0  0.66947  0.67059  0.77812  1.0000
  C   C1224     1.0  0.71458  0.65935  0.77506  1.0000
  C   C1225     1.0  0.72813  0.61852  0.7738000000000002  1.0000
  Ni  Ni62      1.0  0.75061  0.74832  0.7726800000000003  1.0000
  C   C1226     1.0  0.7856100000000003  0.65913  0.7702000000000001  1.0000
  C   C1227     1.0  0.7714  0.61838  0.77144  1.0000
  C   C1228     1.0  0.67094  0.82674  0.7783700000000001  1.0000
  H   H489      1.0  0.9075000000000002  0.70918  0.7672  1.0000
  H   H490      1.0  0.90749  0.78801  0.76724  1.0000
  H   H491      1.0  0.79235  0.90549  0.77083  1.0000
  H   H492      1.0  0.71069  0.90571  0.7749700000000003  1.0000
  N   N469      1.0  0.81153  0.74819  0.76876  1.0000
  N   N470      1.0  0.7509000000000001  0.81055  0.7727400000000002  1.0000
  N   N471      1.0  0.6897300000000002  0.74855  0.7765800000000003  1.0000
  N   N472      1.0  0.75028  0.68605  0.7726400000000002  1.0000
  H   H493      1.0  0.59418  0.78835  0.77784  1.0000
  H   H494      1.0  0.59331  0.70974  0.7778600000000002  1.0000
  H   H495      1.0  0.70863  0.59124  0.77464  1.0000
  H   H496      1.0  0.79046  0.59099  0.77056  1.0000
  C   C1229     1.0  0.8387  0.71416  0.76778  1.0000
  C   C1230     1.0  0.8796300000000002  0.72754  0.7673700000000002  1.0000
  C   C1231     1.0  0.87965  0.76937  0.7673700000000002  1.0000
  C   C1232     1.0  0.8387600000000002  0.78237  0.7677700000000002  1.0000
  C   C1233     1.0  0.8309900000000002  0.82634  0.76711  1.0000
  C   C1234     1.0  0.78628  0.83737  0.7702700000000002  1.0000
  C   C1235     1.0  0.7728900000000001  0.87822  0.7716100000000002  1.0000
  C   C1236     1.0  0.7297900000000003  0.87834  0.77403  1.0000
  C   C1237     1.0  0.7158500000000002  0.83755  0.7752600000000002  1.0000
  C   C1238     1.0  0.83094  0.67004  0.76714  1.0000
  C   C1239     1.0  0.66282  0.78276  0.7775800000000002  1.0000
  C   C1240     1.0  0.62183  0.76978  0.7778500000000002  1.0000
  C   C1241     1.0  0.47608  0.3705  0.70615  1.0000
  C   C1242     1.0  0.46245000000000014  0.41129  0.7049400000000002  1.0000
  C   C1243     1.0  0.4172800000000001  0.42207  0.70459  1.0000
  C   C1244     1.0  0.40973  0.46652  0.70047  1.0000
  C   C1245     1.0  0.36896  0.47992  0.79897  1.0000
  Ni  Ni63      1.0  0.49833  0.50041  0.6976900000000003  1.0000
  C   C1246     1.0  0.41011  0.53536  0.7949200000000001  1.0000
  C   C1247     1.0  0.36919  0.52201  0.79643  1.0000
  C   C1248     1.0  0.57884  0.42176  0.7048100000000002  1.0000
  H   H497      1.0  0.45941  0.65822  0.7885800000000001  1.0000
  H   H498      1.0  0.5412  0.65719  0.7885500000000001  1.0000
  H   H499      1.0  0.65597  0.5389  0.79555  1.0000
  H   H500      1.0  0.65539  0.46033  0.6999700000000002  1.0000
  N   N473      1.0  0.49879  0.5627  0.7919400000000002  1.0000
  N   N474      1.0  0.5595  0.49992999999999993  0.6977  1.0000
  N   N475      1.0  0.49807  0.43812  0.7034400000000002  1.0000
  N   N476      1.0  0.43711  0.50086  0.79769  1.0000
  H   H501      1.0  0.5383900000000003  0.34302  0.7068300000000002  1.0000
  H   H502      1.0  0.45663  0.34318  0.7067100000000002  1.0000
  H   H503      1.0  0.34108  0.46125  0.69996  1.0000
  H   H504      1.0  0.3415400000000001  0.54071  0.79546  1.0000
  C   C1249     1.0  0.46363  0.59004  0.7904200000000002  1.0000
  C   C1250     1.0  0.47824  0.63063  0.7892000000000002  1.0000
  C   C1251     1.0  0.5214800000000003  0.63009  0.7891400000000002  1.0000
  C   C1252     1.0  0.53472  0.58917  0.7903000000000002  1.0000
  C   C1253     1.0  0.57981  0.5778  0.79058  1.0000
  C   C1254     1.0  0.58706  0.53383  0.7948700000000002  1.0000
  C   C1255     1.0  0.62788  0.52056  0.6964700000000003  1.0000
  C   C1256     1.0  0.6276  0.47883  0.699  1.0000
  C   C1257     1.0  0.5866100000000002  0.46579  0.7005500000000002  1.0000
  C   C1258     1.0  0.41804  0.57993  0.7907900000000002  1.0000
  C   C1259     1.0  0.53344  0.41111  0.70507  1.0000
  C   C1260     1.0  0.51929  0.37039  0.7062200000000002  1.0000
  C   C1261     1.0  0.97881  0.62791  0.7564000000000002  1.0000
  C   C1262     1.0  0.96469  0.58718  0.7552000000000001  1.0000
  C   C1263     1.0  0.9193700000000002  0.57635  0.7548200000000003  1.0000
  C   C1264     1.0  0.91161  0.5323500000000001  0.7504800000000001  1.0000
  C   C1265     1.0  0.8706300000000002  0.51922  0.7488900000000001  1.0000
  Ni  Ni64      1.0  0.99986  0.49814  0.7475900000000002  1.0000
  C   C1266     1.0  0.91129  0.46432  0.7447200000000003  1.0000
  C   C1267     1.0  0.87043  0.47749  0.7463300000000002  1.0000
  C   C1268     1.0  0.08085000000000003  0.57611  0.7549400000000003  1.0000
  H   H505      1.0  0.958  0.34119  0.7381300000000002  1.0000
  H   H506      1.0  0.03984  0.34096  0.7380700000000001  1.0000
  H   H507      1.0  0.15696  0.45878  0.7453000000000002  1.0000
  H   H508      1.0  0.15720000000000006  0.53758  0.7499900000000002  1.0000
  N   N477      1.0  0.9996100000000001  0.43599  0.7415700000000001  1.0000
  N   N478      1.0  0.061  0.49802  0.7476  1.0000
  N   N479      1.0  7.000000000000008e-05  0.56028  0.7536000000000003  1.0000
  N   N480      1.0  0.93874  0.4983  0.7475900000000002  1.0000
  H   H509      1.0  0.04143  0.6551200000000001  0.75693  1.0000
  H   H510      1.0  0.95969  0.65527  0.75696  1.0000
  H   H511      1.0  0.84281  0.53767  0.7498700000000001  1.0000
  H   H512      1.0  0.8424000000000003  0.45909  0.74537  1.0000
  C   C1269     1.0  0.9638700000000002  0.40927  0.7399600000000002  1.0000
  C   C1270     1.0  0.97748  0.36847  0.7387200000000003  1.0000
  C   C1271     1.0  0.02076  0.36835  0.7386800000000001  1.0000
  C   C1272     1.0  0.03501  0.40907  0.7399000000000001  1.0000
  C   C1273     1.0  0.08044  0.41986  0.7402400000000002  1.0000
  C   C1274     1.0  0.08817  0.46396  0.7446600000000002  1.0000
  C   C1275     1.0  0.12913  0.47722  0.74629  1.0000
  C   C1276     1.0  0.12925000000000006  0.51902  0.7489500000000001  1.0000
  C   C1277     1.0  0.08837000000000003  0.53211  0.7505500000000003  1.0000
  C   C1278     1.0  0.9186700000000002  0.42037  0.74037  1.0000
  C   C1279     1.0  0.035700000000000016  0.58706  0.7552400000000002  1.0000
  C   C1280     1.0  0.022040000000000008  0.62783  0.75641  1.0000
  N   N481      1.0  0.11936000000000002  0.10355  0.73605  1.0000
  N   N482      1.0  0.12727000000000002  0.14268  0.7307600000000002  1.0000
  N   N483      1.0  0.11682000000000003  0.8932  0.7587500000000003  1.0000
  N   N484      1.0  0.12316  0.85385  0.7638600000000001  1.0000
  N   N485      1.0  0.39401000000000014  0.87516  0.7872700000000001  1.0000
  N   N486      1.0  0.35366  0.87257  0.7833800000000002  1.0000
  N   N487      1.0  0.36980000000000013  0.13882  0.7127  1.0000
  N   N488      1.0  0.37685  0.09907  0.7084400000000002  1.0000
  N   N489      1.0  0.87694  0.89353  0.75845  1.0000
  N   N490      1.0  0.87085  0.85416  0.7635600000000002  1.0000
  N   N491      1.0  0.87631  0.10444000000000003  0.7363400000000002  1.0000
  N   N492      1.0  0.86889  0.1437  0.7313600000000001  1.0000
  N   N493      1.0  0.62659  0.14377  0.71392  1.0000
  N   N494      1.0  0.61957  0.10444000000000003  0.7088300000000001  1.0000
  N   N495      1.0  0.62482  0.89386  0.7870600000000002  1.0000
  N   N496      1.0  0.63118  0.8545100000000002  0.7820000000000001  1.0000
  N   N497      1.0  0.6207  0.60458  0.7867200000000001  1.0000
  N   N498      1.0  0.6286300000000002  0.64371  0.7814600000000003  1.0000
  N   N499      1.0  0.6269100000000002  0.35512  0.7136900000000003  1.0000
  N   N500      1.0  0.61938  0.39442  0.7086800000000001  1.0000
  N   N501      1.0  0.86991  0.35428  0.73132  1.0000
  N   N502      1.0  0.87782  0.39344  0.7365200000000002  1.0000
  N   N503      1.0  0.87145  0.64281  0.7637700000000002  1.0000
  N   N504      1.0  0.8788600000000002  0.60355  0.75869  1.0000
  N   N505      1.0  0.37713  0.39372  0.7084  1.0000
  N   N506      1.0  0.3705500000000001  0.35403  0.71282  1.0000
  N   N507      1.0  0.37088  0.64828  0.78281  1.0000
  N   N508      1.0  0.37793  0.60852  0.7869500000000003  1.0000
  N   N509      1.0  0.12840000000000004  0.64282  0.7643  1.0000
  N   N510      1.0  0.12137  0.60351  0.7589000000000002  1.0000
  N   N511      1.0  0.12854000000000004  0.35331  0.7310900000000001  1.0000
  N   N512      1.0  0.12102  0.3926  0.7362400000000001  1.0000
  C   C1281     1.0  0.97647  0.12886  0.8384900000000002  1.0000
  C   C1282     1.0  0.9622300000000003  0.08814  0.8397200000000002  1.0000
  C   C1283     1.0  0.9168500000000003  0.07727  0.8401300000000002  1.0000
  C   C1284     1.0  0.90908  0.03324  0.8444100000000002  1.0000
  C   C1285     1.0  0.8681400000000002  0.0199  0.84597  1.0000
  Ni  Ni65      1.0  0.99728  0.99915  0.8472400000000002  1.0000
  C   C1286     1.0  0.90902  0.96515  0.85012  1.0000
  C   C1287     1.0  0.86812  0.97809  0.8485200000000003  1.0000
  C   C1288     1.0  0.07850000000000003  0.07672  0.83997  1.0000
  H   H513      1.0  0.9555700000000003  0.84221  0.8564500000000003  1.0000
  H   H514      1.0  0.03723000000000001  0.842  0.85658  1.0000
  H   H515      1.0  0.15384000000000006  0.95907  0.8492200000000002  1.0000
  H   H516      1.0  0.15471  0.03773  0.8448700000000002  1.0000
  N   N513      1.0  0.9969899999999999  0.9371  0.8531900000000002  1.0000
  N   N514      1.0  0.05826  0.9989200000000001  0.84723  1.0000
  N   N515      1.0  0.9976  0.06124000000000002  0.8412900000000002  1.0000
  N   N516      1.0  0.93627  0.9992700000000001  0.84726  1.0000
  H   H517      1.0  0.039250000000000014  0.15599  0.8378600000000003  1.0000
  H   H518      1.0  0.95741  0.15625  0.8379100000000003  1.0000
  H   H519      1.0  0.8402700000000002  0.03827  0.8449600000000003  1.0000
  H   H520      1.0  0.84028  0.95942  0.84942  1.0000
  C   C1289     1.0  0.96158  0.9103  0.8547700000000003  1.0000
  C   C1290     1.0  0.9750100000000003  0.8694800000000003  0.8559500000000001  1.0000
  C   C1291     1.0  0.01813  0.86936  0.85601  1.0000
  C   C1292     1.0  0.03209  0.91012  0.8548400000000003  1.0000
  C   C1293     1.0  0.07704  0.92089  0.8545500000000001  1.0000
  C   C1294     1.0  0.08518  0.96477  0.85012  1.0000
  C   C1295     1.0  0.1262  0.97768  0.84844  1.0000
  C   C1296     1.0  0.12661  0.01943  0.84588  1.0000
  C   C1297     1.0  0.0858  0.03278  0.8443100000000002  1.0000
  C   C1298     1.0  0.9168100000000002  0.92128  0.8544300000000001  1.0000
  C   C1299     1.0  0.03335  0.08791  0.8396500000000002  1.0000
  C   C1300     1.0  0.01976  0.12872  0.8384600000000002  1.0000
  C   C1301     1.0  0.11802000000000003  0.72659  0.86798  1.0000
  C   C1302     1.0  0.15935  0.71473  0.8684200000000002  1.0000
  C   C1303     1.0  0.16835  0.67107  0.86777  1.0000
  C   C1304     1.0  0.21395  0.66158  0.87097  1.0000
  C   C1305     1.0  0.22892  0.62128  0.87222  1.0000
  Ni  Ni66      1.0  0.24667  0.75178  0.8735800000000002  1.0000
  C   C1306     1.0  0.28504999999999997  0.66389  0.87603  1.0000
  C   C1307     1.0  0.27216  0.62268  0.8746700000000002  1.0000
  C   C1308     1.0  0.16348  0.8269100000000001  0.8675800000000002  1.0000
  H   H521      1.0  0.40524  0.71896  0.7802000000000001  1.0000
  H   H522      1.0  0.4022  0.79892  0.7801700000000001  1.0000
  H   H523      1.0  0.28048  0.9103300000000002  0.8756700000000001  1.0000
  H   H524      1.0  0.19941  0.90688  0.87158  1.0000
  N   N517      1.0  0.30821  0.75461  0.87798  1.0000
  N   N518      1.0  0.24384000000000006  0.81353  0.8734300000000003  1.0000
  N   N519      1.0  0.18557  0.74962  0.86936  1.0000
  N   N520      1.0  0.24878000000000003  0.68956  0.87356  1.0000
  H   H525      1.0  0.08837000000000003  0.78599  0.8676700000000003  1.0000
  H   H526      1.0  0.09065000000000002  0.70729  0.86792  1.0000
  H   H527      1.0  0.21037  0.59333  0.8712500000000001  1.0000
  H   H528      1.0  0.2921  0.59594  0.8755300000000003  1.0000
  C   C1309     1.0  0.33656  0.72118  0.87908  1.0000
  C   C1310     1.0  0.37686  0.7366  0.8798500000000001  1.0000
  C   C1311     1.0  0.37532  0.77902  0.87993  1.0000
  C   C1312     1.0  0.3340800000000001  0.79057  0.8792800000000002  1.0000
  C   C1313     1.0  0.3228400000000001  0.83458  0.87947  1.0000
  C   C1314     1.0  0.27763  0.84182  0.8759300000000002  1.0000
  C   C1315     1.0  0.26239  0.88208  0.8746400000000002  1.0000
  C   C1316     1.0  0.21961000000000006  0.8804  0.8722400000000002  1.0000
  C   C1317     1.0  0.20773000000000005  0.83914  0.8708600000000002  1.0000
  C   C1318     1.0  0.3301600000000001  0.676  0.8793700000000002  1.0000
  C   C1319     1.0  0.15717  0.78272  0.8682800000000003  1.0000
  C   C1320     1.0  0.11671  0.76832  0.8678800000000002  1.0000
  C   C1321     1.0  0.4854  0.86563  0.8902300000000002  1.0000
  C   C1322     1.0  0.47014  0.9058700000000002  0.89124  1.0000
  C   C1323     1.0  0.4248600000000001  0.91309  0.8911700000000002  1.0000
  C   C1324     1.0  0.41361  0.95702  0.8950200000000003  1.0000
  C   C1325     1.0  0.37236  0.96852  0.8965400000000002  1.0000
  Ni  Ni67      1.0  0.50116  0.99574  0.79799  1.0000
  C   C1326     1.0  0.4111500000000001  0.02629  0.9006200000000002  1.0000
  C   C1327     1.0  0.3708300000000001  0.01091  0.8991500000000002  1.0000
  C   C1328     1.0  0.58445  0.92074  0.7910500000000001  1.0000
  H   H529      1.0  0.4557600000000001  0.15138  0.9068000000000002  1.0000
  H   H530      1.0  0.5375200000000002  0.15396  0.80698  1.0000
  H   H531      1.0  0.65732  0.04025  0.79982  1.0000
  H   H532      1.0  0.65959  0.96154  0.79552  1.0000
  N   N521      1.0  0.49905  0.057790000000000015  0.9036000000000002  1.0000
  N   N522      1.0  0.56236  0.99789  0.7979800000000002  1.0000
  N   N523      1.0  0.50399  0.93415  0.7925200000000002  1.0000
  N   N524      1.0  0.4395000000000001  0.99292  0.89786  1.0000
  H   H533      1.0  0.54836  0.84086  0.7897700000000001  1.0000
  H   H534      1.0  0.46731  0.83738  0.88978  1.0000
  H   H535      1.0  0.34549  0.94861  0.89572  1.0000
  H   H536      1.0  0.34246  0.02856  0.90027  1.0000
  C   C1329     1.0  0.4627500000000001  0.08346  0.9050600000000001  1.0000
  C   C1330     1.0  0.47569  0.12463  0.9062600000000002  1.0000
  C   C1331     1.0  0.51895  0.12603  0.8063600000000002  1.0000
  C   C1332     1.0  0.53394  0.08574  0.80524  1.0000
  C   C1333     1.0  0.57959  0.07628  0.8049600000000002  1.0000
  C   C1334     1.0  0.5886  0.03271  0.80071  1.0000
  C   C1335     1.0  0.62995  0.02092  0.79906  1.0000
  C   C1336     1.0  0.63126  0.97921  0.7965700000000001  1.0000
  C   C1337     1.0  0.5907800000000002  0.96485  0.7951400000000002  1.0000
  C   C1338     1.0  0.41757  0.07139  0.9047000000000002  1.0000
  C   C1339     1.0  0.5401400000000002  0.90856  0.7909900000000001  1.0000
  C   C1340     1.0  0.5282000000000002  0.86733  0.7901200000000003  1.0000
  C   C1341     1.0  0.12006000000000003  0.22693  0.82719  1.0000
  C   C1342     1.0  0.16088  0.21361  0.82677  1.0000
  C   C1343     1.0  0.16812  0.16955  0.82738  1.0000
  C   C1344     1.0  0.21317  0.15816  0.8242500000000001  1.0000
  C   C1345     1.0  0.22637  0.11722  0.8229500000000002  1.0000
  Ni  Ni68      1.0  0.24948  0.24712  0.8218200000000002  1.0000
  C   C1346     1.0  0.28417  0.15731000000000006  0.8193100000000001  1.0000
  C   C1347     1.0  0.2696000000000001  0.1167  0.82055  1.0000
  C   C1348     1.0  0.16906  0.3259  0.82759  1.0000
  H   H537      1.0  0.4061800000000001  0.20685  0.8158400000000002  1.0000
  H   H538      1.0  0.40661  0.28631  0.8158700000000002  1.0000
  H   H539      1.0  0.29115000000000013  0.40456  0.8199000000000002  1.0000
  H   H540      1.0  0.20942000000000005  0.4047100000000001  0.82412  1.0000
  N   N525      1.0  0.3106200000000001  0.24668  0.8177400000000002  1.0000
  N   N526      1.0  0.24974  0.30956  0.82192  1.0000
  N   N527      1.0  0.18840000000000007  0.24758  0.8258400000000002  1.0000
  N   N528      1.0  0.24904  0.18466  0.8217800000000002  1.0000
  H   H541      1.0  0.09254  0.28717  0.8274300000000002  1.0000
  H   H542      1.0  0.09198  0.2086  0.82732  1.0000
  H   H543      1.0  0.20665  0.0901  0.8237700000000002  1.0000
  H   H544      1.0  0.2884200000000001  0.08911  0.81957  1.0000
  C   C1349     1.0  0.33762  0.21213  0.8166600000000002  1.0000
  C   C1350     1.0  0.37852  0.22553  0.81613  1.0000
  C   C1351     1.0  0.37874  0.26765  0.8161500000000003  1.0000
  C   C1352     1.0  0.3379700000000001  0.28108  0.8167200000000001  1.0000
  C   C1353     1.0  0.33043  0.32562  0.8162600000000001  1.0000
  C   C1354     1.0  0.28531  0.33642  0.8194700000000003  1.0000
  C   C1355     1.0  0.27171  0.37724  0.8207800000000002  1.0000
  C   C1356     1.0  0.22852000000000006  0.37734  0.8232  1.0000
  C   C1357     1.0  0.21441000000000004  0.33659  0.82445  1.0000
  C   C1358     1.0  0.32971  0.16747  0.8161400000000002  1.0000
  C   C1359     1.0  0.16131  0.28178  0.8268700000000001  1.0000
  C   C1360     1.0  0.12033  0.26868  0.8272400000000002  1.0000
  C   C1361     1.0  0.61871  0.22846  0.81738  1.0000
  C   C1362     1.0  0.6595800000000003  0.21532  0.81781  1.0000
  C   C1363     1.0  0.66709  0.17123  0.81722  1.0000
  C   C1364     1.0  0.7121800000000003  0.16022  0.8202900000000002  1.0000
  C   C1365     1.0  0.7258000000000002  0.11943  0.82158  1.0000
  Ni  Ni69      1.0  0.74799  0.24935  0.82259  1.0000
  C   C1366     1.0  0.7831200000000003  0.1601  0.82506  1.0000
  C   C1367     1.0  0.76902  0.11934  0.8238900000000002  1.0000
  C   C1368     1.0  0.66749  0.32779  0.81707  1.0000
  H   H545      1.0  0.90493  0.20981  0.8279400000000002  1.0000
  H   H546      1.0  0.9053300000000002  0.2884  0.8279  1.0000
  H   H547      1.0  0.7898400000000002  0.40653  0.8245600000000002  1.0000
  H   H548      1.0  0.70802  0.40676  0.82049  1.0000
  N   N529      1.0  0.80901  0.24918  0.82643  1.0000
  N   N530      1.0  0.7482400000000002  0.31168  0.8225500000000002  1.0000
  N   N531      1.0  0.68694  0.24946999999999997  0.8187400000000002  1.0000
  N   N532      1.0  0.74778  0.18703  0.82265  1.0000
  H   H549      1.0  0.59098  0.2887  0.9171500000000002  1.0000
  H   H550      1.0  0.5907400000000002  0.2099  0.9171900000000001  1.0000
  H   H551      1.0  0.70639  0.09213000000000003  0.8208800000000003  1.0000
  H   H552      1.0  0.7881300000000002  0.09198  0.8248000000000002  1.0000
  C   C1369     1.0  0.8361400000000002  0.21507  0.8273900000000002  1.0000
  C   C1370     1.0  0.8771000000000002  0.22825  0.82777  1.0000
  C   C1371     1.0  0.8773  0.27  0.8277500000000001  1.0000
  C   C1372     1.0  0.8364500000000002  0.28323  0.8273600000000002  1.0000
  C   C1373     1.0  0.82909  0.32728  0.8280100000000002  1.0000
  C   C1374     1.0  0.78394  0.33842  0.82497  1.0000
  C   C1375     1.0  0.77035  0.37925  0.82372  1.0000
  C   C1376     1.0  0.7270900000000002  0.37937  0.8213600000000002  1.0000
  C   C1377     1.0  0.7128800000000002  0.33863  0.82013  1.0000
  C   C1378     1.0  0.8284000000000002  0.17097  0.82805  1.0000
  C   C1379     1.0  0.65978  0.2836  0.8177400000000002  1.0000
  C   C1380     1.0  0.6188200000000001  0.27028  0.9173500000000002  1.0000
  C   C1381     1.0  0.6214  0.72801  0.8778100000000002  1.0000
  C   C1382     1.0  0.66219  0.71461  0.8774700000000001  1.0000
  C   C1383     1.0  0.6694600000000003  0.67058  0.8781200000000002  1.0000
  C   C1384     1.0  0.7145600000000002  0.65934  0.8750600000000001  1.0000
  C   C1385     1.0  0.72812  0.61851  0.8738000000000002  1.0000
  Ni  Ni70      1.0  0.7506  0.7483000000000002  0.87268  1.0000
  C   C1386     1.0  0.7856  0.65912  0.8702000000000002  1.0000
  C   C1387     1.0  0.7713900000000002  0.61837  0.8714400000000002  1.0000
  C   C1388     1.0  0.6709300000000002  0.82673  0.8783700000000002  1.0000
  H   H553      1.0  0.90749  0.70917  0.8672000000000001  1.0000
  H   H554      1.0  0.90748  0.78801  0.8672400000000002  1.0000
  H   H555      1.0  0.79234  0.90548  0.8708300000000002  1.0000
  H   H556      1.0  0.71068  0.9057  0.87497  1.0000
  N   N533      1.0  0.8115200000000002  0.74818  0.8687600000000002  1.0000
  N   N534      1.0  0.75089  0.81054  0.87274  1.0000
  N   N535      1.0  0.68971  0.74854  0.87658  1.0000
  N   N536      1.0  0.7502700000000001  0.68604  0.8726400000000002  1.0000
  H   H557      1.0  0.5941700000000002  0.78834  0.8778400000000002  1.0000
  H   H558      1.0  0.5933000000000003  0.70973  0.8778700000000002  1.0000
  H   H559      1.0  0.70862  0.59123  0.8746400000000002  1.0000
  H   H560      1.0  0.79045  0.59098  0.8705600000000002  1.0000
  C   C1389     1.0  0.8386900000000003  0.71415  0.8677800000000001  1.0000
  C   C1390     1.0  0.87961  0.72753  0.86737  1.0000
  C   C1391     1.0  0.8796300000000002  0.76936  0.86737  1.0000
  C   C1392     1.0  0.83875  0.78236  0.86777  1.0000
  C   C1393     1.0  0.83098  0.82633  0.8671100000000002  1.0000
  C   C1394     1.0  0.7862700000000002  0.83736  0.8702800000000002  1.0000
  C   C1395     1.0  0.77288  0.87821  0.87161  1.0000
  C   C1396     1.0  0.72978  0.87833  0.8740300000000002  1.0000
  C   C1397     1.0  0.71584  0.83754  0.87527  1.0000
  C   C1398     1.0  0.83093  0.67003  0.8671400000000001  1.0000
  C   C1399     1.0  0.66281  0.78275  0.8775800000000002  1.0000
  C   C1400     1.0  0.62182  0.76977  0.8778500000000002  1.0000
  C   C1401     1.0  0.4760900000000001  0.3705  0.8061500000000003  1.0000
  C   C1402     1.0  0.46246  0.4113  0.80494  1.0000
  C   C1403     1.0  0.41729  0.42207  0.8045900000000002  1.0000
  C   C1404     1.0  0.40974  0.46652  0.8004700000000001  1.0000
  C   C1405     1.0  0.3689400000000001  0.47991  0.8989700000000003  1.0000
  Ni  Ni71      1.0  0.49835000000000007  0.50041  0.79769  1.0000
  C   C1406     1.0  0.41008  0.53535  0.8949200000000003  1.0000
  C   C1407     1.0  0.36917  0.52201  0.8964300000000001  1.0000
  C   C1408     1.0  0.57885  0.42176  0.8048100000000002  1.0000
  H   H561      1.0  0.45939  0.6582100000000002  0.8885800000000003  1.0000
  H   H562      1.0  0.54118  0.65718  0.8885500000000002  1.0000
  H   H563      1.0  0.65595  0.53889  0.8955500000000002  1.0000
  H   H564      1.0  0.6554  0.46033  0.7999800000000001  1.0000
  N   N537      1.0  0.49877000000000005  0.5627  0.89194  1.0000
  N   N538      1.0  0.55952  0.49994  0.7977000000000002  1.0000
  N   N539      1.0  0.49808  0.43813  0.8034400000000003  1.0000
  N   N540      1.0  0.43709  0.50085  0.8976900000000002  1.0000
  H   H565      1.0  0.5384  0.34302  0.80683  1.0000
  H   H566      1.0  0.4566400000000001  0.34319  0.80671  1.0000
  H   H567      1.0  0.34109  0.4612600000000001  0.7999600000000002  1.0000
  H   H568      1.0  0.3415200000000001  0.5407  0.8954600000000001  1.0000
  C   C1409     1.0  0.46361  0.59003  0.89042  1.0000
  C   C1410     1.0  0.47822  0.63062  0.8892  1.0000
  C   C1411     1.0  0.52146  0.6300800000000002  0.88914  1.0000
  C   C1412     1.0  0.5347  0.58916  0.8903  1.0000
  C   C1413     1.0  0.57979  0.57779  0.8905800000000001  1.0000
  C   C1414     1.0  0.58704  0.53382  0.89487  1.0000
  C   C1415     1.0  0.6278900000000002  0.52056  0.79647  1.0000
  C   C1416     1.0  0.6276100000000002  0.47884  0.799  1.0000
  C   C1417     1.0  0.58662  0.46579  0.80055  1.0000
  C   C1418     1.0  0.41802  0.57992  0.8907900000000001  1.0000
  C   C1419     1.0  0.53345  0.41112  0.8050700000000001  1.0000
  C   C1420     1.0  0.5193  0.37039  0.80622  1.0000
  C   C1421     1.0  0.9788  0.62791  0.8564  1.0000
  C   C1422     1.0  0.96469  0.58717  0.8552000000000002  1.0000
  C   C1423     1.0  0.91936  0.57634  0.85482  1.0000
  C   C1424     1.0  0.9116000000000002  0.5323500000000001  0.8504800000000002  1.0000
  C   C1425     1.0  0.8706300000000002  0.51922  0.8488900000000003  1.0000
  Ni  Ni72      1.0  0.99986  0.49814  0.84759  1.0000
  C   C1426     1.0  0.9113  0.46432  0.84472  1.0000
  C   C1427     1.0  0.87043  0.47749  0.8463300000000002  1.0000
  C   C1428     1.0  0.08085000000000003  0.57611  0.85494  1.0000
  H   H569      1.0  0.95801  0.34119  0.8381300000000003  1.0000
  H   H570      1.0  0.03984  0.34096  0.8380700000000002  1.0000
  H   H571      1.0  0.15696  0.45878  0.8453000000000003  1.0000
  H   H572      1.0  0.15720000000000006  0.53758  0.8499900000000002  1.0000
  N   N541      1.0  0.9996100000000001  0.43599  0.8415700000000003  1.0000
  N   N542      1.0  0.061  0.49802  0.8476000000000001  1.0000
  N   N543      1.0  7.000000000000008e-05  0.56027  0.8536  1.0000
  N   N544      1.0  0.93875  0.4983  0.84759  1.0000
  H   H573      1.0  0.04143  0.6551200000000001  0.8569300000000002  1.0000
  H   H574      1.0  0.95969  0.65526  0.8569600000000002  1.0000
  H   H575      1.0  0.84281  0.53767  0.8498700000000002  1.0000
  H   H576      1.0  0.8424000000000003  0.45908  0.8453700000000001  1.0000
  C   C1429     1.0  0.9638700000000002  0.40927  0.8399600000000003  1.0000
  C   C1430     1.0  0.9774900000000002  0.36847  0.83872  1.0000
  C   C1431     1.0  0.02077  0.36834  0.8386800000000002  1.0000
  C   C1432     1.0  0.03501  0.40907  0.8399000000000002  1.0000
  C   C1433     1.0  0.08044  0.41986  0.84024  1.0000
  C   C1434     1.0  0.08817  0.46396  0.84466  1.0000
  C   C1435     1.0  0.12913  0.47722  0.8462900000000002  1.0000
  C   C1436     1.0  0.12925000000000006  0.51902  0.8489500000000002  1.0000
  C   C1437     1.0  0.08837000000000003  0.53211  0.85055  1.0000
  C   C1438     1.0  0.9186700000000002  0.42036  0.8403700000000001  1.0000
  C   C1439     1.0  0.035700000000000016  0.58706  0.85524  1.0000
  C   C1440     1.0  0.022030000000000008  0.62783  0.8564100000000001  1.0000
  N   N545      1.0  0.11936000000000002  0.10355  0.8360500000000002  1.0000
  N   N546      1.0  0.12727000000000002  0.14268  0.83076  1.0000
  N   N547      1.0  0.11681000000000001  0.8932  0.85875  1.0000
  N   N548      1.0  0.12315000000000002  0.85385  0.8638600000000002  1.0000
  N   N549      1.0  0.394  0.87516  0.8872700000000002  1.0000
  N   N550      1.0  0.35366  0.87256  0.8833700000000002  1.0000
  N   N551      1.0  0.36980000000000013  0.13883  0.8127000000000002  1.0000
  N   N552      1.0  0.37685  0.09907  0.8084400000000003  1.0000
  N   N553      1.0  0.8769300000000002  0.89353  0.8584500000000002  1.0000
  N   N554      1.0  0.8708400000000002  0.85415  0.86356  1.0000
  N   N555      1.0  0.87631  0.10443  0.83634  1.0000
  N   N556      1.0  0.86889  0.1437  0.8313600000000002  1.0000
  N   N557      1.0  0.62659  0.14377  0.8139200000000002  1.0000
  N   N558      1.0  0.61957  0.10444000000000003  0.8088300000000003  1.0000
  N   N559      1.0  0.6248100000000002  0.89385  0.88706  1.0000
  N   N560      1.0  0.63117  0.8545  0.8820000000000002  1.0000
  N   N561      1.0  0.6206800000000002  0.60457  0.8867200000000002  1.0000
  N   N562      1.0  0.62861  0.6437  0.88146  1.0000
  N   N563      1.0  0.62692  0.35512  0.81369  1.0000
  N   N564      1.0  0.6194  0.39442  0.8086800000000002  1.0000
  N   N565      1.0  0.86991  0.35428  0.8313200000000002  1.0000
  N   N566      1.0  0.87783  0.39344  0.8365200000000003  1.0000
  N   N567      1.0  0.87144  0.6428  0.8637700000000003  1.0000
  N   N568      1.0  0.8788600000000002  0.60355  0.8586900000000001  1.0000
  N   N569      1.0  0.37714  0.39372  0.8084000000000002  1.0000
  N   N570      1.0  0.37056  0.35403  0.8128200000000002  1.0000
  N   N571      1.0  0.37087  0.64827  0.8828100000000002  1.0000
  N   N572      1.0  0.37791  0.60851  0.88695  1.0000
  N   N573      1.0  0.12839  0.64282  0.8643000000000001  1.0000
  N   N574      1.0  0.12136000000000002  0.60351  0.8588900000000003  1.0000
  N   N575      1.0  0.12854000000000004  0.35331  0.8310900000000002  1.0000
  N   N576      1.0  0.12102  0.3926  0.8362400000000002  1.0000
  C   C1441     1.0  0.97647  0.12887  0.9384900000000003  1.0000
  C   C1442     1.0  0.9622300000000003  0.08814  0.9397200000000001  1.0000
  C   C1443     1.0  0.9168500000000003  0.07727  0.9401300000000002  1.0000
  C   C1444     1.0  0.90908  0.03324  0.94441  1.0000
  C   C1445     1.0  0.8681400000000002  0.01991  0.9459700000000001  1.0000
  Ni  Ni73      1.0  0.99728  0.9991599999999999  0.94724  1.0000
  C   C1446     1.0  0.90903  0.96516  0.9501200000000002  1.0000
  C   C1447     1.0  0.86813  0.9781  0.9485200000000003  1.0000
  C   C1448     1.0  0.07850000000000003  0.07672  0.9399700000000002  1.0000
  H   H577      1.0  0.9555800000000002  0.84222  0.95645  1.0000
  H   H578      1.0  0.03723000000000001  0.842  0.9565800000000001  1.0000
  H   H579      1.0  0.15385  0.95908  0.94922  1.0000
  H   H580      1.0  0.15471  0.03773  0.9448700000000001  1.0000
  N   N577      1.0  0.997  0.9371  0.95319  1.0000
  N   N578      1.0  0.058270000000000016  0.9989200000000001  0.9472300000000002  1.0000
  N   N579      1.0  0.9976  0.06124000000000002  0.9412900000000002  1.0000
  N   N580      1.0  0.93627  0.99928  0.9472600000000002  1.0000
  H   H581      1.0  0.03926  0.15599  0.9378600000000001  1.0000
  H   H582      1.0  0.95741  0.15626  0.9379100000000002  1.0000
  H   H583      1.0  0.8402700000000002  0.03827  0.94496  1.0000
  H   H584      1.0  0.84029  0.95943  0.9494200000000003  1.0000
  C   C1449     1.0  0.96159  0.91031  0.95477  1.0000
  C   C1450     1.0  0.97502  0.8694800000000003  0.9559500000000002  1.0000
  C   C1451     1.0  0.01813  0.86936  0.9560100000000002  1.0000
  C   C1452     1.0  0.03210000000000001  0.91013  0.9548400000000001  1.0000
  C   C1453     1.0  0.07705  0.9209  0.9545500000000002  1.0000
  C   C1454     1.0  0.08519  0.96478  0.9501200000000002  1.0000
  C   C1455     1.0  0.1262  0.97769  0.9484400000000002  1.0000
  C   C1456     1.0  0.12661  0.01944  0.9458800000000002  1.0000
  C   C1457     1.0  0.08581000000000003  0.03278  0.9443100000000002  1.0000
  C   C1458     1.0  0.91682  0.92129  0.9544300000000002  1.0000
  C   C1459     1.0  0.03335  0.08792  0.93965  1.0000
  C   C1460     1.0  0.01976  0.12873  0.93846  1.0000
  C   C1461     1.0  0.11803  0.72659  0.9679800000000002  1.0000
  C   C1462     1.0  0.15936  0.71474  0.9684200000000002  1.0000
  C   C1463     1.0  0.16836  0.67107  0.9677700000000002  1.0000
  C   C1464     1.0  0.21397000000000005  0.66159  0.9709800000000002  1.0000
  C   C1465     1.0  0.22894000000000006  0.62129  0.9722200000000002  1.0000
  Ni  Ni74      1.0  0.24668  0.75178  0.97358  1.0000
  C   C1466     1.0  0.28506999999999993  0.66389  0.9760300000000002  1.0000
  C   C1467     1.0  0.27218  0.62269  0.9746700000000003  1.0000
  C   C1468     1.0  0.16349  0.82692  0.9675800000000001  1.0000
  H   H585      1.0  0.40523  0.71896  0.8802000000000002  1.0000
  H   H586      1.0  0.4021900000000001  0.7989100000000002  0.8801600000000002  1.0000
  H   H587      1.0  0.28049000000000013  0.91034  0.9756700000000003  1.0000
  H   H588      1.0  0.19942  0.90689  0.9715800000000002  1.0000
  N   N581      1.0  0.30823  0.75462  0.9779800000000002  1.0000
  N   N582      1.0  0.24385000000000007  0.81354  0.97343  1.0000
  N   N583      1.0  0.18558  0.74962  0.9693600000000002  1.0000
  N   N584      1.0  0.2488  0.68956  0.9735600000000002  1.0000
  H   H589      1.0  0.08838  0.78599  0.96767  1.0000
  H   H590      1.0  0.09066  0.70729  0.9679200000000001  1.0000
  H   H591      1.0  0.21039000000000005  0.59334  0.9712500000000002  1.0000
  H   H592      1.0  0.29211  0.59594  0.97553  1.0000
  C   C1469     1.0  0.33657  0.72119  0.9790800000000002  1.0000
  C   C1470     1.0  0.3768700000000001  0.73661  0.9798500000000002  1.0000
  C   C1471     1.0  0.3753300000000001  0.77903  0.9799300000000001  1.0000
  C   C1472     1.0  0.33409  0.79057  0.97928  1.0000
  C   C1473     1.0  0.32285  0.83459  0.9794700000000001  1.0000
  C   C1474     1.0  0.27764  0.84183  0.97593  1.0000
  C   C1475     1.0  0.2624  0.88209  0.9746400000000002  1.0000
  C   C1476     1.0  0.21962  0.8804  0.97224  1.0000
  C   C1477     1.0  0.20774  0.83915  0.9708600000000002  1.0000
  C   C1478     1.0  0.33018  0.67601  0.97937  1.0000
  C   C1479     1.0  0.15718  0.78273  0.96828  1.0000
  C   C1480     1.0  0.11672000000000003  0.76832  0.96788  1.0000
  C   C1481     1.0  0.48541  0.8656400000000001  0.9902200000000002  1.0000
  C   C1482     1.0  0.47015  0.90588  0.9912400000000001  1.0000
  C   C1483     1.0  0.4248800000000001  0.9131  0.99117  1.0000
  C   C1484     1.0  0.4136200000000001  0.95703  0.9950200000000001  1.0000
  C   C1485     1.0  0.3723700000000001  0.96853  0.9965400000000001  1.0000
  Ni  Ni75      1.0  0.50115  0.99573  0.8979900000000002  1.0000
  C   C1486     1.0  0.41116  0.0263  0.0006200000000000001  1.0000
  C   C1487     1.0  0.37084  0.01092  0.9991500000000002  1.0000
  C   C1488     1.0  0.5844400000000002  0.92073  0.8910500000000002  1.0000
  H   H593      1.0  0.45577  0.15139  0.0068000000000000005  1.0000
  H   H594      1.0  0.53751  0.15395  0.9069800000000001  1.0000
  H   H595      1.0  0.6573100000000002  0.04024  0.8998200000000002  1.0000
  H   H596      1.0  0.6595800000000003  0.96153  0.8955200000000001  1.0000
  N   N585      1.0  0.49906  0.05781  0.0036  1.0000
  N   N586      1.0  0.56235  0.9978799999999999  0.89798  1.0000
  N   N587      1.0  0.50398  0.93414  0.89252  1.0000
  N   N588      1.0  0.43951  0.99293  0.9978600000000002  1.0000
  H   H597      1.0  0.54835  0.84085  0.8897700000000002  1.0000
  H   H598      1.0  0.4673200000000001  0.8374  0.9897800000000002  1.0000
  H   H599      1.0  0.3455  0.9486200000000002  0.9957200000000002  1.0000
  H   H600      1.0  0.34248  0.02857  0.00027000000000000006  1.0000
  C   C1489     1.0  0.46276  0.08347  0.00506  1.0000
  C   C1490     1.0  0.4757  0.12463999999999999  0.00626  1.0000
  C   C1491     1.0  0.51894  0.12602  0.9063600000000003  1.0000
  C   C1492     1.0  0.53393  0.08573  0.90523  1.0000
  C   C1493     1.0  0.57958  0.07627  0.90496  1.0000
  C   C1494     1.0  0.58859  0.0327  0.9007100000000002  1.0000
  C   C1495     1.0  0.62994  0.02092  0.8990600000000002  1.0000
  C   C1496     1.0  0.63125  0.9792  0.8965700000000002  1.0000
  C   C1497     1.0  0.59077  0.96484  0.8951400000000003  1.0000
  C   C1498     1.0  0.41759  0.0714  0.004700000000000001  1.0000
  C   C1499     1.0  0.54013  0.90855  0.8909900000000002  1.0000
  C   C1500     1.0  0.52819  0.86732  0.89012  1.0000
  C   C1501     1.0  0.12005  0.22693  0.9271900000000001  1.0000
  C   C1502     1.0  0.16087000000000007  0.21361  0.9267700000000002  1.0000
  C   C1503     1.0  0.16811  0.16955  0.9273800000000002  1.0000
  C   C1504     1.0  0.21316  0.15815  0.9242500000000002  1.0000
  C   C1505     1.0  0.22636  0.11721  0.92295  1.0000
  Ni  Ni76      1.0  0.24947000000000003  0.24711  0.92182  1.0000
  C   C1506     1.0  0.28415  0.15731000000000006  0.9193100000000002  1.0000
  C   C1507     1.0  0.2695800000000001  0.11669  0.9205500000000002  1.0000
  C   C1508     1.0  0.16904  0.3259  0.9276000000000002  1.0000
  H   H601      1.0  0.40616000000000013  0.20685  0.91584  1.0000
  H   H602      1.0  0.40660000000000013  0.2863  0.91587  1.0000
  H   H603      1.0  0.29114  0.40456  0.9199  1.0000
  H   H604      1.0  0.20941000000000007  0.4047100000000001  0.9241200000000003  1.0000
  N   N589      1.0  0.31061  0.24668  0.9177400000000001  1.0000
  N   N590      1.0  0.24973  0.30956  0.9219200000000002  1.0000
  N   N591      1.0  0.18839  0.24757  0.92584  1.0000
  N   N592      1.0  0.24903000000000003  0.18466  0.9217800000000003  1.0000
  H   H605      1.0  0.09253  0.28717  0.92743  1.0000
  H   H606      1.0  0.09197  0.2086  0.9273200000000003  1.0000
  H   H607      1.0  0.20664  0.0901  0.92377  1.0000
  H   H608      1.0  0.28841  0.08911  0.9195700000000001  1.0000
  C   C1509     1.0  0.33761  0.21213  0.9166600000000003  1.0000
  C   C1510     1.0  0.37851  0.22553  0.9161300000000002  1.0000
  C   C1511     1.0  0.37873  0.26764  0.91615  1.0000
  C   C1512     1.0  0.33796  0.28107  0.9167200000000002  1.0000
  C   C1513     1.0  0.33041  0.32561  0.9162600000000002  1.0000
  C   C1514     1.0  0.2853  0.33642  0.91947  1.0000
  C   C1515     1.0  0.2717000000000001  0.37723  0.92078  1.0000
  C   C1516     1.0  0.22851000000000005  0.3773300000000001  0.9232000000000001  1.0000
  C   C1517     1.0  0.21439000000000005  0.33659  0.9244500000000001  1.0000
  C   C1518     1.0  0.3297  0.16747  0.9161400000000002  1.0000
  C   C1519     1.0  0.1613  0.28177  0.9268700000000002  1.0000
  C   C1520     1.0  0.12032  0.2686700000000001  0.92724  1.0000
  C   C1521     1.0  0.6187  0.22845  0.9173800000000002  1.0000
  C   C1522     1.0  0.65957  0.21531  0.9178100000000002  1.0000
  C   C1523     1.0  0.6670800000000002  0.17123  0.91722  1.0000
  C   C1524     1.0  0.71217  0.16022  0.9202800000000002  1.0000
  C   C1525     1.0  0.72579  0.11942  0.9215800000000001  1.0000
  Ni  Ni77      1.0  0.74798  0.24935  0.9225900000000001  1.0000
  C   C1526     1.0  0.78311  0.1601  0.9250600000000001  1.0000
  C   C1527     1.0  0.7690100000000002  0.11934  0.92389  1.0000
  C   C1528     1.0  0.66747  0.32779  0.91707  1.0000
  H   H609      1.0  0.90492  0.20982  0.9279400000000002  1.0000
  H   H610      1.0  0.90532  0.2884  0.9279000000000002  1.0000
  H   H611      1.0  0.78982  0.40653  0.9245600000000003  1.0000
  H   H612      1.0  0.708  0.40676  0.9204900000000003  1.0000
  N   N593      1.0  0.8090000000000003  0.24919  0.9264300000000001  1.0000
  N   N594      1.0  0.74822  0.31168  0.92255  1.0000
  N   N595      1.0  0.6869300000000003  0.24946999999999997  0.91874  1.0000
  N   N596      1.0  0.74777  0.18703  0.9226500000000001  1.0000
  H   H613      1.0  0.591  0.28871  0.017150000000000002  1.0000
  H   H614      1.0  0.59076  0.20991  0.017190000000000004  1.0000
  H   H615      1.0  0.70638  0.09212  0.92088  1.0000
  H   H616      1.0  0.78812  0.09198  0.9248  1.0000
  C   C1529     1.0  0.8361300000000003  0.21507  0.9273900000000003  1.0000
  C   C1530     1.0  0.87709  0.22826  0.9277700000000001  1.0000
  C   C1531     1.0  0.87729  0.27001  0.9277500000000002  1.0000
  C   C1532     1.0  0.83644  0.28323  0.9273600000000002  1.0000
  C   C1533     1.0  0.82907  0.32728  0.92801  1.0000
  C   C1534     1.0  0.7839200000000001  0.33842  0.92496  1.0000
  C   C1535     1.0  0.7703400000000002  0.37924  0.9237200000000002  1.0000
  C   C1536     1.0  0.72707  0.37937  0.92136  1.0000
  C   C1537     1.0  0.71286  0.33863  0.9201300000000002  1.0000
  C   C1538     1.0  0.82839  0.17097  0.9280500000000002  1.0000
  C   C1539     1.0  0.6597600000000002  0.28359  0.9177400000000001  1.0000
  C   C1540     1.0  0.61884  0.27029  0.01735  1.0000
  C   C1541     1.0  0.62142  0.72802  0.9778100000000002  1.0000
  C   C1542     1.0  0.6622  0.71463  0.9774700000000002  1.0000
  C   C1543     1.0  0.66948  0.67059  0.97812  1.0000
  C   C1544     1.0  0.71458  0.6593600000000001  0.9750600000000003  1.0000
  C   C1545     1.0  0.72813  0.61853  0.9738000000000001  1.0000
  Ni  Ni78      1.0  0.7506200000000001  0.74832  0.9726800000000002  1.0000
  C   C1546     1.0  0.7856100000000003  0.65913  0.9702000000000001  1.0000
  C   C1547     1.0  0.7714000000000001  0.61839  0.9714400000000002  1.0000
  C   C1548     1.0  0.67094  0.82675  0.9783700000000001  1.0000
  H   H617      1.0  0.90751  0.70918  0.9672000000000002  1.0000
  H   H618      1.0  0.90749  0.78802  0.96724  1.0000
  H   H619      1.0  0.79235  0.9055  0.9708300000000002  1.0000
  H   H620      1.0  0.7107  0.90571  0.9749700000000002  1.0000
  N   N597      1.0  0.81153  0.7482  0.96876  1.0000
  N   N598      1.0  0.7509000000000001  0.81056  0.9727400000000002  1.0000
  N   N599      1.0  0.6897300000000002  0.74855  0.9765800000000002  1.0000
  N   N600      1.0  0.75029  0.68606  0.9726400000000001  1.0000
  H   H621      1.0  0.59419  0.78835  0.9778400000000003  1.0000
  H   H622      1.0  0.59332  0.70975  0.9778600000000002  1.0000
  H   H623      1.0  0.70863  0.59125  0.9746400000000002  1.0000
  H   H624      1.0  0.7904700000000002  0.59099  0.97056  1.0000
  C   C1549     1.0  0.8387  0.71417  0.9677800000000002  1.0000
  C   C1550     1.0  0.8796300000000002  0.72755  0.9673700000000001  1.0000
  C   C1551     1.0  0.87965  0.76937  0.9673700000000001  1.0000
  C   C1552     1.0  0.83877  0.78237  0.9677700000000002  1.0000
  C   C1553     1.0  0.831  0.82634  0.9671100000000002  1.0000
  C   C1554     1.0  0.78628  0.83737  0.9702700000000002  1.0000
  C   C1555     1.0  0.7729000000000003  0.87822  0.9716100000000002  1.0000
  C   C1556     1.0  0.7298  0.87834  0.9740300000000002  1.0000
  C   C1557     1.0  0.7158500000000002  0.83756  0.97526  1.0000
  C   C1558     1.0  0.83094  0.67004  0.9671400000000002  1.0000
  C   C1559     1.0  0.66283  0.78276  0.9775800000000001  1.0000
  C   C1560     1.0  0.62184  0.76979  0.97785  1.0000
  C   C1561     1.0  0.47606  0.37049  0.90615  1.0000
  C   C1562     1.0  0.46244  0.41129  0.9049400000000002  1.0000
  C   C1563     1.0  0.41727  0.42206  0.9045900000000002  1.0000
  C   C1564     1.0  0.40972  0.46652  0.9004700000000002  1.0000
  C   C1565     1.0  0.36897  0.47992  0.9989700000000002  1.0000
  Ni  Ni79      1.0  0.49832  0.5004  0.8976900000000002  1.0000
  C   C1566     1.0  0.41011  0.53536  0.99492  1.0000
  C   C1567     1.0  0.3692000000000001  0.52202  0.9964300000000003  1.0000
  C   C1568     1.0  0.57883  0.42175  0.90481  1.0000
  H   H625      1.0  0.4594200000000001  0.65822  0.98858  1.0000
  H   H626      1.0  0.54121  0.6572  0.98855  1.0000
  H   H627      1.0  0.65597  0.5389  0.9955500000000003  1.0000
  H   H628      1.0  0.6553800000000002  0.46032  0.8999700000000002  1.0000
  N   N601      1.0  0.4988  0.56271  0.9919400000000002  1.0000
  N   N602      1.0  0.55949  0.49992999999999993  0.8977000000000003  1.0000
  N   N603      1.0  0.49806000000000006  0.43812  0.90344  1.0000
  N   N604      1.0  0.43712  0.50086  0.99769  1.0000
  H   H629      1.0  0.53838  0.34301  0.9068300000000001  1.0000
  H   H630      1.0  0.45662000000000014  0.34318  0.9067100000000001  1.0000
  H   H631      1.0  0.34107  0.46125  0.89996  1.0000
  H   H632      1.0  0.3415400000000001  0.54071  0.9954600000000002  1.0000
  C   C1569     1.0  0.4636400000000001  0.59004  0.9904200000000002  1.0000
  C   C1570     1.0  0.47825  0.63064  0.9892000000000002  1.0000
  C   C1571     1.0  0.52149  0.6301  0.9891400000000002  1.0000
  C   C1572     1.0  0.53472  0.58918  0.9903000000000002  1.0000
  C   C1573     1.0  0.57981  0.5778  0.9905800000000002  1.0000
  C   C1574     1.0  0.58707  0.53384  0.9948700000000001  1.0000
  C   C1575     1.0  0.62787  0.52055  0.8964700000000002  1.0000
  C   C1576     1.0  0.62759  0.47883  0.8990000000000002  1.0000
  C   C1577     1.0  0.5866  0.46579  0.9005500000000002  1.0000
  C   C1578     1.0  0.4180500000000001  0.57993  0.9907900000000002  1.0000
  C   C1579     1.0  0.53343  0.41111  0.9050700000000003  1.0000
  C   C1580     1.0  0.51928  0.37038  0.9062200000000001  1.0000
  C   C1581     1.0  0.97881  0.62791  0.9564000000000002  1.0000
  C   C1582     1.0  0.96469  0.58718  0.9552  1.0000
  C   C1583     1.0  0.9193700000000002  0.57635  0.9548200000000002  1.0000
  C   C1584     1.0  0.9116000000000002  0.5323500000000001  0.9504800000000001  1.0000
  C   C1585     1.0  0.8706300000000002  0.51923  0.94889  1.0000
  Ni  Ni80      1.0  0.99986  0.49814  0.9475900000000002  1.0000
  C   C1586     1.0  0.91129  0.46432  0.9447200000000001  1.0000
  C   C1587     1.0  0.87043  0.4775  0.94633  1.0000
  C   C1588     1.0  0.08085000000000003  0.57611  0.9549400000000002  1.0000
  H   H633      1.0  0.958  0.34119  0.93813  1.0000
  H   H634      1.0  0.03983000000000001  0.34096  0.9380700000000001  1.0000
  H   H635      1.0  0.15696  0.45878  0.9453000000000001  1.0000
  H   H636      1.0  0.15720000000000006  0.53758  0.94999  1.0000
  N   N605      1.0  0.9996100000000001  0.43599  0.94157  1.0000
  N   N606      1.0  0.061  0.49802  0.9476000000000002  1.0000
  N   N607      1.0  7.000000000000008e-05  0.56028  0.9536000000000002  1.0000
  N   N608      1.0  0.93874  0.4983  0.9475900000000002  1.0000
  H   H637      1.0  0.04143  0.65513  0.95693  1.0000
  H   H638      1.0  0.95969  0.65527  0.9569600000000003  1.0000
  H   H639      1.0  0.84281  0.53768  0.9498700000000001  1.0000
  H   H640      1.0  0.8424000000000003  0.45909  0.9453700000000003  1.0000
  C   C1589     1.0  0.96386  0.40927  0.93996  1.0000
  C   C1590     1.0  0.97748  0.36847  0.9387200000000002  1.0000
  C   C1591     1.0  0.02076  0.36835  0.9386800000000001  1.0000
  C   C1592     1.0  0.03500000000000002  0.40907  0.9399000000000001  1.0000
  C   C1593     1.0  0.08043000000000003  0.41986  0.9402400000000002  1.0000
  C   C1594     1.0  0.08817  0.46396  0.9446600000000002  1.0000
  C   C1595     1.0  0.12912  0.47722  0.9462900000000002  1.0000
  C   C1596     1.0  0.12925000000000006  0.51902  0.94895  1.0000
  C   C1597     1.0  0.08837000000000003  0.53211  0.9505500000000002  1.0000
  C   C1598     1.0  0.9186700000000002  0.42037  0.9403700000000003  1.0000
  C   C1599     1.0  0.035700000000000016  0.58706  0.9552400000000002  1.0000
  C   C1600     1.0  0.022040000000000008  0.62783  0.9564100000000002  1.0000
  N   N609      1.0  0.11936000000000002  0.10355  0.9360500000000003  1.0000
  N   N610      1.0  0.12726  0.14268  0.9307600000000001  1.0000
  N   N611      1.0  0.11682000000000003  0.8932  0.9587500000000002  1.0000
  N   N612      1.0  0.12316  0.85385  0.96386  1.0000
  N   N613      1.0  0.39401000000000014  0.87517  0.98727  1.0000
  N   N614      1.0  0.35367000000000004  0.87257  0.9833800000000003  1.0000
  N   N615      1.0  0.36979  0.13882  0.9127  1.0000
  N   N616      1.0  0.37684  0.09907  0.90844  1.0000
  N   N617      1.0  0.87694  0.89354  0.9584500000000002  1.0000
  N   N618      1.0  0.87085  0.85416  0.9635600000000001  1.0000
  N   N619      1.0  0.87631  0.10444000000000003  0.9363400000000002  1.0000
  N   N620      1.0  0.8688800000000002  0.1437  0.93136  1.0000
  N   N621      1.0  0.62659  0.14377  0.91392  1.0000
  N   N622      1.0  0.6195600000000002  0.10444000000000003  0.90883  1.0000
  N   N623      1.0  0.62482  0.89387  0.98706  1.0000
  N   N624      1.0  0.63119  0.8545100000000002  0.9820000000000001  1.0000
  N   N625      1.0  0.6207  0.60459  0.98672  1.0000
  N   N626      1.0  0.6286300000000002  0.64371  0.9814600000000002  1.0000
  N   N627      1.0  0.6269100000000002  0.35512  0.9136900000000001  1.0000
  N   N628      1.0  0.61937  0.39441  0.90868  1.0000
  N   N629      1.0  0.8699  0.35428  0.9313200000000003  1.0000
  N   N630      1.0  0.87782  0.39344  0.9365200000000001  1.0000
  N   N631      1.0  0.87145  0.64281  0.96377  1.0000
  N   N632      1.0  0.8788600000000002  0.60356  0.9586900000000003  1.0000
  N   N633      1.0  0.37712  0.39372  0.9084000000000002  1.0000
  N   N634      1.0  0.37054  0.35402  0.91282  1.0000
  N   N635      1.0  0.37089  0.64828  0.9828100000000002  1.0000
  N   N636      1.0  0.37793  0.60852  0.9869500000000002  1.0000
  N   N637      1.0  0.12840000000000004  0.64282  0.9643000000000003  1.0000
  N   N638      1.0  0.12137  0.60351  0.9589000000000002  1.0000
  N   N639      1.0  0.12853  0.35331  0.9310900000000001  1.0000
  N   N640      1.0  0.12101000000000003  0.3926  0.93624  1.0000
