data_image0
_chemical_formula_structural       Cu24H96C336O96
_chemical_formula_sum              "Cu24 H96 C336 O96"
_cell_length_a       34.99936
_cell_length_b       34.989489999999996
_cell_length_c       35.09613
_cell_angle_alpha    59.87160999999998
_cell_angle_beta     59.9091
_cell_angle_gamma    60.11541999999999

_symmetry_space_group_name_H-M    'P 1'
_symmetry_Int_Tables_number       1

loop_
  _symmetry_equiv_pos_as_xyz
  'x,y,z'

loop_
  _atom_site_type_symbol
  _atom_site_label
  _atom_site_symmetry_multiplicity
  _atom_site_fract_x
  _atom_site_fract_y
  _atom_site_fract_z
  _atom_site_occupancy
  Cu  Cu1       1.0  0.7677699999999998  0.9965599999999998  0.00156  1.0000
  Cu  Cu2       1.0  0.6977600000000002  0.9966199999999997  0.0017699999999999997  1.0000
  Cu  Cu3       1.0  0.99957  0.7662399999999997  0.23148  1.0000
  Cu  Cu4       1.0  0.99922  0.69609  0.3012  1.0000
  Cu  Cu5       1.0  0.9995299999999999  0.23288999999999999  0.7679999999999998  1.0000
  Cu  Cu6       1.0  0.9994299999999999  0.30308999999999997  0.69822  1.0000
  Cu  Cu7       1.0  0.23230000000000006  0.9999099999999999  0.00036  1.0000
  Cu  Cu8       1.0  0.30234000000000005  0.9996999999999999  0.0004599999999999999  1.0000
  Cu  Cu9       1.0  0.76687  0.0009200000000000214  0.23311999999999997  1.0000
  Cu  Cu10      1.0  0.69699  0.00019000000000004595  0.3031099999999999  1.0000
  Cu  Cu11      1.0  0.002700000000000001  0.23161  4.999999999999999e-05  1.0000
  Cu  Cu12      1.0  0.0018799999999999809  0.30187  0.00022999999999999995  1.0000
  Cu  Cu13      1.0  0.0006300000000001669  0.76691  0.9980899999999998  1.0000
  Cu  Cu14      1.0  0.0012900000000001677  0.6967899999999998  0.9976599999999998  1.0000
  Cu  Cu15      1.0  0.23250999999999997  0.00036000000000001157  0.76738  1.0000
  Cu  Cu16      1.0  0.30241  0.0016600000000000811  0.6972299999999998  1.0000
  Cu  Cu17      1.0  0.76855  0.23021999999999995  0.00013  1.0000
  Cu  Cu18      1.0  0.69879  0.30027  7e-05  1.0000
  Cu  Cu19      1.0  0.00027000000000007573  0.0007200000000000817  0.7667899999999997  1.0000
  Cu  Cu20      1.0  0.9997299999999999  0.001139999999999983  0.69708  1.0000
  Cu  Cu21      1.0  0.9989000000000002  0.9992499999999999  0.23335  1.0000
  Cu  Cu22      1.0  0.99897  0.9988699999999996  0.30322  1.0000
  Cu  Cu23      1.0  0.23274999999999996  0.7670900000000002  0.9991799999999998  1.0000
  Cu  Cu24      1.0  0.3027500000000001  0.6973999999999998  0.9991799999999998  1.0000
  H   H1        1.0  0.7315600000000001  0.8506799999999998  0.02623  1.0000
  H   H2        1.0  0.8548000000000001  0.7306099999999999  0.38595  1.0000
  H   H3        1.0  0.023470000000000078  0.38897  0.7328099999999997  1.0000
  H   H4        1.0  0.38571000000000005  0.029970000000000094  0.8546399999999997  1.0000
  H   H5        1.0  0.7284299999999999  0.03131000000000003  0.3865499999999999  1.0000
  H   H6        1.0  0.8550900000000001  0.3831999999999999  0.031169999999999993  1.0000
  H   H7        1.0  0.033209999999999996  0.7297600000000001  0.8509899999999998  1.0000
  H   H8        1.0  0.38683000000000034  0.8565599999999998  0.7297799999999998  1.0000
  H   H9        1.0  0.73082  0.3858199999999999  0.8558999999999998  1.0000
  H   H10       1.0  0.8546399999999997  0.027900000000000032  0.7315899999999999  1.0000
  H   H11       1.0  0.022430000000000068  0.8541599999999999  0.38840999999999987  1.0000
  H   H12       1.0  0.3861200000000001  0.7304999999999999  0.028679999999999994  1.0000
  H   H13       1.0  0.14958000000000002  0.27043  0.96855  1.0000
  H   H14       1.0  0.26944999999999997  0.1473900000000001  0.6143499999999997  1.0000
  H   H15       1.0  0.61273  0.97126  0.27047  1.0000
  H   H16       1.0  0.9659799999999998  0.6152399999999999  0.14494999999999997  1.0000
  H   H17       1.0  0.97236  0.27077999999999997  0.61264  1.0000
  H   H18       1.0  0.61426  0.14348000000000008  0.9713999999999998  1.0000
  H   H19       1.0  0.2670300000000002  0.9767199999999998  0.14449  1.0000
  H   H20       1.0  0.14669000000000024  0.6132299999999996  0.26973  1.0000
  H   H21       1.0  0.6135899999999999  0.2708899999999999  0.14662999999999995  1.0000
  H   H22       1.0  0.9732799999999999  0.14423000000000002  0.26975  1.0000
  H   H23       1.0  0.14489000000000032  0.9764499999999997  0.6108999999999999  1.0000
  H   H24       1.0  0.27124000000000004  0.6151499999999999  0.96584  1.0000
  H   H25       1.0  0.27232  0.14628999999999998  0.9689699999999998  1.0000
  H   H26       1.0  0.14471000000000003  0.26946  0.61303  1.0000
  H   H27       1.0  0.96726  0.61368  0.2684099999999999  1.0000
  H   H28       1.0  0.61251  0.9723599999999998  0.14676999999999998  1.0000
  H   H29       1.0  0.26792  0.9794499999999999  0.60923  1.0000
  H   H30       1.0  0.14731  0.6141700000000001  0.9673699999999997  1.0000
  H   H31       1.0  0.9781299999999999  0.2670699999999999  0.1452  1.0000
  H   H32       1.0  0.61156  0.14621999999999996  0.26942999999999995  1.0000
  H   H33       1.0  0.26951000000000014  0.6133599999999998  0.14523  1.0000
  H   H34       1.0  0.14407  0.9740999999999999  0.26892  1.0000
  H   H35       1.0  0.97011  0.1482999999999999  0.61259  1.0000
  H   H36       1.0  0.616  0.26619000000000004  0.9716899999999998  1.0000
  H   H37       1.0  0.85683  0.72919  0.02189  1.0000
  H   H38       1.0  0.7317600000000001  0.8544099999999998  0.38910999999999996  1.0000
  H   H39       1.0  0.3872500000000001  0.02927000000000009  0.7309599999999998  1.0000
  H   H40       1.0  0.027210000000000015  0.3877999999999999  0.85486  1.0000
  H   H41       1.0  0.023990000000000112  0.72971  0.3884299999999999  1.0000
  H   H42       1.0  0.3859300000000001  0.8539499999999998  0.0294  1.0000
  H   H43       1.0  0.7304800000000001  0.027729999999999994  0.8547199999999998  1.0000
  H   H44       1.0  0.8535599999999999  0.3883400000000001  0.73134  1.0000
  H   H45       1.0  0.38902000000000003  0.73192  0.8525999999999999  1.0000
  H   H46       1.0  0.03101000000000018  0.8546299999999997  0.72827  1.0000
  H   H47       1.0  0.85185  0.030610000000000043  0.3876599999999999  1.0000
  H   H48       1.0  0.7325  0.3822999999999999  0.029989999999999992  1.0000
  H   H49       1.0  0.8589499999999999  0.8564899999999998  0.010529999999999996  1.0000
  H   H50       1.0  0.8582700000000002  0.8596899999999997  0.27046  1.0000
  H   H51       1.0  0.009800000000000067  0.27154000000000006  0.8604599999999998  1.0000
  H   H52       1.0  0.27208000000000004  0.008570000000000026  0.85975  1.0000
  H   H53       1.0  0.8573499999999998  0.014290000000000021  0.27120999999999995  1.0000
  H   H54       1.0  0.8622900000000001  0.2687499999999999  0.00954  1.0000
  H   H55       1.0  0.012940000000000153  0.85852  0.8571499999999997  1.0000
  H   H56       1.0  0.2714899999999999  0.8586000000000001  0.85886  1.0000
  H   H57       1.0  0.8586499999999999  0.26921999999999996  0.8574199999999997  1.0000
  H   H58       1.0  0.8589400000000001  0.008820000000000064  0.8606599999999998  1.0000
  H   H59       1.0  0.00777000000000018  0.8578899999999999  0.27189999999999986  1.0000
  H   H60       1.0  0.26970000000000005  0.8584  0.01306  1.0000
  H   H61       1.0  0.14273000000000008  0.14203000000000002  0.9881999999999997  1.0000
  H   H62       1.0  0.14164000000000002  0.14206000000000005  0.7311499999999997  1.0000
  H   H63       1.0  0.7298000000000003  0.9867499999999998  0.14280999999999994  1.0000
  H   H64       1.0  0.99009  0.7275599999999998  0.13902  1.0000
  H   H65       1.0  0.9903800000000005  0.14129000000000003  0.7275499999999998  1.0000
  H   H66       1.0  0.72998  0.13663000000000006  0.9906399999999999  1.0000
  H   H67       1.0  0.14035000000000009  0.9873399999999998  0.14200999999999994  1.0000
  H   H68       1.0  0.1400299999999999  0.7269400000000001  0.14012999999999995  1.0000
  H   H69       1.0  0.72788  0.1419  0.14127999999999996  1.0000
  H   H70       1.0  0.98975  0.14052999999999993  0.14145  1.0000
  H   H71       1.0  0.14073999999999998  0.9919799999999999  0.72709  1.0000
  H   H72       1.0  0.14198000000000013  0.72874  0.9872099999999998  1.0000
  H   H73       1.0  0.6107799999999999  0.73027  0.044139999999999985  1.0000
  H   H74       1.0  0.73312  0.6069000000000001  0.6136499999999999  1.0000
  H   H75       1.0  0.047320000000000015  0.61114  0.6087  1.0000
  H   H76       1.0  0.6112799999999999  0.05055  0.73287  1.0000
  H   H77       1.0  0.60801  0.04708000000000005  0.6132499999999999  1.0000
  H   H78       1.0  0.73236  0.6054599999999998  0.04855  1.0000
  H   H79       1.0  0.05414000000000004  0.6079700000000001  0.7298299999999998  1.0000
  H   H80       1.0  0.6110600000000003  0.7307099999999999  0.60433  1.0000
  H   H81       1.0  0.60593  0.6127899999999997  0.73287  1.0000
  H   H82       1.0  0.73374  0.04686000000000002  0.6087599999999999  1.0000
  H   H83       1.0  0.04954000000000006  0.73355  0.60859  1.0000
  H   H84       1.0  0.6085800000000001  0.6053099999999998  0.04951  1.0000
  H   H85       1.0  0.27141000000000004  0.39198000000000005  0.9461499999999999  1.0000
  H   H86       1.0  0.3903  0.26835  0.39099  1.0000
  H   H87       1.0  0.38963  0.9520599999999997  0.39014  1.0000
  H   H88       1.0  0.94584  0.38957999999999987  0.26948999999999995  1.0000
  H   H89       1.0  0.94041  0.3965099999999999  0.3916199999999999  1.0000
  H   H90       1.0  0.39365000000000006  0.2678900000000001  0.9505299999999998  1.0000
  H   H91       1.0  0.3907399999999998  0.95055  0.26737  1.0000
  H   H92       1.0  0.26840000000000014  0.3929399999999999  0.39131  1.0000
  H   H93       1.0  0.39316999999999996  0.3934  0.26929999999999993  1.0000
  H   H94       1.0  0.9514299999999999  0.26698999999999995  0.39356999999999986  1.0000
  H   H95       1.0  0.2662699999999999  0.95222  0.38975  1.0000
  H   H96       1.0  0.39289000000000013  0.39192000000000005  0.9499999999999997  1.0000
  C   C1        1.0  0.7691000000000001  0.9090099999999998  0.014719999999999997  1.0000
  C   C2        1.0  0.79268  0.8586  0.01826  1.0000
  C   C3        1.0  0.7681500000000001  0.8335899999999998  0.023679999999999996  1.0000
  C   C4        1.0  0.9118  0.7693799999999998  0.30255999999999994  1.0000
  C   C5        1.0  0.8614200000000001  0.7926899999999998  0.32589  1.0000
  C   C6        1.0  0.8370299999999999  0.76725  0.3697399999999999  1.0000
  C   C7        1.0  0.010820000000000003  0.3054  0.77153  1.0000
  C   C8        1.0  0.016150000000000175  0.3281099999999999  0.7942599999999997  1.0000
  C   C9        1.0  0.022260000000000085  0.37195000000000006  0.7689799999999998  1.0000
  C   C10       1.0  0.30444  0.012550000000000087  0.9131099999999998  1.0000
  C   C11       1.0  0.3268300000000001  0.018579999999999982  0.86222  1.0000
  C   C12       1.0  0.3695400000000001  0.026980000000000056  0.8371199999999998  1.0000
  C   C13       1.0  0.76784  0.016800000000000002  0.30405  1.0000
  C   C14       1.0  0.79034  0.022830000000000027  0.3264499999999999  1.0000
  C   C15       1.0  0.7649099999999998  0.029370000000000025  0.36989999999999995  1.0000
  C   C16       1.0  0.9143799999999999  0.30194  0.01475  1.0000
  C   C17       1.0  0.86356  0.32378  0.0202  1.0000
  C   C18       1.0  0.8379500000000001  0.36655  0.028209999999999992  1.0000
  C   C19       1.0  0.016420000000000226  0.7688399999999999  0.9098799999999998  1.0000
  C   C20       1.0  0.022800000000000015  0.79178  0.8588699999999999  1.0000
  C   C21       1.0  0.030610000000000043  0.7664600000000001  0.8335599999999997  1.0000
  C   C22       1.0  0.30353  0.9131300000000001  0.7689399999999997  1.0000
  C   C23       1.0  0.32678000000000024  0.8625099999999999  0.79177  1.0000
  C   C24       1.0  0.37042  0.83831  0.7662  1.0000
  C   C25       1.0  0.76983  0.30198000000000014  0.9121999999999998  1.0000
  C   C26       1.0  0.7922600000000001  0.32518999999999987  0.8614699999999997  1.0000
  C   C27       1.0  0.7670300000000002  0.36936  0.8375399999999997  1.0000
  C   C28       1.0  0.9125300000000003  0.013440000000000061  0.7703899999999998  1.0000
  C   C29       1.0  0.8617600000000001  0.018370000000000046  0.7935499999999999  1.0000
  C   C30       1.0  0.8368800000000001  0.025620000000000098  0.7680799999999998  1.0000
  C   C31       1.0  0.010420000000000094  0.9116599999999998  0.30504  1.0000
  C   C32       1.0  0.014880000000000107  0.8609699999999998  0.3278999999999999  1.0000
  C   C33       1.0  0.020780000000000166  0.8362799999999999  0.3716399999999999  1.0000
  C   C34       1.0  0.30344000000000015  0.7688399999999997  0.01493  1.0000
  C   C35       1.0  0.3257200000000001  0.7918699999999997  0.02057  1.0000
  C   C36       1.0  0.3693199999999999  0.76689  0.026829999999999993  1.0000
  C   C37       1.0  0.09032000000000001  0.2311600000000001  0.9847199999999998  1.0000
  C   C38       1.0  0.14125000000000004  0.20854999999999993  0.97874  1.0000
  C   C39       1.0  0.16669000000000003  0.2338000000000001  0.9711599999999998  1.0000
  C   C40       1.0  0.23102000000000006  0.08903000000000005  0.6969399999999998  1.0000
  C   C41       1.0  0.20787  0.13985000000000009  0.6747699999999998  1.0000
  C   C42       1.0  0.23282  0.16479  0.6309199999999999  1.0000
  C   C43       1.0  0.6959500000000002  0.98478  0.23186999999999994  1.0000
  C   C44       1.0  0.6735  0.9792999999999997  0.20899  1.0000
  C   C45       1.0  0.6297000000000001  0.9731499999999997  0.23407999999999998  1.0000
  C   C46       1.0  0.98536  0.69564  0.08588  1.0000
  C   C47       1.0  0.97852  0.6735299999999997  0.13699999999999998  1.0000
  C   C48       1.0  0.9692300000000001  0.63123  0.16244  1.0000
  C   C49       1.0  0.9870600000000003  0.23112000000000002  0.6950799999999998  1.0000
  C   C50       1.0  0.98147  0.20853  0.67245  1.0000
  C   C51       1.0  0.9741  0.23433  0.62937  1.0000
  C   C52       1.0  0.69638  0.08441000000000008  0.9870199999999998  1.0000
  C   C53       1.0  0.6743600000000001  0.1352999999999999  0.98113  1.0000
  C   C54       1.0  0.63128  0.1607399999999999  0.97372  1.0000
  C   C55       1.0  0.2295000000000003  0.9872599999999998  0.08770999999999997  1.0000
  C   C56       1.0  0.20617000000000016  0.9823599999999998  0.13833999999999996  1.0000
  C   C57       1.0  0.23087000000000002  0.97759  0.16264  1.0000
  C   C58       1.0  0.08725000000000017  0.6941499999999998  0.23019999999999993  1.0000
  C   C59       1.0  0.13828999999999994  0.67219  0.20735999999999993  1.0000
  C   C60       1.0  0.16387000000000013  0.6296999999999998  0.23291999999999993  1.0000
  C   C61       1.0  0.69531  0.23113999999999996  0.08802  1.0000
  C   C62       1.0  0.6727499999999998  0.20864  0.13899  1.0000
  C   C63       1.0  0.62977  0.23412  0.16407  1.0000
  C   C64       1.0  0.9866199999999999  0.08662000000000002  0.23094999999999993  1.0000
  C   C65       1.0  0.98202  0.13733  0.20798  1.0000
  C   C66       1.0  0.9761999999999998  0.16181999999999994  0.23307999999999995  1.0000
  C   C67       1.0  0.08737000000000021  0.9888899999999997  0.6943399999999998  1.0000
  C   C68       1.0  0.13789000000000012  0.9848499999999999  0.6710499999999998  1.0000
  C   C69       1.0  0.16251000000000018  0.9790699999999996  0.62726  1.0000
  C   C70       1.0  0.23168000000000002  0.6963800000000001  0.9829399999999998  1.0000
  C   C71       1.0  0.20908000000000018  0.6743199999999998  0.9765499999999998  1.0000
  C   C72       1.0  0.2346500000000001  0.6316100000000001  0.9684399999999997  1.0000
  C   C73       1.0  0.23223000000000002  0.08802000000000003  0.9848299999999998  1.0000
  C   C74       1.0  0.21000000000000005  0.13901000000000002  0.9788499999999998  1.0000
  C   C75       1.0  0.23578000000000005  0.16393000000000005  0.9713199999999997  1.0000
  C   C76       1.0  0.08742000000000003  0.2311299999999999  0.6974  1.0000
  C   C77       1.0  0.13822000000000007  0.20839000000000005  0.6746099999999998  1.0000
  C   C78       1.0  0.16269000000000003  0.2334  0.63039  1.0000
  C   C79       1.0  0.9853400000000002  0.6948099999999996  0.22892  1.0000
  C   C80       1.0  0.9788400000000002  0.6729299999999999  0.2062  1.0000
  C   C81       1.0  0.9698600000000002  0.6304499999999997  0.23182999999999995  1.0000
  C   C82       1.0  0.6963600000000001  0.9839199999999998  0.08922999999999998  1.0000
  C   C83       1.0  0.6736100000000003  0.9793999999999998  0.13982  1.0000
  C   C84       1.0  0.6296500000000003  0.9736499999999998  0.16454999999999995  1.0000
  C   C85       1.0  0.23005000000000023  0.9899899999999999  0.6936299999999997  1.0000
  C   C86       1.0  0.20687999999999993  0.98581  0.67051  1.0000
  C   C87       1.0  0.2316799999999999  0.9805800000000001  0.62646  1.0000
  C   C88       1.0  0.08856000000000011  0.69527  0.9844199999999997  1.0000
  C   C89       1.0  0.1396600000000003  0.6736999999999997  0.9775599999999998  1.0000
  C   C90       1.0  0.16494000000000014  0.631  0.9694  1.0000
  C   C91       1.0  0.9895599999999999  0.22943999999999995  0.08761  1.0000
  C   C92       1.0  0.98406  0.20633  0.13844  1.0000
  C   C93       1.0  0.9786999999999999  0.23096999999999998  0.16315999999999997  1.0000
  C   C94       1.0  0.69438  0.08805999999999996  0.23051  1.0000
  C   C95       1.0  0.67203  0.13903  0.20789  1.0000
  C   C96       1.0  0.6287799999999999  0.16402999999999998  0.23314999999999997  1.0000
  C   C97       1.0  0.22975000000000018  0.6945299999999998  0.08662  1.0000
  C   C98       1.0  0.20715  0.67227  0.13769  1.0000
  C   C99       1.0  0.2329500000000001  0.6297099999999998  0.16294999999999996  1.0000
  C   C100      1.0  0.08680000000000013  0.9847600000000001  0.23123999999999995  1.0000
  C   C101      1.0  0.13733000000000004  0.98085  0.20792  1.0000
  C   C102      1.0  0.16177000000000008  0.9760499999999998  0.23252  1.0000
  C   C103      1.0  0.9858299999999997  0.08893000000000006  0.6946699999999998  1.0000
  C   C104      1.0  0.98059  0.13982000000000003  0.6722599999999999  1.0000
  C   C105      1.0  0.97302  0.16539000000000004  0.62925  1.0000
  C   C106      1.0  0.6974899999999999  0.22651000000000007  0.9874899999999998  1.0000
  C   C107      1.0  0.67517  0.20388  0.9814799999999998  1.0000
  C   C108      1.0  0.63219  0.22968000000000005  0.9739599999999998  1.0000
  C   C109      1.0  0.91361  0.7680899999999998  0.010459999999999997  1.0000
  C   C110      1.0  0.8627899999999998  0.79046  0.015929999999999996  1.0000
  C   C111      1.0  0.8385400000000002  0.7651999999999998  0.021289999999999993  1.0000
  C   C112      1.0  0.76951  0.91304  0.30575999999999987  1.0000
  C   C113      1.0  0.7926100000000003  0.86208  0.3276999999999999  1.0000
  C   C114      1.0  0.7679100000000001  0.8368699999999998  0.37153  1.0000
  C   C115      1.0  0.3051600000000001  0.013100000000000101  0.7698199999999997  1.0000
  C   C116      1.0  0.3274200000000001  0.018620000000000084  0.7928699999999997  1.0000
  C   C117      1.0  0.37034000000000006  0.02668000000000008  0.7675499999999997  1.0000
  C   C118      1.0  0.01445000000000016  0.3044  0.9128399999999998  1.0000
  C   C119      1.0  0.018299999999999955  0.32753  0.86246  1.0000
  C   C120      1.0  0.02440000000000011  0.37135000000000007  0.8374899999999997  1.0000
  C   C121      1.0  0.01185000000000008  0.7678599999999999  0.30472  1.0000
  C   C122      1.0  0.015730000000000088  0.79129  0.3278399999999999  1.0000
  C   C123      1.0  0.02165000000000002  0.7663299999999997  0.37161  1.0000
  C   C124      1.0  0.30309000000000014  0.9118399999999998  0.01538  1.0000
  C   C125      1.0  0.32574000000000003  0.8609999999999998  0.02075  1.0000
  C   C126      1.0  0.36934000000000017  0.8362299999999998  0.02713  1.0000
  C   C127      1.0  0.76956  0.01107999999999995  0.91375  1.0000
  C   C128      1.0  0.79238  0.01763000000000006  0.8626799999999998  1.0000
  C   C129      1.0  0.7671000000000001  0.02530000000000004  0.8373599999999998  1.0000
  C   C130      1.0  0.9116200000000002  0.30455999999999994  0.7686799999999998  1.0000
  C   C131      1.0  0.86087  0.3266099999999998  0.79189  1.0000
  C   C132      1.0  0.8359800000000002  0.37082000000000004  0.7675999999999997  1.0000
  C   C133      1.0  0.3060200000000002  0.7697599999999999  0.9116899999999999  1.0000
  C   C134      1.0  0.32824000000000025  0.7929499999999997  0.8607499999999998  1.0000
  C   C135      1.0  0.3717200000000003  0.7683299999999998  0.8353099999999998  1.0000
  C   C136      1.0  0.015080000000000048  0.9128100000000001  0.7678299999999998  1.0000
  C   C137      1.0  0.021830000000000294  0.8615999999999997  0.7901699999999998  1.0000
  C   C138      1.0  0.029409999999999985  0.8366399999999999  0.76459  1.0000
  C   C139      1.0  0.9107300000000002  0.01534999999999999  0.30542  1.0000
  C   C140      1.0  0.8595200000000001  0.02223000000000002  0.3271899999999999  1.0000
  C   C141      1.0  0.8343000000000002  0.028960000000000003  0.37056  1.0000
  C   C142      1.0  0.7722499999999998  0.30126999999999987  0.013069999999999997  1.0000
  C   C143      1.0  0.79498  0.32335999999999987  0.01931  1.0000
  C   C144      1.0  0.76908  0.3660599999999999  0.02746  1.0000
  C   C145      1.0  0.8399199999999999  0.8370099999999998  0.01476  1.0000
  C   C146      1.0  0.7907500000000002  0.7864199999999998  0.025619999999999997  1.0000
  C   C147      1.0  0.7659899999999997  0.7610399999999999  0.03121  1.0000
  C   C148      1.0  0.7444299999999999  0.7392399999999998  0.03568  1.0000
  C   C149      1.0  0.7205799999999999  0.71575  0.040119999999999996  1.0000
  C   C150      1.0  0.69879  0.6946899999999998  0.04372999999999999  1.0000
  C   C151      1.0  0.6743699999999999  0.6706899999999998  0.046359999999999985  1.0000
  C   C152      1.0  0.8392500000000002  0.8400299999999998  0.30456  1.0000
  C   C153      1.0  0.78983  0.7889899999999997  0.3929399999999999  1.0000
  C   C154      1.0  0.7652900000000001  0.7629699999999998  0.4371099999999999  1.0000
  C   C155      1.0  0.74467  0.73974  0.47554  1.0000
  C   C156      1.0  0.7215200000000003  0.7152499999999998  0.51813  1.0000
  C   C157      1.0  0.7002400000000002  0.6936999999999998  0.55738  1.0000
  C   C158      1.0  0.6749599999999999  0.6712799999999998  0.60345  1.0000
  C   C159      1.0  0.014510000000000082  0.30560000000000004  0.8409199999999998  1.0000
  C   C160      1.0  0.026849999999999978  0.3939599999999999  0.79022  1.0000
  C   C161      1.0  0.033380000000000104  0.43812000000000006  0.7646099999999998  1.0000
  C   C162      1.0  0.03896000000000002  0.47654000000000013  0.7421999999999997  1.0000
  C   C163      1.0  0.04442000000000005  0.51901  0.71783  1.0000
  C   C164      1.0  0.04855000000000021  0.5580699999999998  0.6959699999999998  1.0000
  C   C165      1.0  0.05084000000000004  0.604  0.67196  1.0000
  C   C166      1.0  0.3054  0.014850000000000075  0.8401499999999997  1.0000
  C   C167      1.0  0.39176000000000005  0.03126000000000009  0.7893899999999998  1.0000
  C   C168      1.0  0.43548000000000003  0.03864000000000002  0.7644299999999999  1.0000
  C   C169      1.0  0.47431  0.04316999999999998  0.7438  1.0000
  C   C170      1.0  0.5176099999999999  0.04658  0.7211  1.0000
  C   C171      1.0  0.5575700000000002  0.04831000000000005  0.7003799999999998  1.0000
  C   C172      1.0  0.6040600000000002  0.04889000000000003  0.67593  1.0000
  C   C173      1.0  0.8375499999999998  0.01963000000000004  0.3048299999999999  1.0000
  C   C174      1.0  0.7865700000000001  0.03269000000000001  0.39240999999999987  1.0000
  C   C175      1.0  0.7611900000000001  0.03796000000000004  0.4369299999999999  1.0000
  C   C176      1.0  0.7394000000000001  0.04108000000000002  0.47622999999999993  1.0000
  C   C177      1.0  0.71637  0.043850000000000076  0.5196299999999998  1.0000
  C   C178      1.0  0.69606  0.045699999999999984  0.55942  1.0000
  C   C179      1.0  0.6733399999999999  0.047349999999999996  0.60538  1.0000
  C   C180      1.0  0.8421699999999999  0.30187  0.01602  1.0000
  C   C181      1.0  0.7903000000000001  0.3881099999999999  0.03207999999999999  1.0000
  C   C182      1.0  0.76446  0.4317799999999999  0.03917999999999999  1.0000
  C   C183      1.0  0.74217  0.4704199999999999  0.04389999999999999  1.0000
  C   C184      1.0  0.7181  0.5135  0.047519999999999986  1.0000
  C   C185      1.0  0.6964800000000001  0.55327  0.04952  1.0000
  C   C186      1.0  0.67304  0.59991  0.04945  1.0000
  C   C187      1.0  0.019050000000000115  0.83915  0.8371699999999997  1.0000
  C   C188      1.0  0.034419999999999916  0.78855  0.78589  1.0000
  C   C189      1.0  0.04151999999999998  0.7631700000000001  0.76049  1.0000
  C   C190      1.0  0.04631000000000004  0.7410399999999999  0.7392299999999999  1.0000
  C   C191      1.0  0.05017000000000018  0.7173399999999998  0.7161199999999998  1.0000
  C   C192      1.0  0.0522900000000001  0.6963699999999999  0.6952699999999999  1.0000
  C   C193      1.0  0.052460000000000055  0.6732499999999998  0.67172  1.0000
  C   C194      1.0  0.3054000000000001  0.8398599999999997  0.83896  1.0000
  C   C195      1.0  0.39315999999999995  0.79069  0.78748  1.0000
  C   C196      1.0  0.4368500000000002  0.7660999999999999  0.7611599999999997  1.0000
  C   C197      1.0  0.47498000000000024  0.7451799999999996  0.7380599999999999  1.0000
  C   C198      1.0  0.5175000000000001  0.7216999999999998  0.71399  1.0000
  C   C199      1.0  0.55682  0.70002  0.6931799999999998  1.0000
  C   C200      1.0  0.6030299999999998  0.67472  0.6712  1.0000
  C   C201      1.0  0.83907  0.3034500000000001  0.8386899999999998  1.0000
  C   C202      1.0  0.7885100000000002  0.3926299999999998  0.79015  1.0000
  C   C203      1.0  0.7629499999999998  0.43738000000000005  0.7660899999999998  1.0000
  C   C204      1.0  0.74052  0.47641  0.74561  1.0000
  C   C205      1.0  0.7163900000000001  0.5193500000000001  0.7226699999999998  1.0000
  C   C206      1.0  0.6947100000000003  0.5586099999999999  0.7016999999999999  1.0000
  C   C207      1.0  0.67191  0.60418  0.6760199999999998  1.0000
  C   C208      1.0  0.8395699999999999  0.014599999999999978  0.84082  1.0000
  C   C209      1.0  0.7891699999999997  0.029449999999999994  0.78966  1.0000
  C   C210      1.0  0.7643300000000001  0.03623999999999998  0.76393  1.0000
  C   C211      1.0  0.74345  0.04087000000000011  0.7415499999999998  1.0000
  C   C212      1.0  0.7205200000000002  0.044930000000000025  0.71755  1.0000
  C   C213      1.0  0.6997999999999999  0.047600000000000094  0.6961299999999998  1.0000
  C   C214      1.0  0.6752799999999999  0.048769999999999994  0.67334  1.0000
  C   C215      1.0  0.01251000000000003  0.83857  0.30581  1.0000
  C   C216      1.0  0.024480000000000106  0.7885399999999998  0.39394  1.0000
  C   C217      1.0  0.030660000000000003  0.76369  0.4380799999999999  1.0000
  C   C218      1.0  0.035679999999999996  0.74293  0.47659  1.0000
  C   C219      1.0  0.04082000000000003  0.72009  0.51899  1.0000
  C   C220      1.0  0.045059999999999975  0.69948  0.55784  1.0000
  C   C221      1.0  0.04858999999999996  0.6750500000000003  0.6031099999999998  1.0000
  C   C222      1.0  0.30362000000000006  0.8388899999999999  0.01785  1.0000
  C   C223      1.0  0.3916300000000001  0.7886699999999998  0.03042  1.0000
  C   C224      1.0  0.43598  0.76319  0.036209999999999985  1.0000
  C   C225      1.0  0.47502  0.7406  0.040039999999999985  1.0000
  C   C226      1.0  0.51829  0.71628  0.043289999999999995  1.0000
  C   C227      1.0  0.5580000000000003  0.6946199999999998  0.04545999999999999  1.0000
  C   C228      1.0  0.6040800000000002  0.6705399999999998  0.04706999999999999  1.0000
  C   C229      1.0  0.16284000000000007  0.16132000000000002  0.9822699999999999  1.0000
  C   C230      1.0  0.2144100000000001  0.21169999999999992  0.96721  1.0000
  C   C231      1.0  0.2400900000000001  0.23687  0.9603299999999998  1.0000
  C   C232      1.0  0.2619600000000001  0.25857  0.95548  1.0000
  C   C233      1.0  0.2854000000000001  0.28219  0.9515099999999997  1.0000
  C   C234      1.0  0.30645000000000017  0.30322999999999994  0.9491599999999998  1.0000
  C   C235      1.0  0.32985000000000014  0.3271499999999998  0.9482  1.0000
  C   C236      1.0  0.1607700000000002  0.16161999999999999  0.6970199999999998  1.0000
  C   C237      1.0  0.21045000000000008  0.21199999999999997  0.60821  1.0000
  C   C238      1.0  0.23533999999999997  0.23715999999999998  0.56358  1.0000
  C   C239      1.0  0.25711  0.25865  0.52461  1.0000
  C   C240      1.0  0.28065  0.2823599999999999  0.48165999999999987  1.0000
  C   C241      1.0  0.3021499999999999  0.30368  0.4423799999999999  1.0000
  C   C242      1.0  0.32662  0.3279  0.39675  1.0000
  C   C243      1.0  0.69579  0.9819799999999997  0.16200999999999993  1.0000
  C   C244      1.0  0.60738  0.9699699999999998  0.21213999999999994  1.0000
  C   C245      1.0  0.56303  0.96405  0.23712999999999995  1.0000
  C   C246      1.0  0.52419  0.9595199999999999  0.2585199999999999  1.0000
  C   C247      1.0  0.4812300000000002  0.9553999999999998  0.28172  1.0000
  C   C248      1.0  0.4417600000000001  0.9523999999999998  0.30267  1.0000
  C   C249      1.0  0.3956299999999999  0.9508800000000001  0.32627999999999996  1.0000
  C   C250      1.0  0.9828199999999999  0.6947399999999998  0.15888  1.0000
  C   C251      1.0  0.9645199999999999  0.6092499999999997  0.21031999999999995  1.0000
  C   C252      1.0  0.95581  0.56612  0.23606  1.0000
  C   C253      1.0  0.9495600000000002  0.5279999999999998  0.25817  1.0000
  C   C254      1.0  0.9447099999999999  0.48525  0.28211  1.0000
  C   C255      1.0  0.9422899999999998  0.4455  0.30344  1.0000
  C   C256      1.0  0.9426699999999997  0.39863000000000004  0.3278399999999999  1.0000
  C   C257      1.0  0.9844599999999999  0.16134000000000004  0.69416  1.0000
  C   C258      1.0  0.96936  0.21313000000000001  0.60746  1.0000
  C   C259      1.0  0.9617300000000001  0.23928000000000008  0.5639999999999997  1.0000
  C   C260      1.0  0.9558800000000003  0.26188000000000006  0.5258599999999998  1.0000
  C   C261      1.0  0.9508900000000001  0.28564999999999996  0.4833499999999999  1.0000
  C   C262      1.0  0.9476  0.30652  0.44407999999999986  1.0000
  C   C263      1.0  0.9457399999999999  0.32916  0.39814999999999995  1.0000
  C   C264      1.0  0.6966100000000001  0.15676000000000004  0.9846999999999998  1.0000
  C   C265      1.0  0.6097600000000002  0.20844000000000004  0.9698599999999998  1.0000
  C   C266      1.0  0.5658000000000001  0.2344400000000001  0.9632999999999998  1.0000
  C   C267      1.0  0.5270000000000001  0.25725000000000003  0.9589399999999998  1.0000
  C   C268      1.0  0.48404000000000025  0.28163  0.9550099999999998  1.0000
  C   C269      1.0  0.4445399999999999  0.30342000000000013  0.9523199999999998  1.0000
  C   C270      1.0  0.3987300000000001  0.32728999999999997  0.95011  1.0000
  C   C271      1.0  0.15952000000000016  0.9835899999999997  0.16092999999999993  1.0000
  C   C272      1.0  0.20905000000000007  0.97392  0.21021999999999993  1.0000
  C   C273      1.0  0.23418000000000014  0.9683299999999998  0.23505  1.0000
  C   C274      1.0  0.25617  0.9630599999999997  0.25671999999999995  1.0000
  C   C275      1.0  0.28016000000000013  0.9578199999999998  0.2803599999999999  1.0000
  C   C276      1.0  0.30181000000000013  0.9537  0.30172  1.0000
  C   C277      1.0  0.32576  0.95131  0.3258799999999999  1.0000
  C   C278      1.0  0.15993999999999997  0.6938499999999997  0.15986  1.0000
  C   C279      1.0  0.2116800000000001  0.60809  0.21102999999999994  1.0000
  C   C280      1.0  0.23751000000000008  0.5649099999999998  0.23667999999999995  1.0000
  C   C281      1.0  0.25961000000000006  0.52678  0.25866999999999996  1.0000
  C   C282      1.0  0.28337000000000023  0.48427999999999993  0.2825399999999999  1.0000
  C   C283      1.0  0.30469  0.44496  0.3037799999999999  1.0000
  C   C284      1.0  0.32813  0.39865000000000006  0.3275999999999999  1.0000
  C   C285      1.0  0.69431  0.16134  0.16092  1.0000
  C   C286      1.0  0.60741  0.21208  0.21165  1.0000
  C   C287      1.0  0.5637  0.23739999999999992  0.23712999999999995  1.0000
  C   C288      1.0  0.52523  0.25903  0.25912  1.0000
  C   C289      1.0  0.4825400000000001  0.2827499999999999  0.28271999999999997  1.0000
  C   C290      1.0  0.44326000000000004  0.30421  0.3037999999999999  1.0000
  C   C291      1.0  0.3972700000000001  0.3282399999999999  0.3275399999999999  1.0000
  C   C292      1.0  0.9854199999999999  0.1596  0.16081  1.0000
  C   C293      1.0  0.9742699999999999  0.20907  0.21097999999999995  1.0000
  C   C294      1.0  0.9684  0.23368999999999998  0.23647999999999994  1.0000
  C   C295      1.0  0.9631300000000002  0.2546699999999999  0.25916  1.0000
  C   C296      1.0  0.9574900000000001  0.27813  0.28356999999999993  1.0000
  C   C297      1.0  0.95268  0.2996899999999999  0.30543  1.0000
  C   C298      1.0  0.9485500000000002  0.3253699999999999  0.32894  1.0000
  C   C299      1.0  0.1600499999999997  0.9877199999999999  0.69299  1.0000
  C   C300      1.0  0.20990000000000028  0.9766299999999997  0.6045  1.0000
  C   C301      1.0  0.23503000000000018  0.9703699999999996  0.56041  1.0000
  C   C302      1.0  0.2566100000000003  0.9646899999999997  0.52219  1.0000
  C   C303      1.0  0.28001  0.9590699999999999  0.4799799999999999  1.0000
  C   C304      1.0  0.3010200000000002  0.9546399999999999  0.44122  1.0000
  C   C305      1.0  0.3251800000000001  0.95189  0.39564  1.0000
  C   C306      1.0  0.16169000000000008  0.69565  0.9807699999999999  1.0000
  C   C307      1.0  0.21284000000000017  0.6095399999999997  0.96458  1.0000
  C   C308      1.0  0.2382800000000002  0.5657799999999997  0.9575999999999998  1.0000
  C   C309      1.0  0.26032  0.52706  0.9530399999999998  1.0000
  C   C310      1.0  0.28417  0.48385000000000006  0.9497299999999997  1.0000
  C   C311      1.0  0.30567  0.44396999999999986  0.9480299999999998  1.0000
  C   C312      1.0  0.32945  0.39744999999999997  0.94784  1.0000
  C   C313      1.0  0.62805  0.6939199999999998  0.04589  1.0000
  C   C314      1.0  0.6967699999999999  0.6256199999999998  0.6293599999999998  1.0000
  C   C315      1.0  0.049080000000000006  0.62829  0.62614  1.0000
  C   C316      1.0  0.62843  0.04968999999999997  0.69741  1.0000
  C   C317      1.0  0.6266400000000001  0.047879999999999985  0.62985  1.0000
  C   C318      1.0  0.6966100000000001  0.6235799999999998  0.04839  1.0000
  C   C319      1.0  0.052930000000000074  0.6265099999999998  0.69446  1.0000
  C   C320      1.0  0.62791  0.69552  0.62436  1.0000
  C   C321      1.0  0.6250900000000001  0.6288699999999999  0.6967799999999997  1.0000
  C   C322      1.0  0.6975899999999999  0.04773  0.62732  1.0000
  C   C323      1.0  0.050390000000000296  0.6973699999999998  0.6259899999999998  1.0000
  C   C324      1.0  0.6267400000000001  0.6234599999999998  0.048899999999999985  1.0000
  C   C325      1.0  0.3068799999999999  0.37396999999999997  0.94715  1.0000
  C   C326      1.0  0.3731  0.30470999999999987  0.37351  1.0000
  C   C327      1.0  0.37190999999999996  0.9513799999999999  0.37252  1.0000
  C   C328      1.0  0.94544  0.3729099999999999  0.30538999999999994  1.0000
  C   C329      1.0  0.9424899999999999  0.37668  0.3743499999999999  1.0000
  C   C330      1.0  0.37583  0.30401000000000006  0.9495599999999997  1.0000
  C   C331      1.0  0.3725399999999998  0.9505900000000003  0.30314999999999986  1.0000
  C   C332      1.0  0.30433  0.37494  0.3737  1.0000
  C   C333      1.0  0.37474  0.3753  0.3048299999999999  1.0000
  C   C334      1.0  0.9486  0.3037000000000001  0.37533999999999995  1.0000
  C   C335      1.0  0.3023600000000002  0.9515399999999997  0.37226  1.0000
  C   C336      1.0  0.37543000000000015  0.3740199999999999  0.9492399999999998  1.0000
  O   O1        1.0  0.7932500000000001  0.9290099999999998  0.011659999999999997  1.0000
  O   O2        1.0  0.7270500000000001  0.9283299999999998  0.014369999999999997  1.0000
  O   O3        1.0  0.9315599999999999  0.7928999999999998  0.26094  1.0000
  O   O4        1.0  0.93137  0.7278899999999998  0.3264299999999999  1.0000
  O   O5        1.0  0.006260000000000021  0.26488999999999996  0.79613  1.0000
  O   O6        1.0  0.011080000000000171  0.3282999999999999  0.7292999999999997  1.0000
  O   O7        1.0  0.2626700000000001  0.011270000000000039  0.9327299999999997  1.0000
  O   O8        1.0  0.3290300000000001  0.008700000000000109  0.9330299999999998  1.0000
  O   O9        1.0  0.79202  0.013960000000000042  0.2629999999999999  1.0000
  O   O10       1.0  0.72656  0.014089999999999993  0.32803  1.0000
  O   O11       1.0  0.9349  0.2610199999999999  0.011439999999999997  1.0000
  O   O12       1.0  0.9334699999999999  0.32602  0.013289999999999996  1.0000
  O   O13       1.0  0.013600000000000306  0.7926099999999996  0.9300099999999999  1.0000
  O   O14       1.0  0.01358000000000018  0.7276399999999998  0.9294599999999997  1.0000
  O   O15       1.0  0.2619600000000001  0.9323299999999999  0.7927799999999999  1.0000
  O   O16       1.0  0.32729  0.9333700000000001  0.72765  1.0000
  O   O17       1.0  0.7935900000000004  0.26051  0.9316899999999998  1.0000
  O   O18       1.0  0.7287699999999999  0.3259000000000001  0.9323299999999998  1.0000
  O   O19       1.0  0.9331099999999999  0.008799999999999983  0.79476  1.0000
  O   O20       1.0  0.9314799999999999  0.01378000000000008  0.7281599999999998  1.0000
  O   O21       1.0  0.008320000000000096  0.9316499999999998  0.26368  1.0000
  O   O22       1.0  0.008740000000000107  0.9311199999999997  0.32878  1.0000
  O   O23       1.0  0.2626299999999999  0.79291  0.011419999999999996  1.0000
  O   O24       1.0  0.32724000000000003  0.7272699999999999  0.013299999999999996  1.0000
  O   O25       1.0  0.07047000000000019  0.20679  0.9878999999999998  1.0000
  O   O26       1.0  0.07042000000000005  0.27253  0.9869199999999998  1.0000
  O   O27       1.0  0.20732000000000014  0.06854000000000007  0.7380699999999998  1.0000
  O   O28       1.0  0.27231999999999995  0.06987999999999997  0.67257  1.0000
  O   O29       1.0  0.7370000000000001  0.9879799999999999  0.20784  1.0000
  O   O30       1.0  0.6720700000000001  0.9865899999999999  0.27334  1.0000
  O   O31       1.0  0.9878099999999999  0.737  0.06607  1.0000
  O   O32       1.0  0.9887800000000003  0.67132  0.06593999999999997  1.0000
  O   O33       1.0  0.99219  0.20607  0.73518  1.0000
  O   O34       1.0  0.9867  0.27352  0.67237  1.0000
  O   O35       1.0  0.7370200000000001  0.06421000000000003  0.9909199999999999  1.0000
  O   O36       1.0  0.6727300000000003  0.06492000000000005  0.9884199999999997  1.0000
  O   O37       1.0  0.20642000000000008  0.9881599999999999  0.06809  1.0000
  O   O38       1.0  0.2704600000000001  0.9906999999999998  0.0679  1.0000
  O   O39       1.0  0.06752000000000018  0.7356599999999999  0.20657999999999996  1.0000
  O   O40       1.0  0.06728000000000003  0.6696399999999999  0.2711099999999999  1.0000
  O   O41       1.0  0.7365  0.20711  0.06839  1.0000
  O   O42       1.0  0.6713100000000001  0.2722299999999999  0.06797  1.0000
  O   O43       1.0  0.9889800000000004  0.06691999999999994  0.20707  1.0000
  O   O44       1.0  0.9886699999999999  0.06678999999999999  0.27235  1.0000
  O   O45       1.0  0.0674100000000001  0.9925799999999998  0.7350399999999998  1.0000
  O   O46       1.0  0.06796000000000006  0.9888799999999999  0.67164  1.0000
  O   O47       1.0  0.20728999999999992  0.7370300000000001  0.98683  1.0000
  O   O48       1.0  0.2731500000000001  0.67272  0.9848299999999998  1.0000
  O   O49       1.0  0.20745000000000005  0.06798000000000004  0.9890499999999998  1.0000
  O   O50       1.0  0.27400000000000013  0.06824000000000004  0.9859599999999997  1.0000
  O   O51       1.0  0.06801000000000007  0.20817  0.7395599999999998  1.0000
  O   O52       1.0  0.06721  0.27157999999999993  0.67269  1.0000
  O   O53       1.0  0.9892500000000002  0.7356199999999999  0.20468999999999996  1.0000
  O   O54       1.0  0.9868700000000001  0.6709099999999998  0.27051  1.0000
  O   O55       1.0  0.7382700000000001  0.9848099999999999  0.06947  1.0000
  O   O56       1.0  0.67201  0.9869599999999997  0.06954  1.0000
  O   O57       1.0  0.20634000000000016  0.99133  0.7352399999999998  1.0000
  O   O58       1.0  0.27152000000000004  0.9921799999999998  0.67002  1.0000
  O   O59       1.0  0.06818999999999999  0.73597  0.9882299999999998  1.0000
  O   O60       1.0  0.06913000000000014  0.6711999999999998  0.9864099999999998  1.0000
  O   O61       1.0  0.99176  0.20574999999999993  0.06778  1.0000
  O   O62       1.0  0.99203  0.2708199999999999  0.0679  1.0000
  O   O63       1.0  0.73573  0.06849  0.20660999999999993  1.0000
  O   O64       1.0  0.6703599999999998  0.06798000000000001  0.2717  1.0000
  O   O65       1.0  0.20605  0.73593  0.06685  1.0000
  O   O66       1.0  0.2707700000000001  0.6703699999999998  0.06672  1.0000
  O   O67       1.0  0.06710000000000002  0.98662  0.20763999999999996  1.0000
  O   O68       1.0  0.06705000000000017  0.9867199999999997  0.27266  1.0000
  O   O69       1.0  0.9863799999999998  0.0692500000000001  0.7366099999999998  1.0000
  O   O70       1.0  0.9899000000000001  0.06900999999999999  0.66998  1.0000
  O   O71       1.0  0.7383300000000003  0.20234999999999997  0.9909299999999998  1.0000
  O   O72       1.0  0.67382  0.26803000000000005  0.98921  1.0000
  O   O73       1.0  0.9331500000000001  0.7924299999999997  0.007819999999999997  1.0000
  O   O74       1.0  0.93355  0.72661  0.0085  1.0000
  O   O75       1.0  0.79315  0.93336  0.2645  1.0000
  O   O76       1.0  0.7282300000000002  0.9323999999999998  0.3299899999999999  1.0000
  O   O77       1.0  0.2642800000000002  0.009460000000000059  0.7939299999999998  1.0000
  O   O78       1.0  0.32888000000000006  0.012020000000000065  0.7280899999999998  1.0000
  O   O79       1.0  0.01365000000000014  0.26244999999999996  0.9323299999999998  1.0000
  O   O80       1.0  0.011640000000000076  0.3285199999999998  0.93263  1.0000
  O   O81       1.0  0.00914000000000009  0.7920699999999998  0.2636  1.0000
  O   O82       1.0  0.011049999999999957  0.72584  0.32785  1.0000
  O   O83       1.0  0.2624800000000001  0.9319099999999998  0.011389999999999999  1.0000
  O   O84       1.0  0.32641000000000003  0.9313699999999998  0.014439999999999996  1.0000
  O   O85       1.0  0.7929900000000001  0.009329999999999975  0.93356  1.0000
  O   O86       1.0  0.7288600000000001  0.0070400000000000575  0.9337099999999998  1.0000
  O   O87       1.0  0.93124  0.26247999999999994  0.7914099999999998  1.0000
  O   O88       1.0  0.93161  0.32975  0.7283299999999998  1.0000
  O   O89       1.0  0.26446000000000025  0.7930999999999996  0.9315  1.0000
  O   O90       1.0  0.33032000000000017  0.7287899999999998  0.9315499999999999  1.0000
  O   O91       1.0  0.014400000000000074  0.93224  0.7909299999999998  1.0000
  O   O92       1.0  0.010030000000000172  0.93321  0.7276699999999998  1.0000
  O   O93       1.0  0.9307499999999999  0.01243  0.2644  1.0000
  O   O94       1.0  0.93061  0.012060000000000006  0.32971  1.0000
  O   O95       1.0  0.7962699999999999  0.26041  0.009609999999999997  1.0000
  O   O96       1.0  0.7307800000000001  0.32518999999999987  0.011249999999999996  1.0000
