data_image0
_chemical_formula_structural       Dy52Zn3H220C320N46O228
_chemical_formula_sum              "Dy52 Zn3 H220 C320 N46 O228"
_cell_length_a       21.107
_cell_length_b       21.184999999999995
_cell_length_c       36.323
_cell_angle_alpha    89.001
_cell_angle_beta     82.486
_cell_angle_gamma    68.35899999999998

_symmetry_space_group_name_H-M    'P 1'
_symmetry_Int_Tables_number       1

loop_
  _symmetry_equiv_pos_as_xyz
  'x,y,z'

loop_
  _atom_site_type_symbol
  _atom_site_label
  _atom_site_symmetry_multiplicity
  _atom_site_fract_x
  _atom_site_fract_y
  _atom_site_fract_z
  _atom_site_occupancy
  Dy  Dy1       1.0  0.6777099999999999  0.3149  0.09988  1.0000
  Dy  Dy2       1.0  0.52862  0.56318  0.72285  1.0000
  Dy  Dy3       1.0  0.52255  0.8601  0.79284  1.0000
  Dy  Dy4       1.0  0.6775100000000001  0.25534  0.3789199999999999  1.0000
  Dy  Dy5       1.0  0.86036  0.20775  0.14464  1.0000
  Dy  Dy6       1.0  0.45877000000000007  0.76196  0.86257  1.0000
  Dy  Dy7       1.0  0.3559000000000001  0.95003  0.8516599999999998  1.0000
  Dy  Dy8       1.0  0.21559000000000006  0.0646  0.794  1.0000
  Dy  Dy9       1.0  0.7280699999999999  0.40447999999999995  0.32109  1.0000
  Dy  Dy10      1.0  0.88785  0.9892099999999999  0.26805  1.0000
  Dy  Dy11      1.0  0.07710999999999998  0.85175  0.76456  1.0000
  Dy  Dy12      1.0  0.5460000000000002  0.40505  0.7760499999999998  1.0000
  Dy  Dy13      1.0  0.9949300000000001  0.7467499999999998  0.8198699999999998  1.0000
  Dy  Dy14      1.0  0.4540000000000001  0.59495  0.22395  1.0000
  Dy  Dy15      1.0  0.32249  0.74466  0.62108  1.0000
  Dy  Dy16      1.0  0.6441  0.04997  0.14833999999999997  1.0000
  Dy  Dy17      1.0  0.5000999999999999  0.69038  0.64425  1.0000
  Dy  Dy18      1.0  0.27459  0.0394  0.69137  1.0000
  Dy  Dy19      1.0  0.4774500000000001  0.1399  0.20716  1.0000
  Dy  Dy20      1.0  0.10994000000000004  0.18718999999999994  0.72946  1.0000
  Dy  Dy21      1.0  0.3948399999999998  0.87682  0.63078  1.0000
  Dy  Dy22      1.0  0.82019  0.33464  0.22250999999999999  1.0000
  Dy  Dy23      1.0  0.13963999999999996  0.79225  0.85536  1.0000
  Dy  Dy24      1.0  0.005070000000000043  0.25325  0.18012999999999996  1.0000
  Dy  Dy25      1.0  0.3222900000000001  0.6851  0.90012  1.0000
  Dy  Dy26      1.0  0.8900600000000002  0.81281  0.27053999999999995  1.0000
  Dy  Dy27      1.0  0.46866  0.9642899999999999  0.69841  1.0000
  Dy  Dy28      1.0  0.8333700000000002  0.02955  0.11989  1.0000
  Dy  Dy29      1.0  0.6183000000000002  0.69391  0.71609  1.0000
  Dy  Dy30      1.0  0.27192999999999995  0.5955199999999999  0.67891  1.0000
  Dy  Dy31      1.0  0.47138  0.43682  0.27715  1.0000
  Dy  Dy32      1.0  0.54123  0.23804  0.13743  1.0000
  Dy  Dy33      1.0  0.52404  0.41788  0.17327999999999996  1.0000
  Dy  Dy34      1.0  0.5112500000000001  0.89548  0.9000599999999999  1.0000
  Dy  Dy35      1.0  0.7254100000000001  0.9605999999999999  0.30863  1.0000
  Dy  Dy36      1.0  0.9228900000000001  0.14825  0.23544  1.0000
  Dy  Dy37      1.0  0.78441  0.9354  0.20599999999999993  1.0000
  Dy  Dy38      1.0  0.16662999999999997  0.97045  0.8801099999999998  1.0000
  Dy  Dy39      1.0  0.36884  0.5359099999999999  0.76603  1.0000
  Dy  Dy40      1.0  0.47596000000000027  0.58212  0.8267199999999998  1.0000
  Dy  Dy41      1.0  0.11215  0.010790000000000001  0.73195  1.0000
  Dy  Dy42      1.0  0.87353  0.12655  0.34087  1.0000
  Dy  Dy43      1.0  0.48875  0.10451999999999999  0.09994  1.0000
  Dy  Dy44      1.0  0.6051600000000001  0.12317999999999998  0.36922  1.0000
  Dy  Dy45      1.0  0.6311600000000003  0.46409  0.23397  1.0000
  Dy  Dy46      1.0  0.3817  0.30609  0.28391  1.0000
  Dy  Dy47      1.0  0.17981000000000008  0.66536  0.77749  1.0000
  Dy  Dy48      1.0  0.53  0.24106  0.45142  1.0000
  Dy  Dy49      1.0  0.49990000000000023  0.30962  0.35574999999999996  1.0000
  Dy  Dy50      1.0  0.12647  0.87345  0.65913  1.0000
  Dy  Dy51      1.0  0.4699999999999999  0.75894  0.54858  1.0000
  Dy  Dy52      1.0  0.5313400000000001  0.03571  0.30159  1.0000
  Zn  Zn1       1.0  0.8923400000000001  0.28434  0.57233  1.0000
  Zn  Zn2       1.0  0.10765999999999995  0.71566  0.42767  1.0000
  Zn  Zn3       1.0  0.0  0.5  0.0  1.0000
  H   H1        1.0  0.5593  0.05299999999999999  0.8208  1.0000
  H   H2        1.0  0.9658000000000001  0.3005  0.0691  1.0000
  H   H3        1.0  0.2913  0.345  0.4631  1.0000
  H   H4        1.0  0.1254  0.9214999999999999  0.009  1.0000
  H   H5        1.0  0.4166  0.107  0.5048999999999999  1.0000
  H   H6        1.0  0.03420000000000007  0.6995  0.9308999999999998  1.0000
  H   H7        1.0  0.5308000000000003  0.20899999999999996  0.6073  1.0000
  H   H8        1.0  0.8715  0.1617  0.5935  1.0000
  H   H9        1.0  0.726  0.6062999999999998  0.5702  1.0000
  H   H10       1.0  0.6006000000000002  0.6456  0.9663  1.0000
  H   H11       1.0  0.2635  0.7107  0.5164  1.0000
  H   H12       1.0  0.9112000000000001  0.1488  0.8061  1.0000
  H   H13       1.0  0.5673000000000001  0.8771999999999999  0.13739999999999997  1.0000
  H   H14       1.0  0.8238999999999999  0.7763  0.8534999999999999  1.0000
  H   H15       1.0  0.28910000000000036  0.3746  0.7350999999999998  1.0000
  H   H16       1.0  0.5787  0.8478999999999999  0.2509  1.0000
  H   H17       1.0  0.5648999999999998  0.462  0.4548  1.0000
  H   H18       1.0  0.3724000000000001  0.371  0.0761  1.0000
  H   H19       1.0  0.6534000000000001  0.7803999999999999  0.0105  1.0000
  H   H20       1.0  0.9775999999999998  0.426  0.8669999999999998  1.0000
  H   H21       1.0  0.5303  0.7666999999999999  0.2434  1.0000
  H   H22       1.0  0.8527000000000001  0.7707  0.11  1.0000
  H   H23       1.0  0.29130000000000006  0.3157  0.4238  1.0000
  H   H24       1.0  0.7527000000000004  0.7128999999999999  0.265  1.0000
  H   H25       1.0  0.7962  0.8592  0.4144999999999999  1.0000
  H   H26       1.0  0.7673  0.8932999999999999  0.0602  1.0000
  H   H27       1.0  0.033200000000000035  0.8379999999999999  0.0733  1.0000
  H   H28       1.0  0.3787000000000001  0.8319  0.2739  1.0000
  H   H29       1.0  0.7078  0.661  0.1614  1.0000
  H   H30       1.0  0.3217  0.18479999999999996  0.6133  1.0000
  H   H31       1.0  0.08250000000000007  0.47839999999999994  0.9044999999999999  1.0000
  H   H32       1.0  0.5019000000000001  0.016  0.5843  1.0000
  H   H33       1.0  0.4189  0.3723999999999999  0.6588999999999999  1.0000
  H   H34       1.0  0.08880000000000005  0.8512  0.1939  1.0000
  H   H35       1.0  0.9766000000000001  0.8076  0.07019999999999998  1.0000
  H   H36       1.0  0.7399000000000001  0.473  0.7694  1.0000
  H   H37       1.0  0.7540000000000001  0.2864  0.5468  1.0000
  H   H38       1.0  0.35730000000000006  0.5882  0.4778  1.0000
  H   H39       1.0  0.6427000000000004  0.41179999999999994  0.5221999999999999  1.0000
  H   H40       1.0  0.8214000000000001  0.6926999999999998  0.738  1.0000
  H   H41       1.0  0.17610000000000003  0.2237  0.1465  1.0000
  H   H42       1.0  0.023300000000000074  0.9594999999999999  0.0478  1.0000
  H   H43       1.0  0.9721  0.6538  0.18  1.0000
  H   H44       1.0  0.5069000000000002  0.8513  0.3424  1.0000
  H   H45       1.0  0.19639999999999994  0.5816  0.398  1.0000
  H   H46       1.0  0.31200000000000006  0.44009999999999994  0.8796999999999998  1.0000
  H   H47       1.0  0.2473  0.28709999999999997  0.735  1.0000
  H   H48       1.0  0.7426000000000001  0.6058  0.3786999999999999  1.0000
  H   H49       1.0  0.4697  0.2333  0.7566  1.0000
  H   H50       1.0  0.5864999999999999  0.1485  0.832  1.0000
  H   H51       1.0  0.7109000000000001  0.6254  0.2649  1.0000
  H   H52       1.0  0.02940000000000006  0.208  0.5966999999999998  1.0000
  H   H53       1.0  0.2027  0.1302  0.22769999999999999  1.0000
  H   H54       1.0  0.5481000000000001  0.7776  0.1228  1.0000
  H   H55       1.0  0.9706000000000001  0.7919999999999998  0.4033  1.0000
  H   H56       1.0  0.7979  0.4293  0.0319  1.0000
  H   H57       1.0  0.17550000000000002  0.2078  0.9733  1.0000
  H   H58       1.0  0.44070000000000004  0.9469999999999998  0.17919999999999997  1.0000
  H   H59       1.0  0.24600000000000002  0.7136  0.4532  1.0000
  H   H60       1.0  0.033300000000000024  0.14659999999999998  0.0425  1.0000
  H   H61       1.0  0.8828  0.2581  0.7229  1.0000
  H   H62       1.0  0.4468  0.6815  0.4148  1.0000
  H   H63       1.0  0.26119999999999993  0.5099  0.579  1.0000
  H   H64       1.0  0.7315000000000003  0.4704  0.6564999999999999  1.0000
  H   H65       1.0  0.23399999999999999  0.7037000000000001  0.2687  1.0000
  H   H66       1.0  0.3994  0.3543999999999999  0.0337  1.0000
  H   H67       1.0  0.4746  0.4351  0.5137  1.0000
  H   H68       1.0  0.5833999999999999  0.893  0.4951  1.0000
  H   H69       1.0  0.1869  0.0134  0.4905  1.0000
  H   H70       1.0  0.22520000000000023  0.8872  0.2896999999999999  1.0000
  H   H71       1.0  0.45190000000000036  0.22239999999999996  0.8772  1.0000
  H   H72       1.0  0.977  0.6327999999999999  0.9593  1.0000
  H   H73       1.0  0.1516  0.4744  0.7405  1.0000
  H   H74       1.0  0.8698000000000001  0.8085  0.45749999999999996  1.0000
  H   H75       1.0  0.2045  0.7876  0.17949999999999997  1.0000
  H   H76       1.0  0.9552000000000003  0.2072  0.505  1.0000
  H   H77       1.0  0.5493  0.08939999999999998  0.5562999999999999  1.0000
  H   H78       1.0  0.7343  0.6095  0.06899999999999998  1.0000
  H   H79       1.0  0.6882  0.5939  0.45149999999999996  1.0000
  H   H80       1.0  0.05710000000000001  0.5372  0.2214  1.0000
  H   H81       1.0  0.7087  0.655  0.5369  1.0000
  H   H82       1.0  0.02340000000000001  0.1924  0.9298  1.0000
  H   H83       1.0  0.8483999999999999  0.5256  0.2595  1.0000
  H   H84       1.0  0.4213  0.1521  0.7491  1.0000
  H   H85       1.0  0.5570000000000002  0.5259  0.041299999999999996  1.0000
  H   H86       1.0  0.8036  0.4184  0.602  1.0000
  H   H87       1.0  0.06820000000000007  0.5952999999999999  0.3171  1.0000
  H   H88       1.0  0.5811  0.6275999999999999  0.34109999999999996  1.0000
  H   H89       1.0  0.907  0.9203999999999999  0.691  1.0000
  H   H90       1.0  0.06980000000000004  0.8325  0.5543999999999999  1.0000
  H   H91       1.0  0.5994000000000002  0.07579999999999999  0.7119999999999999  1.0000
  H   H92       1.0  0.20380000000000004  0.14079999999999998  0.5855  1.0000
  H   H93       1.0  0.0815  0.11  0.6252  1.0000
  H   H94       1.0  0.2574  0.3942  0.6213  1.0000
  H   H95       1.0  0.6352000000000001  0.9681  0.4734999999999999  1.0000
  H   H96       1.0  0.4507000000000001  0.9106  0.44369999999999993  1.0000
  H   H97       1.0  0.443  0.47409999999999997  0.9587  1.0000
  H   H98       1.0  0.027900000000000036  0.34619999999999995  0.82  1.0000
  H   H99       1.0  0.25090000000000007  0.9474999999999999  0.1736  1.0000
  H   H100      1.0  0.43510000000000015  0.5379999999999998  0.5452  1.0000
  H   H101      1.0  0.7333  0.7534  0.1824  1.0000
  H   H102      1.0  0.06609999999999999  0.9505  0.391  1.0000
  H   H103      1.0  0.6506000000000002  0.6397999999999999  0.3362  1.0000
  H   H104      1.0  0.8595  0.9852  0.8048  1.0000
  H   H105      1.0  0.274  0.3937  0.4298  1.0000
  H   H106      1.0  0.11720000000000004  0.7418999999999999  0.2771  1.0000
  H   H107      1.0  0.8594  0.4893  0.004  1.0000
  H   H108      1.0  0.1406  0.5107  0.996  1.0000
  H   H109      1.0  0.12609999999999996  0.3805  0.7284  1.0000
  H   H110      1.0  0.5139000000000001  0.4538  0.9333  1.0000
  H   H111      1.0  0.37700000000000006  0.38149999999999995  0.6252999999999997  1.0000
  H   H112      1.0  0.3641000000000001  0.24169999999999997  0.5656  1.0000
  H   H113      1.0  0.7388000000000002  0.4900999999999999  0.4209999999999999  1.0000
  H   H114      1.0  0.5254  0.5648999999999998  0.48629999999999995  1.0000
  H   H115      1.0  0.9615  0.5591  0.7931999999999999  1.0000
  H   H116      1.0  0.4861  0.5462  0.0667  1.0000
  H   H117      1.0  0.9339000000000001  0.04949999999999999  0.609  1.0000
  H   H118      1.0  0.02300000000000002  0.36719999999999997  0.0407  1.0000
  H   H119      1.0  0.8739  0.6194999999999999  0.2716  1.0000
  H   H120      1.0  0.2512  0.9586  0.542  1.0000
  H   H121      1.0  0.7365  0.2893  0.4835999999999999  1.0000
  H   H122      1.0  0.49310000000000004  0.1487  0.6576  1.0000
  H   H123      1.0  0.7955000000000001  0.21239999999999998  0.8205  1.0000
  H   H124      1.0  0.28690000000000004  0.41899999999999993  0.1785  1.0000
  H   H125      1.0  0.36479999999999996  0.0319  0.5265  1.0000
  H   H126      1.0  0.15019999999999997  0.3349  0.5552  1.0000
  H   H127      1.0  0.3118  0.4061  0.5485  1.0000
  H   H128      1.0  0.26850000000000007  0.5296  0.34349999999999997  1.0000
  H   H129      1.0  0.7087  0.6843  0.5762  1.0000
  H   H130      1.0  0.17150000000000007  0.6356  0.23239999999999997  1.0000
  H   H131      1.0  0.5866000000000001  0.8884999999999998  0.0426  1.0000
  H   H132      1.0  0.13020000000000018  0.1915  0.5425  1.0000
  H   H133      1.0  0.4134999999999997  0.8515  0.168  1.0000
  H   H134      1.0  0.20210000000000006  0.5706999999999999  0.9680999999999998  1.0000
  H   H135      1.0  0.2657000000000001  0.39049999999999996  0.9309999999999999  1.0000
  H   H136      1.0  0.010499999999999989  0.7998  0.1068  1.0000
  H   H137      1.0  0.3874000000000001  0.5015999999999999  0.4358999999999999  1.0000
  H   H138      1.0  0.4827000000000001  0.5241  0.955  1.0000
  H   H139      1.0  0.4006  0.9241999999999999  0.288  1.0000
  H   H140      1.0  0.10200000000000005  0.9271999999999999  0.3022  1.0000
  H   H141      1.0  0.7748  0.11279999999999997  0.7102999999999999  1.0000
  H   H142      1.0  0.34940000000000004  0.3602  0.6638  1.0000
  H   H143      1.0  0.12850000000000003  0.8383  0.4065  1.0000
  H   H144      1.0  0.14729999999999996  0.2293  0.89  1.0000
  H   H145      1.0  0.1921  0.032  0.3353  1.0000
  H   H146      1.0  0.2903  0.4387  0.1367  1.0000
  H   H147      1.0  0.022400000000000014  0.5739999999999998  0.133  1.0000
  H   H148      1.0  0.8079000000000001  0.968  0.6646999999999997  1.0000
  H   H149      1.0  0.8746000000000002  0.0785  0.991  1.0000
  H   H150      1.0  0.7491  0.0525  0.8264  1.0000
  H   H151      1.0  0.34590000000000015  0.32539999999999997  0.05359999999999999  1.0000
  H   H152      1.0  0.9175  0.5216  0.0955  1.0000
  H   H153      1.0  0.9668000000000001  0.16199999999999998  0.9266999999999999  1.0000
  H   H154      1.0  0.6359  0.7583  0.4344  1.0000
  H   H155      1.0  0.6230000000000001  0.6184999999999999  0.3747  1.0000
  H   H156      1.0  0.9429000000000002  0.46279999999999993  0.7785999999999997  1.0000
  H   H157      1.0  0.9318000000000004  0.4046999999999999  0.6829  1.0000
  H   H158      1.0  0.6541  0.6745999999999999  0.9464  1.0000
  H   H159      1.0  0.7800000000000001  0.2513  0.6175  1.0000
  H   H160      1.0  0.8831000000000001  0.7261999999999998  0.39589999999999986  1.0000
  H   H161      1.0  0.11689999999999996  0.2738  0.6041  1.0000
  H   H162      1.0  0.09300000000000001  0.0796  0.309  1.0000
  H   H163      1.0  0.6213000000000001  0.16809999999999994  0.7261  1.0000
  H   H164      1.0  0.6783000000000001  0.8151999999999999  0.3867  1.0000
  H   H165      1.0  0.15660000000000002  0.4908  0.3235  1.0000
  H   H166      1.0  0.6859000000000001  0.3034  0.6656  1.0000
  H   H167      1.0  0.5532000000000002  0.3185  0.5852  1.0000
  H   H168      1.0  0.4981000000000001  0.9839999999999999  0.41569999999999996  1.0000
  H   H169      1.0  0.9895000000000006  0.2002  0.8932  1.0000
  H   H170      1.0  0.2808  0.20149999999999998  0.1657  1.0000
  H   H171      1.0  0.7973000000000002  0.8697999999999998  0.7722999999999999  1.0000
  H   H172      1.0  0.5173000000000001  0.4759  0.045  1.0000
  H   H173      1.0  0.22000000000000006  0.7486999999999999  0.3825  1.0000
  H   H174      1.0  0.4692000000000003  0.791  0.3927  1.0000
  H   H175      1.0  0.4327  0.12279999999999998  0.8626  1.0000
  H   H176      1.0  0.2667  0.2466  0.8176  1.0000
  H   H177      1.0  0.8498000000000002  0.6650999999999999  0.4447999999999999  1.0000
  H   H178      1.0  0.2922  0.339  0.8385999999999999  1.0000
  H   H179      1.0  0.766  0.2963  0.7313  1.0000
  H   H180      1.0  0.6880000000000001  0.5599  0.12029999999999999  1.0000
  H   H181      1.0  0.9767000000000002  0.0405  0.9522  1.0000
  H   H182      1.0  0.7024000000000002  0.6354999999999998  0.8527  1.0000
  H   H183      1.0  0.17860000000000018  0.3073  0.262  1.0000
  H   H184      1.0  0.6126  0.4984  0.5641  1.0000
  H   H185      1.0  0.2977  0.0802  0.2549  1.0000
  H   H186      1.0  0.9208000000000002  0.679  0.7607  1.0000
  H   H187      1.0  0.0792  0.321  0.2393  1.0000
  H   H188      1.0  0.7192000000000001  0.7984999999999999  0.8342999999999998  1.0000
  H   H189      1.0  0.8245000000000001  0.7921999999999999  0.0267  1.0000
  H   H190      1.0  0.8285000000000001  0.3644  0.7676  1.0000
  H   H191      1.0  0.9302000000000001  0.1675  0.4456  1.0000
  H   H192      1.0  0.0964  0.3126  0.9336  1.0000
  H   H193      1.0  0.8131000000000003  0.9865999999999999  0.5094999999999997  1.0000
  H   H194      1.0  0.3141  0.6966  0.33439999999999986  1.0000
  H   H195      1.0  0.1213  0.5318  0.8555  1.0000
  H   H196      1.0  0.7097000000000004  0.5613  0.8633  1.0000
  H   H197      1.0  0.7130999999999998  0.581  0.8215  1.0000
  H   H198      1.0  0.12350000000000004  0.1042  0.9972  1.0000
  H   H199      1.0  0.4792  0.6008  0.3687  1.0000
  H   H200      1.0  0.9036000000000001  0.6874  0.0664  1.0000
  H   H201      1.0  0.8980000000000002  0.0728  0.6978  1.0000
  H   H202      1.0  0.9667000000000001  0.8534  0.9575  1.0000
  H   H203      1.0  0.5208  0.39919999999999994  0.6312999999999998  1.0000
  H   H204      1.0  0.2327  0.1067  0.9398  1.0000
  H   H205      1.0  0.7023  0.9197999999999998  0.7451  1.0000
  H   H206      1.0  0.6276  0.629  0.9239  1.0000
  H   H207      1.0  0.8765  0.8958  0.0027999999999999995  1.0000
  H   H208      1.0  0.9185000000000002  0.89  0.3748  1.0000
  H   H209      1.0  0.3466  0.2196  0.9895  1.0000
  H   H210      1.0  0.038500000000000034  0.4408999999999999  0.2068  1.0000
  H   H211      1.0  0.7823000000000001  0.662  0.331  1.0000
  H   H212      1.0  0.2975999999999999  0.3645  0.1473  1.0000
  H   H213      1.0  0.4134  0.11149999999999996  0.9573999999999999  1.0000
  H   H214      1.0  0.8434000000000003  0.5091999999999999  0.6765  1.0000
  H   H215      1.0  0.1405  0.0148  0.1952  1.0000
  H   H216      1.0  0.21770000000000003  0.338  0.6689999999999998  1.0000
  H   H217      1.0  0.26010000000000016  0.5269999999999999  0.2306  1.0000
  H   H218      1.0  0.7488  0.04139999999999999  0.458  1.0000
  H   H219      1.0  0.8787000000000003  0.4682  0.1445  1.0000
  H   H220      1.0  0.04480000000000003  0.7928  0.49499999999999994  1.0000
  C   C1        1.0  0.19030000000000008  0.8072  0.5745999999999998  1.0000
  C   C2        1.0  0.6256000000000002  0.025799999999999997  0.23679999999999998  1.0000
  C   C3        1.0  0.6855000000000001  0.3985  0.41  1.0000
  C   C4        1.0  0.6768  0.7051  0.1593  1.0000
  C   C5        1.0  0.5636  0.9914  0.7578999999999998  1.0000
  C   C6        1.0  0.8232  0.7604  0.8299  1.0000
  C   C7        1.0  0.8091000000000002  0.1653  0.8186999999999998  1.0000
  C   C8        1.0  0.17679999999999998  0.23959999999999995  0.1701  1.0000
  C   C9        1.0  0.16599999999999998  0.2976  0.6403  1.0000
  C   C10       1.0  0.6067000000000005  0.9786999999999998  0.4961  1.0000
  C   C11       1.0  0.5751000000000001  0.7537999999999999  0.24879999999999997  1.0000
  C   C12       1.0  0.6239  0.9326  0.8739  1.0000
  C   C13       1.0  0.10820000000000003  0.4736  0.7484999999999999  1.0000
  C   C14       1.0  0.1361  0.11179999999999998  0.2651  1.0000
  C   C15       1.0  0.8639000000000002  0.8881999999999999  0.7349  1.0000
  C   C16       1.0  0.8962000000000001  0.9244999999999999  0.9907999999999999  1.0000
  C   C17       1.0  0.6921  0.5969  0.8464  1.0000
  C   C18       1.0  0.7350000000000002  0.5509999999999999  0.11569999999999998  1.0000
  C   C19       1.0  0.9543  0.0818  0.6077  1.0000
  C   C20       1.0  0.9296  0.41089999999999993  0.22499999999999998  1.0000
  C   C21       1.0  0.9762000000000006  0.3801  0.0394  1.0000
  C   C22       1.0  0.7914  0.2504  0.7261  1.0000
  C   C23       1.0  0.8707  0.5300999999999999  0.1002  1.0000
  C   C24       1.0  0.36630000000000007  0.029600000000000015  0.9239  1.0000
  C   C25       1.0  0.1985  0.1137  0.5671  1.0000
  C   C26       1.0  0.7265  0.5699  0.7203999999999999  1.0000
  C   C27       1.0  0.265  0.44899999999999995  0.8842999999999998  1.0000
  C   C28       1.0  0.05590000000000004  0.529  0.7677  1.0000
  C   C29       1.0  0.896  0.0323  0.9851  1.0000
  C   C30       1.0  0.3933  0.0213  0.5039  1.0000
  C   C31       1.0  0.6169  0.6840999999999999  0.2523  1.0000
  C   C32       1.0  0.7418  0.8722  0.0499  1.0000
  C   C33       1.0  0.9743000000000002  0.01259999999999999  0.7903  1.0000
  C   C34       1.0  0.5736000000000002  0.07499999999999998  0.8008999999999998  1.0000
  C   C35       1.0  0.8091000000000002  0.9601  0.4904  1.0000
  C   C36       1.0  0.6633000000000001  0.5425  0.33739999999999987  1.0000
  C   C37       1.0  0.31730000000000014  0.3303  0.7393  1.0000
  C   C38       1.0  0.7691999999999999  0.9562  0.43109999999999987  1.0000
  C   C39       1.0  0.4615  0.4794999999999999  0.36909999999999993  1.0000
  C   C40       1.0  0.5761  0.9318999999999998  0.5091  1.0000
  C   C41       1.0  0.8998  0.058699999999999995  0.8044  1.0000
  C   C42       1.0  0.4047000000000001  0.1588  0.6396  1.0000
  C   C43       1.0  0.5279  0.5091999999999999  0.05789999999999999  1.0000
  C   C44       1.0  0.1909  0.8347  0.1813  1.0000
  C   C45       1.0  0.3834000000000001  0.5904  0.4555  1.0000
  C   C46       1.0  0.3849  0.337  0.0565  1.0000
  C   C47       1.0  0.5548000000000002  0.7279  0.9334999999999999  1.0000
  C   C48       1.0  0.7789000000000001  0.2619  0.49029999999999996  1.0000
  C   C49       1.0  0.9173000000000002  0.14959999999999998  0.597  1.0000
  C   C50       1.0  0.903  0.16109999999999997  0.7136  1.0000
  C   C51       1.0  0.866  0.9181  0.7027  1.0000
  C   C52       1.0  0.21150000000000013  0.7286  0.4734  1.0000
  C   C53       1.0  0.4413  0.5364  0.3974  1.0000
  C   C54       1.0  0.3906000000000001  0.8557999999999999  0.2542  1.0000
  C   C55       1.0  0.8485  0.0313  0.8094  1.0000
  C   C56       1.0  0.2233  0.18929999999999997  0.9697999999999999  1.0000
  C   C57       1.0  0.05789999999999994  0.6612  0.9435  1.0000
  C   C58       1.0  0.6948000000000002  0.7608  0.1706  1.0000
  C   C59       1.0  0.6757000000000002  0.8051  0.0207  1.0000
  C   C60       1.0  0.7442000000000001  0.9183999999999999  0.7327  1.0000
  C   C61       1.0  0.6634  0.5654999999999999  0.4526  1.0000
  C   C62       1.0  0.5586000000000001  0.0481  0.5441  1.0000
  C   C63       1.0  0.0037000000000000054  0.47639999999999993  0.2206  1.0000
  C   C64       1.0  0.7885000000000001  0.2714  0.5266  1.0000
  C   C65       1.0  0.7841  0.3929  0.6174  1.0000
  C   C66       1.0  0.8270000000000001  0.2139  0.46029999999999993  1.0000
  C   C67       1.0  0.4161000000000001  0.2269  0.8637  1.0000
  C   C68       1.0  0.01590000000000002  0.0588  0.0508  1.0000
  C   C69       1.0  0.7706000000000005  0.9943999999999998  0.45820000000000005  1.0000
  C   C70       1.0  0.9421  0.3388  0.0565  1.0000
  C   C71       1.0  0.8351  0.6654999999999999  0.42169999999999996  1.0000
  C   C72       1.0  0.27349999999999997  0.4301  0.27959999999999996  1.0000
  C   C73       1.0  0.15210000000000012  0.5027  0.87  1.0000
  C   C74       1.0  0.11800000000000002  0.2196  0.8192  1.0000
  C   C75       1.0  0.5883  0.6318  0.2473  1.0000
  C   C76       1.0  0.8922  0.4187  0.7001  1.0000
  C   C77       1.0  0.9285  0.858  0.7523  1.0000
  C   C78       1.0  0.12740000000000004  0.6435999999999998  0.9459  1.0000
  C   C79       1.0  0.5839  0.7731  0.1363  1.0000
  C   C80       1.0  0.7561999999999999  0.0995  0.3302  1.0000
  C   C81       1.0  0.6094  0.1442  0.7458  1.0000
  C   C82       1.0  0.7685000000000003  0.29639999999999994  0.6247999999999998  1.0000
  C   C83       1.0  0.3744000000000003  0.9742  0.7631999999999998  1.0000
  C   C84       1.0  0.1985  0.1104  0.2505  1.0000
  C   C85       1.0  0.46580000000000005  0.1665  0.639  1.0000
  C   C86       1.0  0.31450000000000006  0.6014999999999999  0.59  1.0000
  C   C87       1.0  0.8794000000000002  0.7027999999999998  0.7754  1.0000
  C   C88       1.0  0.7942  0.6641  0.3546  1.0000
  C   C89       1.0  0.7017  0.3902999999999999  0.6667  1.0000
  C   C90       1.0  0.3857999999999999  0.11679999999999997  0.6686  1.0000
  C   C91       1.0  0.3297999999999999  0.0966  0.945  1.0000
  C   C92       1.0  0.20240000000000008  0.8577999999999998  0.2868  1.0000
  C   C93       1.0  0.2213  0.49069999999999997  0.8628999999999998  1.0000
  C   C94       1.0  0.38890000000000013  0.6301999999999999  0.6869999999999999  1.0000
  C   C95       1.0  0.431  0.4497  0.5274  1.0000
  C   C96       1.0  0.6514000000000002  0.8265999999999999  0.1629  1.0000
  C   C97       1.0  0.5342  0.8334999999999999  0.361  1.0000
  C   C98       1.0  0.08270000000000001  0.8504  0.403  1.0000
  C   C99       1.0  0.8413  0.8540999999999999  0.46029999999999993  1.0000
  C   C100      1.0  0.6352000000000001  0.8124999999999999  0.3869999999999999  1.0000
  C   C101      1.0  0.9441000000000002  0.471  0.2323  1.0000
  C   C102      1.0  0.8723000000000002  0.1171  0.7064999999999998  1.0000
  C   C103      1.0  0.1945  0.0541  0.3131  1.0000
  C   C104      1.0  0.4983  0.901  0.5559  1.0000
  C   C105      1.0  0.6142  0.8832  0.3314  1.0000
  C   C106      1.0  0.2873  0.6731  0.3451  1.0000
  C   C107      1.0  0.3767  0.3378  0.4272  1.0000
  C   C108      1.0  0.6121000000000001  0.6178  0.8489  1.0000
  C   C109      1.0  0.4249000000000001  0.2462  0.7511999999999998  1.0000
  C   C110      1.0  0.7976000000000001  0.14219999999999997  0.7131999999999998  1.0000
  C   C111      1.0  0.07040000000000003  0.5891  0.775  1.0000
  C   C112      1.0  0.1909  0.03989999999999999  0.5096  1.0000
  C   C113      1.0  0.4820999999999999  0.3009  0.2205  1.0000
  C   C114      1.0  0.9103  0.7263  0.14929999999999993  1.0000
  C   C115      1.0  0.41120000000000023  0.8661999999999999  0.19229999999999994  1.0000
  C   C116      1.0  0.11920000000000006  0.5478999999999999  0.982  1.0000
  C   C117      1.0  0.37360000000000004  0.3869999999999999  0.6516999999999998  1.0000
  C   C118      1.0  0.32319999999999993  0.2949  0.8407  1.0000
  C   C119      1.0  0.21890000000000004  0.9268  0.1788  1.0000
  C   C120      1.0  0.0921  0.417  0.7419  1.0000
  C   C121      1.0  0.2983  0.6097  0.33329999999999993  1.0000
  C   C122      1.0  0.2404  0.22619999999999998  0.1809  1.0000
  C   C123      1.0  0.10400000000000002  0.9677  0.014899999999999998  1.0000
  C   C124      1.0  0.8055000000000001  0.9458999999999999  0.6869  1.0000
  C   C125      1.0  0.7589000000000001  0.7484999999999999  0.7844  1.0000
  C   C126      1.0  0.834  0.7024  0.3597  1.0000
  C   C127      1.0  0.4642  0.055099999999999996  0.45749999999999996  1.0000
  C   C128      1.0  0.7127  0.3269  0.6549  1.0000
  C   C129      1.0  0.14490000000000006  0.2977  0.6078  1.0000
  C   C130      1.0  0.3055  0.49609999999999993  0.5663  1.0000
  C   C131      1.0  0.7779000000000003  0.4608  0.7511  1.0000
  C   C132      1.0  0.2820000000000001  0.8306999999999999  0.8731  1.0000
  C   C133      1.0  0.4264000000000001  0.925  0.1991  1.0000
  C   C134      1.0  0.8015  0.8895999999999998  0.7494999999999998  1.0000
  C   C135      1.0  0.0462000000000001  0.9143  0.9209  1.0000
  C   C136      1.0  0.3079  0.4031  0.1536  1.0000
  C   C137      1.0  0.15150000000000002  0.9687  0.1906  1.0000
  C   C138      1.0  0.569  0.5503  0.4726  1.0000
  C   C139      1.0  0.2086  0.7496  0.2739  1.0000
  C   C140      1.0  0.12059999999999998  0.2972  0.2246  1.0000
  C   C141      1.0  0.004899999999999996  0.1709  0.9134  1.0000
  C   C142      1.0  0.5443  0.40509999999999996  0.6088  1.0000
  C   C143      1.0  0.1207000000000001  0.8723999999999998  0.19079999999999994  1.0000
  C   C144      1.0  0.014000000000000014  0.5354  0.22889999999999996  1.0000
  C   C145      1.0  0.8886  0.7318  0.11539999999999999  1.0000
  C   C146      1.0  0.8507000000000002  0.0668  0.1927  1.0000
  C   C147      1.0  0.4074000000000002  0.5125  0.5459999999999998  1.0000
  C   C148      1.0  0.2294  0.005600000000000002  0.5418  1.0000
  C   C149      1.0  0.6264000000000002  0.613  0.3483  1.0000
  C   C150      1.0  0.8297000000000001  0.31919999999999993  0.073  1.0000
  C   C151      1.0  0.5967  0.0882  0.7367  1.0000
  C   C152      1.0  0.7636  0.582  0.0848  1.0000
  C   C153      1.0  0.7179999999999999  0.1693  0.1269  1.0000
  C   C154      1.0  0.3951  0.1976  0.7463  1.0000
  C   C155      1.0  0.7596000000000002  0.7738  0.8191  1.0000
  C   C156      1.0  0.42390000000000005  0.06809999999999998  0.49089999999999995  1.0000
  C   C157      1.0  0.15  0.2569  0.6715  1.0000
  C   C158      1.0  0.6826999999999999  0.6697  0.2607  1.0000
  C   C159      1.0  0.04110000000000001  0.1169  0.6151999999999999  1.0000
  C   C160      1.0  0.01630000000000001  0.066  0.6153  1.0000
  C   C161      1.0  0.3015  0.34909999999999997  0.4369  1.0000
  C   C162      1.0  0.5796999999999999  0.0503  0.7649  1.0000
  C   C163      1.0  0.10020000000000005  0.9412999999999999  0.19559999999999997  1.0000
  C   C164      1.0  0.5017  0.099  0.4441  1.0000
  C   C165      1.0  0.007499999999999991  0.17710000000000004  0.6007  1.0000
  C   C166      1.0  0.5926000000000001  0.4874999999999999  0.454  1.0000
  C   C167      1.0  0.3486000000000001  0.1734  0.8371  1.0000
  C   C168      1.0  0.10450000000000004  0.8064  0.5362  1.0000
  C   C169      1.0  0.9465000000000002  0.0015000000000000015  0.3687  1.0000
  C   C170      1.0  0.85  0.7431  0.3284999999999999  1.0000
  C   C171      1.0  0.9589  0.8831  0.3848  1.0000
  C   C172      1.0  0.21600000000000005  0.4965999999999999  0.2757  1.0000
  C   C173      1.0  0.12769999999999998  0.8829000000000001  0.2935  1.0000
  C   C174      1.0  0.5016000000000003  0.8191  0.6994  1.0000
  C   C175      1.0  0.2211000000000001  0.7380999999999999  0.5096999999999999  1.0000
  C   C176      1.0  0.13820000000000002  0.7733  0.2789  1.0000
  C   C177      1.0  0.0897  0.2737  0.8507  1.0000
  C   C178      1.0  0.6702  0.9034  0.055  1.0000
  C   C179      1.0  0.1597000000000001  0.5178  0.3034  1.0000
  C   C180      1.0  0.6945  0.5039  0.4337  1.0000
  C   C181      1.0  0.988  0.6146  0.1282  1.0000
  C   C182      1.0  0.7787000000000001  0.5093  0.13709999999999997  1.0000
  C   C183      1.0  0.5113  0.7962  0.3917999999999999  1.0000
  C   C184      1.0  0.9951  0.8290999999999998  0.08659999999999998  1.0000
  C   C185      1.0  0.7840000000000001  0.5034  0.7243  1.0000
  C   C186      1.0  0.9860000000000001  0.4646  0.7710999999999999  1.0000
  C   C187      1.0  0.13400000000000004  0.0819  0.2973  1.0000
  C   C188      1.0  0.062100000000000086  0.102  0.8973999999999999  1.0000
  C   C189      1.0  0.4413999999999999  0.9519  0.4559  1.0000
  C   C190      1.0  0.7340000000000002  0.9843  0.3986  1.0000
  C   C191      1.0  0.8030000000000007  0.2543  0.3034  1.0000
  C   C192      1.0  0.7767  0.8107  0.0302  1.0000
  C   C193      1.0  0.9963  0.5236  0.7794  1.0000
  C   C194      1.0  0.5385000000000001  0.5205  0.6309  1.0000
  C   C195      1.0  0.9079  0.583  0.25809999999999994  1.0000
  C   C196      1.0  0.3761000000000001  0.0674  0.1261  1.0000
  C   C197      1.0  0.26600000000000007  0.015699999999999992  0.6014  1.0000
  C   C198      1.0  0.4984  0.1809  0.3006  1.0000
  C   C199      1.0  0.9592  0.6629999999999999  0.1564  1.0000
  C   C200      1.0  0.2974000000000001  0.6574  0.8272  1.0000
  C   C201      1.0  0.6557  0.4643  0.43469999999999986  1.0000
  C   C202      1.0  0.9837000000000004  0.9339999999999999  0.3847  1.0000
  C   C203      1.0  0.04080000000000001  0.337  0.8436  1.0000
  C   C204      1.0  0.47209999999999996  0.4908  0.9421  1.0000
  C   C205      1.0  0.7811000000000001  0.07319999999999999  0.8212  1.0000
  C   C206      1.0  0.012000000000000057  0.3854  0.8717999999999998  1.0000
  C   C207      1.0  0.5980000000000001  0.4624  0.5696  1.0000
  C   C208      1.0  0.3479  0.5774  0.2996  1.0000
  C   C209      1.0  0.8955  0.19359999999999997  0.46379999999999993  1.0000
  C   C210      1.0  0.8403000000000006  0.4822  0.6966  1.0000
  C   C211      1.0  0.5277  0.004699999999999995  0.5608999999999998  1.0000
  C   C212      1.0  0.1493  0.9332  0.8073  1.0000
  C   C213      1.0  0.7065000000000002  0.7235  0.26289999999999997  1.0000
  C   C214      1.0  0.3656000000000001  0.1294  0.9596  1.0000
  C   C215      1.0  0.0902  0.782  0.49909999999999993  1.0000
  C   C216      1.0  0.8097  0.1928  0.4254  1.0000
  C   C217      1.0  0.21589999999999993  0.6071  0.3826  1.0000
  C   C218      1.0  0.4116999999999999  0.3682  0.7527  1.0000
  C   C219      1.0  0.24469999999999995  0.5276  0.831  1.0000
  C   C220      1.0  0.1587  0.1459  0.5397  1.0000
  C   C221      1.0  0.8479000000000001  0.4973  0.13  1.0000
  C   C222      1.0  0.38310000000000005  0.3159  0.7477  1.0000
  C   C223      1.0  0.38790000000000013  0.3822  0.1511  1.0000
  C   C224      1.0  0.9379000000000004  0.8979999999999999  0.1026  1.0000
  C   C225      1.0  0.43459999999999965  0.5237  0.9087999999999999  1.0000
  C   C226      1.0  0.9925000000000002  0.8228999999999999  0.3993  1.0000
  C   C227      1.0  0.07150000000000006  0.14199999999999996  0.24769999999999998  1.0000
  C   C228      1.0  0.6232999999999999  0.6621999999999999  0.5728  1.0000
  C   C229      1.0  0.5654  0.4763  0.0912  1.0000
  C   C230      1.0  0.17889999999999998  0.2893  0.2388  1.0000
  C   C231      1.0  0.8015000000000001  0.8863  0.4328999999999999  1.0000
  C   C232      1.0  0.1038  0.0755  0.0092  1.0000
  C   C233      1.0  0.2626  0.5732  0.3513  1.0000
  C   C234      1.0  0.7553  0.47239999999999993  0.169  1.0000
  C   C235      1.0  0.8808000000000001  0.45209999999999995  0.018  1.0000
  C   C236      1.0  0.019600000000000027  0.8653  0.2884  1.0000
  C   C237      1.0  0.2582000000000001  0.1278  0.9501  1.0000
  C   C238      1.0  0.9098000000000002  0.21799999999999997  0.5009  1.0000
  C   C239      1.0  0.20579999999999998  0.3359  0.6454  1.0000
  C   C240      1.0  0.6521000000000001  0.42259999999999986  0.7004  1.0000
  C   C241      1.0  0.9538  0.08569999999999998  0.0791  1.0000
  C   C242      1.0  0.8551000000000001  0.7023  0.3922  1.0000
  C   C243      1.0  0.2558  0.0816  0.2673  1.0000
  C   C244      1.0  0.10780000000000005  0.5813  0.29989999999999994  1.0000
  C   C245      1.0  0.1703000000000001  0.6808  0.9269999999999999  1.0000
  C   C246      1.0  0.8725999999999999  0.3564  0.0541  1.0000
  C   C247      1.0  0.05349999999999998  0.9985  0.6312999999999998  1.0000
  C   C248      1.0  0.45569999999999994  0.5948999999999999  0.39119999999999994  1.0000
  C   C249      1.0  0.04570000000000009  0.9182  0.39229999999999987  1.0000
  C   C250      1.0  0.04920000000000001  0.101  0.035  1.0000
  C   C251      1.0  0.7713000000000001  0.6288  0.3825  1.0000
  C   C252      1.0  0.3366  0.4345  0.5474  1.0000
  C   C253      1.0  0.4344000000000001  0.6441  0.41929999999999995  1.0000
  C   C254      1.0  0.44520000000000004  0.2721  0.0665  1.0000
  C   C255      1.0  0.6985000000000001  0.6509  0.5631  1.0000
  C   C256      1.0  0.023800000000000005  0.6199  0.9606000000000001  1.0000
  C   C257      1.0  0.6151  0.6629999999999999  0.9435  1.0000
  C   C258      1.0  0.9508000000000004  0.8989999999999998  0.965  1.0000
  C   C259      1.0  0.12930000000000005  0.4699  0.8998  1.0000
  C   C260      1.0  0.9804000000000003  0.1347  0.7116  1.0000
  C   C261      1.0  0.5358000000000002  0.9448999999999999  0.5425  1.0000
  C   C262      1.0  0.23639999999999997  0.4179999999999999  0.9152  1.0000
  C   C263      1.0  0.6344000000000001  0.8706  0.0404  1.0000
  C   C264      1.0  0.6049  0.8024  0.2537  1.0000
  C   C265      1.0  0.40440000000000004  0.1653  0.8556  1.0000
  C   C266      1.0  0.5953000000000002  0.8411999999999998  0.3604  1.0000
  C   C267      1.0  0.8820000000000001  0.7803999999999999  0.1808  1.0000
  C   C268      1.0  0.6111  0.36979999999999996  0.31299999999999994  1.0000
  C   C269      1.0  0.08110000000000002  0.3187  0.9104  1.0000
  C   C270      1.0  0.24110000000000018  0.25149999999999995  0.21559999999999996  1.0000
  C   C271      1.0  0.04449999999999999  0.9894  0.03919999999999999  1.0000
  C   C272      1.0  0.4364  0.008599999999999997  0.2421  1.0000
  C   C273      1.0  0.16490000000000005  0.33449999999999996  0.5783  1.0000
  C   C274      1.0  0.8211  0.7107  0.7612  1.0000
  C   C275      1.0  0.6337000000000002  0.9703999999999998  0.0761  1.0000
  C   C276      1.0  0.19699999999999998  0.7457  0.6966  1.0000
  C   C277      1.0  0.9189  0.6813  0.08959999999999999  1.0000
  C   C278      1.0  0.6091  0.7774  0.4158  1.0000
  C   C279      1.0  0.5887999999999999  0.1338  0.8077  1.0000
  C   C280      1.0  0.8918000000000001  0.5263999999999999  0.2514999999999999  1.0000
  C   C281      1.0  0.4033000000000001  0.9118  0.2633  1.0000
  C   C282      1.0  0.2934999999999999  0.2765  0.7371  1.0000
  C   C283      1.0  0.8444000000000002  0.4147  0.0343  1.0000
  C   C284      1.0  0.4887  0.20379999999999998  0.6082  1.0000
  C   C285      1.0  0.8793000000000001  0.1276  0.8092  1.0000
  C   C286      1.0  0.22869999999999996  0.3712  0.6175  1.0000
  C   C287      1.0  0.17299999999999993  0.7861  0.5397  1.0000
  C   C288      1.0  0.402  0.5376  0.4304  1.0000
  C   C289      1.0  0.09699999999999998  0.8389  0.2864  1.0000
  C   C290      1.0  0.1556  0.5853  0.9656999999999999  1.0000
  C   C291      1.0  0.5656  0.3559  0.5807  1.0000
  C   C292      1.0  0.23080000000000003  0.0438  0.5689  1.0000
  C   C293      1.0  0.025699999999999973  0.9874  0.2097  1.0000
  C   C294      1.0  0.42030000000000034  0.9497  0.23509999999999998  1.0000
  C   C295      1.0  0.2221  0.5391999999999999  0.2489  1.0000
  C   C296      1.0  0.3909  0.2226  0.5841999999999998  1.0000
  C   C297      1.0  0.5587  0.46359999999999996  0.6026  1.0000
  C   C298      1.0  0.24380000000000004  0.9004999999999999  0.6698  1.0000
  C   C299      1.0  0.3074  0.23779999999999998  0.2303  1.0000
  C   C300      1.0  0.3367000000000001  0.4575  0.6626  1.0000
  C   C301      1.0  0.23150000000000007  0.7035999999999999  0.3752  1.0000
  C   C302      1.0  0.3310000000000001  0.11419999999999994  0.8280999999999997  1.0000
  C   C303      1.0  0.4723  0.9952999999999997  0.4391  1.0000
  C   C304      1.0  0.5178999999999999  0.6991  0.7795  1.0000
  C   C305      1.0  0.669  0.8858  0.1719  1.0000
  C   C306      1.0  0.9555  0.010599999999999997  0.9608  1.0000
  C   C307      1.0  0.9840999999999993  0.9412  0.9491999999999999  1.0000
  C   C308      1.0  0.6926  0.7621999999999999  0.7697  1.0000
  C   C309      1.0  0.1673  0.6042  0.24989999999999998  1.0000
  C   C310      1.0  0.34430000000000016  0.5356999999999998  0.5653  1.0000
  C   C311      1.0  0.11139999999999996  0.2682  0.8846  1.0000
  C   C312      1.0  0.6166  0.4096  0.5445  1.0000
  C   C313      1.0  0.5956  0.8347  0.1444  1.0000
  C   C314      1.0  0.36480000000000007  0.18749999999999994  0.613  1.0000
  C   C315      1.0  0.32430000000000003  0.19489999999999996  0.9793  1.0000
  C   C316      1.0  0.3052000000000001  0.23919999999999997  0.8294  1.0000
  C   C317      1.0  0.8327000000000002  0.39579999999999993  0.7501  1.0000
  C   C318      1.0  0.8618  0.2267  0.7211  1.0000
  C   C319      1.0  0.7026000000000007  0.3426  0.1728  1.0000
  C   C320      1.0  0.7374  0.4268  0.6487  1.0000
  N   N1        1.0  0.6669000000000002  0.7873  0.2621  1.0000
  N   N2        1.0  0.14189999999999997  0.7454  0.4725  1.0000
  N   N3        1.0  0.9449000000000001  0.194  0.5921  1.0000
  N   N4        1.0  0.24130000000000001  0.8612999999999997  0.17439999999999994  1.0000
  N   N5        1.0  0.3331  0.2127  0.7379  1.0000
  N   N6        1.0  0.9460000000000001  0.4353  0.022  1.0000
  N   N7        1.0  0.054000000000000076  0.5646999999999999  0.9779999999999999  1.0000
  N   N8        1.0  0.6001999999999998  0.356  0.5497  1.0000
  N   N9        1.0  0.97  0.6224  0.09509999999999998  1.0000
  N   N10       1.0  0.030000000000000006  0.3776  0.9049  1.0000
  N   N11       1.0  0.23920000000000008  0.7913999999999998  0.2764  1.0000
  N   N12       1.0  0.8304  0.5722  0.07839999999999998  1.0000
  N   N13       1.0  0.25710000000000005  0.2191  0.9825999999999999  1.0000
  N   N14       1.0  0.8829  0.7275  0.8102  1.0000
  N   N15       1.0  0.7934000000000002  0.6300999999999999  0.4156  1.0000
  N   N16       1.0  0.034  0.4108  0.753  1.0000
  N   N17       1.0  0.6018  0.5883  0.47229999999999994  1.0000
  N   N18       1.0  0.45010000000000006  0.229  0.5829  1.0000
  N   N19       1.0  0.05509999999999999  0.806  0.40789999999999993  1.0000
  N   N20       1.0  0.7429  0.7809  0.017399999999999995  1.0000
  N   N21       1.0  0.1984  0.6697  0.3915  1.0000
  N   N22       1.0  0.5984  0.0357  0.5132  1.0000
  N   N23       1.0  0.1171  0.27249999999999996  0.1898  1.0000
  N   N24       1.0  0.8377  0.8909  0.49149999999999994  1.0000
  N   N25       1.0  0.39339999999999997  0.8321  0.2208  1.0000
  N   N26       1.0  0.9660000000000002  0.5892  0.247  1.0000
  N   N27       1.0  0.8686999999999999  0.9927  0.9998  1.0000
  N   N28       1.0  0.8581000000000002  0.25459999999999994  0.5274999999999999  1.0000
  N   N29       1.0  0.11400000000000005  0.6209999999999999  0.2731  1.0000
  N   N30       1.0  0.6184000000000002  0.7136  0.1463  1.0000
  N   N31       1.0  0.16960000000000014  0.4278  0.9216  1.0000
  N   N32       1.0  0.4016000000000001  0.9642999999999999  0.4868  1.0000
  N   N33       1.0  0.3816000000000001  0.2864  0.8537  1.0000
  N   N34       1.0  0.3982  0.4117  0.5277  1.0000
  N   N35       1.0  0.5499000000000002  0.771  0.4171  1.0000
  N   N36       1.0  0.7452  0.944  0.7001  1.0000
  N   N37       1.0  0.7608000000000001  0.20859999999999995  0.7236  1.0000
  N   N38       1.0  0.8016000000000001  0.3303  0.6085  1.0000
  N   N39       1.0  0.6066  0.1679  0.7792  1.0000
  N   N40       1.0  0.7587  0.1387  0.8256  1.0000
  N   N41       1.0  0.1623  0.1091  0.5085  1.0000
  N   N42       1.0  0.886  0.37899999999999995  0.7268999999999999  1.0000
  N   N43       1.0  0.2548000000000001  0.055999999999999994  0.29989999999999994  1.0000
  N   N44       1.0  0.3998  0.644  0.4503  1.0000
  N   N45       1.0  0.20660000000000006  0.36989999999999995  0.5844  1.0000
  N   N46       1.0  0.13130000000000003  0.007299999999999998  0.0002  1.0000
  O   O1        1.0  0.4808  0.4799  0.73373  1.0000
  O   O2        1.0  0.5669  0.39659999999999995  0.22955999999999996  1.0000
  O   O3        1.0  0.7071000000000001  0.0773  0.3268  1.0000
  O   O4        1.0  0.6235999999999999  0.4246  0.0806  1.0000
  O   O5        1.0  0.9460000000000001  0.1358  0.0985  1.0000
  O   O6        1.0  0.5859000000000001  0.1304  0.10668  1.0000
  O   O7        1.0  0.47870000000000024  0.6946999999999999  0.8078999999999997  1.0000
  O   O8        1.0  0.1878  0.9247  0.6915  1.0000
  O   O9        1.0  0.44180000000000014  0.4874  0.22022  1.0000
  O   O10       1.0  0.4571999999999999  0.9212  0.5861  1.0000
  O   O11       1.0  0.0181  0.1374  0.2646  1.0000
  O   O12       1.0  0.3700000000000001  0.1269  0.12179999999999999  1.0000
  O   O13       1.0  0.3071  0.2691  0.2585  1.0000
  O   O14       1.0  0.039799999999999995  0.8327  0.82601  1.0000
  O   O15       1.0  0.35580000000000006  0.6292  0.8407999999999998  1.0000
  O   O16       1.0  0.17319999999999997  0.7756  0.7915599999999999  1.0000
  O   O17       1.0  0.29290000000000005  0.9227  0.6732  1.0000
  O   O18       1.0  0.5636000000000001  0.9501999999999999  0.7839  1.0000
  O   O19       1.0  0.11610000000000004  0.21979999999999997  0.6644  1.0000
  O   O20       1.0  0.27440000000000003  0.39649999999999996  0.308  1.0000
  O   O21       1.0  0.5464  0.7436  0.77667  1.0000
  O   O22       1.0  0.13529999999999998  0.902  0.8363  1.0000
  O   O23       1.0  0.6929  0.7308999999999999  0.7415  1.0000
  O   O24       1.0  0.43850000000000006  0.6631999999999999  0.87913  1.0000
  O   O25       1.0  0.7292  0.3926999999999999  0.3838  1.0000
  O   O26       1.0  0.11209999999999999  0.2347  0.7857  1.0000
  O   O27       1.0  0.32089999999999996  0.4087  0.2524  1.0000
  O   O28       1.0  0.6398000000000004  0.8093999999999998  0.7867  1.0000
  O   O29       1.0  0.2822000000000002  0.8906999999999998  0.86385  1.0000
  O   O30       1.0  0.9279000000000001  0.25789999999999996  0.23439999999999997  1.0000
  O   O31       1.0  0.5318000000000002  0.5064  0.6653  1.0000
  O   O32       1.0  0.9367000000000002  0.9358999999999998  0.1316  1.0000
  O   O33       1.0  0.1388  0.9209999999999999  0.77497  1.0000
  O   O34       1.0  0.5429  0.1347  0.3171  1.0000
  O   O35       1.0  0.8915000000000001  0.8993  0.22954999999999998  1.0000
  O   O36       1.0  0.27630000000000005  0.4794999999999999  0.6708999999999999  1.0000
  O   O37       1.0  0.5492  0.9863  0.7273  1.0000
  O   O38       1.0  0.13960000000000006  0.8427999999999999  0.5983  1.0000
  O   O39       1.0  0.4835000000000002  0.7414  0.9255999999999999  1.0000
  O   O40       1.0  0.43440000000000006  0.0201  0.1168  1.0000
  O   O41       1.0  0.41960000000000003  0.3201  0.4485  1.0000
  O   O42       1.0  0.7386000000000001  0.4333  0.25857  1.0000
  O   O43       1.0  0.6897  0.0423  0.4029  1.0000
  O   O44       1.0  0.1988  0.5792  0.8208  1.0000
  O   O45       1.0  0.2521  0.05159999999999999  0.6303  1.0000
  O   O46       1.0  0.08780000000000002  0.9460999999999999  0.9189999999999999  1.0000
  O   O47       1.0  0.4661000000000001  0.1618  0.2782  1.0000
  O   O48       1.0  0.3564  0.0003000000000000003  0.7321  1.0000
  O   O49       1.0  0.7756  0.0037999999999999944  0.2577499999999999  1.0000
  O   O50       1.0  0.6347000000000002  0.9408  0.1594  1.0000
  O   O51       1.0  0.4886  0.1537  0.46199999999999997  1.0000
  O   O52       1.0  0.5288  0.0611  0.156  1.0000
  O   O53       1.0  0.7521000000000001  0.1427  0.35419  1.0000
  O   O54       1.0  0.5656  0.9798999999999999  0.8832  1.0000
  O   O55       1.0  0.9602  0.16729999999999995  0.17398999999999995  1.0000
  O   O56       1.0  0.22439999999999993  0.9962  0.74225  1.0000
  O   O57       1.0  0.4141  0.8696  0.8933199999999999  1.0000
  O   O58       1.0  0.6436000000000001  0.9996999999999999  0.2679  1.0000
  O   O59       1.0  0.41680000000000006  0.37859999999999994  0.31858  1.0000
  O   O60       1.0  0.1085  0.1007  0.77045  1.0000
  O   O61       1.0  0.38899999999999996  0.9796  0.65619  1.0000
  O   O62       1.0  0.11569999999999998  0.9844  0.6353999999999997  1.0000
  O   O63       1.0  0.8338999999999999  0.7395  0.29859999999999987  1.0000
  O   O64       1.0  0.4419  0.6422999999999999  0.69121  1.0000
  O   O65       1.0  0.3642000000000001  0.5975999999999999  0.7111  1.0000
  O   O66       1.0  0.6344000000000002  0.1816  0.4147  1.0000
  O   O67       1.0  0.4296  0.0044  0.9225  1.0000
  O   O68       1.0  0.5114  0.8463  0.538  1.0000
  O   O69       1.0  0.4331000000000002  0.6034  0.77044  1.0000
  O   O70       1.0  0.6622  0.2194  0.128  1.0000
  O   O71       1.0  0.7753000000000002  0.1775  0.11699999999999999  1.0000
  O   O72       1.0  0.5213  0.3053  0.1921  1.0000
  O   O73       1.0  0.6760000000000002  0.9483  0.8575  1.0000
  O   O74       1.0  0.5526  0.513  0.1909  1.0000
  O   O75       1.0  0.7479  0.9484  0.3696999999999999  1.0000
  O   O76       1.0  0.5804  0.6799  0.5515  1.0000
  O   O77       1.0  0.3102999999999999  0.9577  0.5971  1.0000
  O   O78       1.0  0.2614  0.5667  0.74143  1.0000
  O   O79       1.0  0.6358000000000003  0.4024  0.2889  1.0000
  O   O80       1.0  0.39230000000000004  0.3425  0.3919  1.0000
  O   O81       1.0  0.3707000000000003  0.42979999999999996  0.75  1.0000
  O   O82       1.0  0.9122000000000001  0.0539  0.081  1.0000
  O   O83       1.0  0.8612000000000001  0.079  0.22503  1.0000
  O   O84       1.0  0.37340000000000007  0.4945  0.6611  1.0000
  O   O85       1.0  0.6299999999999999  0.8731  0.8782  1.0000
  O   O86       1.0  0.5262  0.5779  0.6199  1.0000
  O   O87       1.0  0.14529999999999998  0.1601  0.8311  1.0000
  O   O88       1.0  0.6734000000000002  0.9937  0.09019999999999999  1.0000
  O   O89       1.0  0.4735  0.352  0.7597999999999999  1.0000
  O   O90       1.0  0.8480000000000001  0.1955  0.2895  1.0000
  O   O91       1.0  0.6708000000000001  0.023599999999999993  0.20945999999999998  1.0000
  O   O92       1.0  0.2708000000000001  0.6073  0.6162  1.0000
  O   O93       1.0  0.7147  0.8756999999999999  0.1919  1.0000
  O   O94       1.0  0.8122  0.0753  0.3085  1.0000
  O   O95       1.0  0.5192000000000001  0.5201  0.26627  1.0000
  O   O96       1.0  0.8547  0.8399  0.1689  1.0000
  O   O97       1.0  0.5164999999999998  0.2586  0.0744  1.0000
  O   O98       1.0  0.6402999999999999  0.4835999999999999  0.7071  1.0000
  O   O99       1.0  0.22560000000000002  0.1256  0.7386399999999999  1.0000
  O   O100      1.0  0.4208  0.8463  0.81812  1.0000
  O   O101      1.0  0.0721000000000001  0.7420999999999999  0.7655999999999998  1.0000
  O   O102      1.0  0.3062000000000001  0.5065  0.8193  1.0000
  O   O103      1.0  0.5582000000000001  0.5126  0.77978  1.0000
  O   O104      1.0  0.24790000000000004  0.8572999999999998  0.64581  1.0000
  O   O105      1.0  0.02410000000000004  0.9567  0.6396999999999998  1.0000
  O   O106      1.0  0.324  0.051699999999999996  0.1425  1.0000
  O   O107      1.0  0.9819  0.8625999999999999  0.7354  1.0000
  O   O108      1.0  0.9361000000000006  0.0663  0.28463  1.0000
  O   O109      1.0  0.9872000000000001  0.9557  0.2218  1.0000
  O   O110      1.0  0.5056  0.2151  0.39194  1.0000
  O   O111      1.0  0.4839  0.2441  0.30734  1.0000
  O   O112      1.0  0.6248000000000001  0.38759999999999994  0.7211  1.0000
  O   O113      1.0  0.45360000000000006  0.2564  0.22332999999999997  1.0000
  O   O114      1.0  0.5704  0.9955999999999999  0.07749999999999999  1.0000
  O   O115      1.0  0.5747999999999999  0.6778  0.8592999999999997  1.0000
  O   O116      1.0  0.06390000000000004  0.9337  0.7153699999999997  1.0000
  O   O117      1.0  0.6447  0.3489999999999999  0.34068999999999994  1.0000
  O   O118      1.0  0.4338000000000001  0.07839999999999998  0.6854  1.0000
  O   O119      1.0  0.7614  0.9715999999999999  0.14456  1.0000
  O   O120      1.0  0.4364  0.04979999999999999  0.2161  1.0000
  O   O121      1.0  0.3266000000000001  0.006299999999999995  0.9098  1.0000
  O   O122      1.0  0.47380000000000005  0.4220999999999999  0.3801  1.0000
  O   O123      1.0  0.32559999999999995  0.1197  0.6734  1.0000
  O   O124      1.0  0.5792  0.1537  0.18187999999999993  1.0000
  O   O125      1.0  0.988  0.9508  0.7909  1.0000
  O   O126      1.0  0.4731  0.5211  0.88  1.0000
  O   O127      1.0  0.2853  0.12429999999999998  0.8080999999999999  1.0000
  O   O128      1.0  0.9939000000000004  0.8229999999999998  0.2795  1.0000
  O   O129      1.0  0.8452000000000001  0.9182  0.30630999999999997  1.0000
  O   O130      1.0  0.6076999999999999  0.6575  0.6081  1.0000
  O   O131      1.0  0.11260000000000009  0.08059999999999998  0.914  1.0000
  O   O132      1.0  0.5161  0.7559  0.69266  1.0000
  O   O133      1.0  0.8012  0.4208  0.17919999999999997  1.0000
  O   O134      1.0  0.7787000000000001  0.2585  0.337  1.0000
  O   O135      1.0  0.5662000000000001  0.9216  0.3146  1.0000
  O   O136      1.0  0.5265000000000001  0.648  0.2402  1.0000
  O   O137      1.0  0.012000000000000004  0.049199999999999994  0.2091  1.0000
  O   O138      1.0  0.4150000000000001  0.42529999999999996  0.15859999999999996  1.0000
  O   O139      1.0  0.7256000000000002  0.6035  0.692  1.0000
  O   O140      1.0  0.15480000000000005  0.0818  0.69369  1.0000
  O   O141      1.0  0.46820000000000006  0.4936  0.3347  1.0000
  O   O142      1.0  0.6442  0.3708  0.15919999999999998  1.0000
  O   O143      1.0  0.4571  0.8653  0.6829  1.0000
  O   O144      1.0  0.22469999999999996  0.8224999999999999  0.883  1.0000
  O   O145      1.0  0.4508  0.013699999999999999  0.2727  1.0000
  O   O146      1.0  0.17500000000000004  0.9783999999999999  0.8148  1.0000
  O   O147      1.0  0.7744  0.8743999999999998  0.26136  1.0000
  O   O148      1.0  0.13900000000000007  0.7300999999999999  0.9096  1.0000
  O   O149      1.0  0.3878  0.7753  0.65812  1.0000
  O   O150      1.0  0.45860000000000006  0.1874  0.14921  1.0000
  O   O151      1.0  0.01280000000000001  0.044299999999999985  0.7782  1.0000
  O   O152      1.0  0.5414  0.8125999999999999  0.85079  1.0000
  O   O153      1.0  0.12540000000000004  0.594  0.7590999999999999  1.0000
  O   O154      1.0  0.3656000000000001  0.8183999999999999  0.5853  1.0000
  O   O155      1.0  0.006099999999999998  0.177  0.7205  1.0000
  O   O156      1.0  0.7510000000000001  0.29919999999999997  0.1499  1.0000
  O   O157      1.0  0.8610000000000001  0.2699  0.0904  1.0000
  O   O158      1.0  0.024900000000000047  0.6364  0.7953999999999998  1.0000
  O   O159      1.0  0.23050000000000004  0.6610999999999999  0.9294  1.0000
  O   O160      1.0  0.4405000000000002  0.6903  0.59493  1.0000
  O   O161      1.0  0.5832  0.6214  0.68142  1.0000
  O   O162      1.0  0.1661  0.26049999999999995  0.7014  1.0000
  O   O163      1.0  0.3378000000000001  0.7805999999999998  0.8719999999999999  1.0000
  O   O164      1.0  0.6938000000000002  0.4934999999999999  0.18069999999999997  1.0000
  O   O165      1.0  0.22130000000000002  0.7415  0.6629999999999998  1.0000
  O   O166      1.0  0.9854000000000002  0.9275  0.2968  1.0000
  O   O167      1.0  0.5615  0.33679999999999993  0.12087  1.0000
  O   O168      1.0  0.06330000000000002  0.0641  0.8683999999999998  1.0000
  O   O169      1.0  0.15199999999999997  0.8045  0.7105  1.0000
  O   O170      1.0  0.2386  0.0284  0.85544  1.0000
  O   O171      1.0  0.7091000000000001  0.3546  0.20457  1.0000
  O   O172      1.0  0.37639999999999996  0.5754  0.9193999999999999  1.0000
  O   O173      1.0  0.4252000000000001  0.32219999999999993  0.14069999999999996  1.0000
  O   O174      1.0  0.3396000000000001  0.6467999999999999  0.5805999999999998  1.0000
  O   O175      1.0  0.8839  0.7801999999999999  0.3356  1.0000
  O   O176      1.0  0.8879000000000001  0.7652999999999999  0.2143  1.0000
  O   O177      1.0  0.7237  0.5205  0.3290999999999999  1.0000
  O   O178      1.0  0.5269  0.4788999999999999  0.12  1.0000
  O   O179      1.0  0.5581000000000002  0.35769999999999996  0.30879  1.0000
  O   O180      1.0  0.35969999999999996  0.5164  0.2929  1.0000
  O   O181      1.0  0.7695  0.3389  0.0706  1.0000
  O   O182      1.0  0.6744000000000002  0.8802999999999999  0.3266  1.0000
  O   O183      1.0  0.2909  0.6454  0.7954299999999997  1.0000
  O   O184      1.0  0.6791000000000001  0.5913  0.7476  1.0000
  O   O185      1.0  0.585  0.5747  0.8414  1.0000
  O   O186      1.0  0.4629  0.3436  0.24779999999999996  1.0000
  O   O187      1.0  0.014599999999999998  0.07249999999999998  0.7032  1.0000
  O   O188      1.0  0.05399999999999995  0.8642  0.9015000000000001  1.0000
  O   O189      1.0  0.8843000000000001  0.015599999999999992  0.3646  1.0000
  O   O190      1.0  0.3602  0.19059999999999996  0.2133  1.0000
  O   O191      1.0  0.6122  0.2247  0.34188  1.0000
  O   O192      1.0  0.5594999999999999  0.3097  0.40507  1.0000
  O   O193      1.0  0.7850000000000001  0.3054  0.28361  1.0000
  O   O194      1.0  0.5371  0.6564  0.7522  1.0000
  O   O195      1.0  0.8647  0.098  0.16369999999999998  1.0000
  O   O196      1.0  0.3553  0.6509999999999999  0.65931  1.0000
  O   O197      1.0  0.24920000000000006  0.7792  0.5785  1.0000
  O   O198      1.0  0.9751000000000006  0.3635999999999999  0.2046  1.0000
  O   O199      1.0  0.9759  0.0433  0.3603  1.0000
  O   O200      1.0  0.7507999999999999  0.2208  0.4215  1.0000
  O   O201      1.0  0.5615  0.054599999999999996  0.23606  1.0000
  O   O202      1.0  0.8926000000000002  0.2961  0.1638  1.0000
  O   O203      1.0  0.37520000000000003  0.6124  0.2789  1.0000
  O   O204      1.0  0.8746000000000002  0.406  0.24089999999999998  1.0000
  O   O205      1.0  0.6604  0.3532  0.4194  1.0000
  O   O206      1.0  0.7178  0.10929999999999998  0.13615  1.0000
  O   O207      1.0  0.24899999999999994  0.7008  0.8501  1.0000
  O   O208      1.0  0.07560000000000001  0.1698  0.217  1.0000
  O   O209      1.0  0.44460000000000005  0.205  0.0719  1.0000
  O   O210      1.0  0.5339000000000003  0.8382  0.7218  1.0000
  O   O211      1.0  0.3653  0.0592  0.8406  1.0000
  O   O212      1.0  0.8250000000000002  0.0216  0.1852  1.0000
  O   O213      1.0  0.8604000000000003  0.1572  0.4017  1.0000
  O   O214      1.0  0.6266000000000003  0.5054999999999998  0.3389  1.0000
  O   O215      1.0  0.4474  0.48699999999999993  0.8091  1.0000
  O   O216      1.0  0.4712  0.9389  0.844  1.0000
  O   O217      1.0  0.10740000000000004  0.7039  0.8361999999999999  1.0000
  O   O218      1.0  0.3292000000000001  0.9764  0.7905399999999998  1.0000
  O   O219      1.0  0.6292999999999999  0.5702  0.25  1.0000
  O   O220      1.0  0.9244000000000001  0.8302  0.783  1.0000
  O   O221      1.0  0.5553999999999999  0.795  0.9280999999999999  1.0000
  O   O222      1.0  0.8874  0.9193999999999999  0.08599999999999998  1.0000
  O   O223      1.0  0.8268  0.2244  0.20844  1.0000
  O   O224      1.0  0.43849999999999995  0.9453999999999999  0.76394  1.0000
  O   O225      1.0  0.49440000000000006  0.7849  0.60806  1.0000
  O   O226      1.0  0.5428  0.0788  0.41389999999999993  1.0000
  O   O227      1.0  0.21500000000000005  0.6946  0.7163899999999999  1.0000
  O   O228      1.0  0.611  0.02039999999999999  0.3438099999999999  1.0000
