data_image0
_chemical_formula_structural       Ag16H192C288N96
_chemical_formula_sum              "Ag16 H192 C288 N96"
_cell_length_a       22.66997141
_cell_length_b       15.20904952
_cell_length_c       25.58886821
_cell_angle_alpha    90.0
_cell_angle_beta     114.93859903000002
_cell_angle_gamma    90.0

_space_group_name_H-M_alt    "P 1"
_space_group_IT_number       1

loop_
  _space_group_symop_operation_xyz
  'x, y, z'

loop_
  _atom_site_type_symbol
  _atom_site_label
  _atom_site_symmetry_multiplicity
  _atom_site_fract_x
  _atom_site_fract_y
  _atom_site_fract_z
  _atom_site_occupancy
  Ag  Ag1       1.0  0.34286971  0.94884363  0.36659575999999994  1.0000
  Ag  Ag2       1.0  0.32820522  0.24983618  0.86804299  1.0000
  Ag  Ag3       1.0  0.84286971  0.44884363  0.36659575999999994  1.0000
  Ag  Ag4       1.0  0.82820522  0.74983618  0.86804299  1.0000
  Ag  Ag5       1.0  0.65713029  0.94884363  0.13340424  1.0000
  Ag  Ag6       1.0  0.6717947800000003  0.24983618  0.63195701  1.0000
  Ag  Ag7       1.0  0.15713029  0.44884363  0.13340424  1.0000
  Ag  Ag8       1.0  0.17179478  0.74983618  0.63195701  1.0000
  Ag  Ag9       1.0  0.65713029  0.05115637  0.63340424  1.0000
  Ag  Ag10      1.0  0.67179478  0.75016382  0.13195701  1.0000
  Ag  Ag11      1.0  0.15713029000000006  0.5511563700000002  0.63340424  1.0000
  Ag  Ag12      1.0  0.17179478  0.25016382  0.13195701  1.0000
  Ag  Ag13      1.0  0.34286971  0.05115637  0.86659576  1.0000
  Ag  Ag14      1.0  0.32820522  0.75016382  0.36804299  1.0000
  Ag  Ag15      1.0  0.84286971  0.5511563700000002  0.86659576  1.0000
  Ag  Ag16      1.0  0.82820522  0.25016382  0.36804299  1.0000
  H   H1        1.0  0.06004664  0.28645235  0.38909987999999995  1.0000
  H   H2        1.0  0.41850757  0.3113772400000001  0.9923687600000001  1.0000
  H   H3        1.0  0.7992956600000001  0.63603916  0.04994758  1.0000
  H   H4        1.0  0.21644336000000003  0.057853540000000016  0.34184388  1.0000
  H   H5        1.0  0.52443018  0.38661209  0.04768895  1.0000
  H   H6        1.0  0.6896201700000001  0.67606494  0.84024698  1.0000
  H   H7        1.0  0.32573434000000007  0.09505832  0.55175476  1.0000
  H   H8        1.0  0.044800469999999995  0.33536292  0.54865276  1.0000
  H   H9        1.0  0.9408223600000001  0.41459489  0.49256858  1.0000
  H   H10       1.0  0.63403404  0.43459793  0.16087723  1.0000
  H   H11       1.0  0.95723951  0.37176512  0.33894255  1.0000
  H   H12       1.0  0.860931  0.52813138  0.26600677  1.0000
  H   H13       1.0  0.37684325  0.01448631  0.49657454999999995  1.0000
  H   H14       1.0  0.15978519000000002  0.14223137  0.39120076  1.0000
  H   H15       1.0  0.8523545600000002  0.71209902  0.9945953500000001  1.0000
  H   H16       1.0  0.63119501  0.59593912  0.88984615  1.0000
  H   H17       1.0  0.52727882  0.45765709  0.88615126  1.0000
  H   H18       1.0  0.42170006000000004  0.37621079  0.8362880400000001  1.0000
  H   H19       1.0  0.69422769  0.41829887  0.2676067  1.0000
  H   H20       1.0  0.1626198  0.31311155  0.65826504  1.0000
  H   H21       1.0  0.22072476000000002  0.32933441  0.76541595  1.0000
  H   H22       1.0  0.32491765  0.16064026  0.66392187  1.0000
  H   H23       1.0  0.80659214  0.54993349  0.15949661  1.0000
  H   H24       1.0  0.3764016200000001  0.18055178  0.77111916  1.0000
  H   H25       1.0  0.56004664  0.78645235  0.38909987999999995  1.0000
  H   H26       1.0  0.91850757  0.81137724  0.9923687600000001  1.0000
  H   H27       1.0  0.29929566  0.13603916  0.04994758  1.0000
  H   H28       1.0  0.71644336  0.55785354  0.34184388  1.0000
  H   H29       1.0  0.02443018  0.88661209  0.04768895  1.0000
  H   H30       1.0  0.1896201700000001  0.17606494  0.84024698  1.0000
  H   H31       1.0  0.82573434  0.59505832  0.55175476  1.0000
  H   H32       1.0  0.54480047  0.83536292  0.54865276  1.0000
  H   H33       1.0  0.44082236  0.91459489  0.49256858  1.0000
  H   H34       1.0  0.13403404  0.93459793  0.16087723  1.0000
  H   H35       1.0  0.45723951  0.87176512  0.33894255  1.0000
  H   H36       1.0  0.360931  0.02813138  0.26600677  1.0000
  H   H37       1.0  0.87684325  0.51448631  0.49657454999999995  1.0000
  H   H38       1.0  0.6597851899999999  0.64223137  0.39120076  1.0000
  H   H39       1.0  0.35235456000000004  0.21209902000000003  0.9945953500000001  1.0000
  H   H40       1.0  0.13119501000000006  0.09593912  0.88984615  1.0000
  H   H41       1.0  0.02727881999999998  0.95765709  0.88615126  1.0000
  H   H42       1.0  0.92170006  0.87621079  0.8362880400000001  1.0000
  H   H43       1.0  0.19422769  0.91829887  0.2676067  1.0000
  H   H44       1.0  0.6626198  0.81311155  0.65826504  1.0000
  H   H45       1.0  0.7207247600000001  0.82933441  0.76541595  1.0000
  H   H46       1.0  0.8249176500000001  0.66064026  0.66392187  1.0000
  H   H47       1.0  0.3065921400000001  0.04993349  0.15949661  1.0000
  H   H48       1.0  0.87640162  0.6805517800000003  0.77111916  1.0000
  H   H49       1.0  0.93995336  0.28645235  0.11090012  1.0000
  H   H50       1.0  0.58149243  0.3113772400000001  0.50763124  1.0000
  H   H51       1.0  0.20070434000000004  0.63603916  0.45005242  1.0000
  H   H52       1.0  0.78355664  0.057853540000000016  0.15815612  1.0000
  H   H53       1.0  0.47556982  0.38661209  0.45231105  1.0000
  H   H54       1.0  0.31037983  0.67606494  0.65975302  1.0000
  H   H55       1.0  0.6742656600000002  0.09505832  0.9482452400000001  1.0000
  H   H56       1.0  0.9551995300000002  0.33536292  0.95134724  1.0000
  H   H57       1.0  0.05917764000000002  0.41459489  0.007431420000000001  1.0000
  H   H58       1.0  0.36596596  0.43459793  0.33912277  1.0000
  H   H59       1.0  0.04276049  0.37176512  0.16105745  1.0000
  H   H60       1.0  0.139069  0.52813138  0.23399323  1.0000
  H   H61       1.0  0.62315675  0.01448631  0.00342545  1.0000
  H   H62       1.0  0.84021481  0.14223137  0.10879923999999999  1.0000
  H   H63       1.0  0.14764544  0.71209902  0.50540465  1.0000
  H   H64       1.0  0.36880499  0.59593912  0.61015385  1.0000
  H   H65       1.0  0.47272118  0.45765709  0.61384874  1.0000
  H   H66       1.0  0.57829994  0.37621079  0.66371196  1.0000
  H   H67       1.0  0.30577231  0.41829887  0.2323933  1.0000
  H   H68       1.0  0.8373802  0.31311155  0.84173496  1.0000
  H   H69       1.0  0.7792752400000001  0.32933441  0.73458405  1.0000
  H   H70       1.0  0.67508235  0.16064026  0.83607813  1.0000
  H   H71       1.0  0.19340786000000001  0.54993349  0.34050339  1.0000
  H   H72       1.0  0.6235983799999999  0.18055178  0.7288808399999999  1.0000
  H   H73       1.0  0.43995336  0.78645235  0.11090012  1.0000
  H   H74       1.0  0.08149243  0.81137724  0.50763124  1.0000
  H   H75       1.0  0.70070434  0.13603916  0.45005242  1.0000
  H   H76       1.0  0.28355664  0.55785354  0.15815612  1.0000
  H   H77       1.0  0.9755698200000003  0.88661209  0.45231105  1.0000
  H   H78       1.0  0.81037983  0.17606494  0.65975302  1.0000
  H   H79       1.0  0.17426566000000002  0.59505832  0.9482452400000001  1.0000
  H   H80       1.0  0.4551995300000001  0.83536292  0.95134724  1.0000
  H   H81       1.0  0.55917764  0.91459489  0.007431420000000001  1.0000
  H   H82       1.0  0.8659659600000001  0.93459793  0.33912277  1.0000
  H   H83       1.0  0.54276049  0.87176512  0.16105745  1.0000
  H   H84       1.0  0.6390690000000001  0.02813138  0.23399323  1.0000
  H   H85       1.0  0.12315675000000002  0.51448631  0.00342545  1.0000
  H   H86       1.0  0.3402148099999999  0.64223137  0.10879923999999999  1.0000
  H   H87       1.0  0.64764544  0.21209902000000003  0.50540465  1.0000
  H   H88       1.0  0.86880499  0.09593912  0.61015385  1.0000
  H   H89       1.0  0.97272118  0.95765709  0.61384874  1.0000
  H   H90       1.0  0.07829994000000007  0.87621079  0.66371196  1.0000
  H   H91       1.0  0.80577231  0.91829887  0.2323933  1.0000
  H   H92       1.0  0.33738019999999996  0.81311155  0.84173496  1.0000
  H   H93       1.0  0.27927524  0.82933441  0.73458405  1.0000
  H   H94       1.0  0.17508235000000008  0.66064026  0.83607813  1.0000
  H   H95       1.0  0.69340786  0.04993349  0.34050339  1.0000
  H   H96       1.0  0.12359838  0.6805517800000003  0.7288808399999999  1.0000
  H   H97       1.0  0.93995336  0.71354765  0.61090012  1.0000
  H   H98       1.0  0.58149243  0.68862276  0.007631239999999999  1.0000
  H   H99       1.0  0.20070434000000015  0.36396084  0.9500524200000001  1.0000
  H   H100      1.0  0.78355664  0.9421464600000001  0.65815612  1.0000
  H   H101      1.0  0.4755698199999999  0.61338791  0.9523110499999999  1.0000
  H   H102      1.0  0.31037983  0.32393506  0.15975302  1.0000
  H   H103      1.0  0.67426566  0.90494168  0.44824524  1.0000
  H   H104      1.0  0.9551995300000001  0.6646370800000001  0.45134724  1.0000
  H   H105      1.0  0.059177640000000004  0.58540511  0.50743142  1.0000
  H   H106      1.0  0.36596596  0.56540207  0.83912277  1.0000
  H   H107      1.0  0.04276048999999998  0.6282348800000003  0.66105745  1.0000
  H   H108      1.0  0.139069  0.47186862  0.73399323  1.0000
  H   H109      1.0  0.62315675  0.98551369  0.50342545  1.0000
  H   H110      1.0  0.84021481  0.85776863  0.60879924  1.0000
  H   H111      1.0  0.14764544  0.28790098  0.00540465  1.0000
  H   H112      1.0  0.36880499  0.40406088  0.11015384999999998  1.0000
  H   H113      1.0  0.47272118  0.5423429100000002  0.11384874  1.0000
  H   H114      1.0  0.57829994  0.62378921  0.16371196  1.0000
  H   H115      1.0  0.30577231  0.5817011300000002  0.7323933  1.0000
  H   H116      1.0  0.8373802  0.68688845  0.34173496  1.0000
  H   H117      1.0  0.7792752400000001  0.67066559  0.23458405  1.0000
  H   H118      1.0  0.67508235  0.83935974  0.33607813  1.0000
  H   H119      1.0  0.1934078600000001  0.45006651  0.84050339  1.0000
  H   H120      1.0  0.62359838  0.81944822  0.22888084  1.0000
  H   H121      1.0  0.43995336  0.21354765000000006  0.61090012  1.0000
  H   H122      1.0  0.08149243000000002  0.18862276  0.007631239999999999  1.0000
  H   H123      1.0  0.7007043400000001  0.8639608400000002  0.9500524200000001  1.0000
  H   H124      1.0  0.28355664  0.44214646  0.65815612  1.0000
  H   H125      1.0  0.9755698200000003  0.11338791  0.9523110499999999  1.0000
  H   H126      1.0  0.81037983  0.82393506  0.15975302  1.0000
  H   H127      1.0  0.17426566  0.4049416800000001  0.44824524  1.0000
  H   H128      1.0  0.4551995300000001  0.16463708  0.45134724  1.0000
  H   H129      1.0  0.55917764  0.08540511  0.50743142  1.0000
  H   H130      1.0  0.8659659600000001  0.06540207  0.83912277  1.0000
  H   H131      1.0  0.54276049  0.12823488  0.66105745  1.0000
  H   H132      1.0  0.6390690000000001  0.97186862  0.73399323  1.0000
  H   H133      1.0  0.12315675000000002  0.48551369  0.50342545  1.0000
  H   H134      1.0  0.34021481  0.35776863  0.60879924  1.0000
  H   H135      1.0  0.64764544  0.78790098  0.00540465  1.0000
  H   H136      1.0  0.86880499  0.90406088  0.11015384999999998  1.0000
  H   H137      1.0  0.97272118  0.04234291  0.11384874  1.0000
  H   H138      1.0  0.07829994  0.12378921000000001  0.16371196  1.0000
  H   H139      1.0  0.80577231  0.08170113  0.7323933  1.0000
  H   H140      1.0  0.3373802  0.18688845  0.34173496  1.0000
  H   H141      1.0  0.27927524  0.17066559  0.23458405  1.0000
  H   H142      1.0  0.17508235  0.33935974000000013  0.33607813  1.0000
  H   H143      1.0  0.69340786  0.95006651  0.84050339  1.0000
  H   H144      1.0  0.12359838  0.31944822  0.22888084  1.0000
  H   H145      1.0  0.06004664000000002  0.71354765  0.88909988  1.0000
  H   H146      1.0  0.41850757  0.68862276  0.49236876  1.0000
  H   H147      1.0  0.7992956600000001  0.36396084  0.54994758  1.0000
  H   H148      1.0  0.21644336000000003  0.9421464600000001  0.84184388  1.0000
  H   H149      1.0  0.52443018  0.61338791  0.54768895  1.0000
  H   H150      1.0  0.68962017  0.32393506  0.34024698  1.0000
  H   H151      1.0  0.32573434000000007  0.90494168  0.05175476  1.0000
  H   H152      1.0  0.04480047  0.6646370800000001  0.04865276  1.0000
  H   H153      1.0  0.9408223600000001  0.58540511  0.9925685799999999  1.0000
  H   H154      1.0  0.63403404  0.56540207  0.66087723  1.0000
  H   H155      1.0  0.95723951  0.6282348800000003  0.83894255  1.0000
  H   H156      1.0  0.860931  0.47186862  0.7660067699999998  1.0000
  H   H157      1.0  0.37684325  0.98551369  0.9965745499999998  1.0000
  H   H158      1.0  0.15978518999999994  0.85776863  0.89120076  1.0000
  H   H159      1.0  0.8523545600000001  0.28790098  0.49459535  1.0000
  H   H160      1.0  0.63119501  0.40406088  0.38984614999999995  1.0000
  H   H161      1.0  0.52727882  0.5423429100000002  0.38615125999999994  1.0000
  H   H162      1.0  0.42170006  0.62378921  0.33628804  1.0000
  H   H163      1.0  0.6942276900000001  0.5817011300000002  0.7676067000000001  1.0000
  H   H164      1.0  0.1626198  0.68688845  0.15826504  1.0000
  H   H165      1.0  0.22072476000000002  0.67066559  0.26541595  1.0000
  H   H166      1.0  0.32491765  0.83935974  0.16392187  1.0000
  H   H167      1.0  0.80659214  0.45006651  0.65949661  1.0000
  H   H168      1.0  0.3764016200000001  0.81944822  0.27111916  1.0000
  H   H169      1.0  0.56004664  0.21354765000000006  0.88909988  1.0000
  H   H170      1.0  0.91850757  0.18862276  0.49236876  1.0000
  H   H171      1.0  0.29929566  0.8639608400000002  0.54994758  1.0000
  H   H172      1.0  0.71644336  0.44214646  0.84184388  1.0000
  H   H173      1.0  0.024430179999999985  0.11338791  0.54768895  1.0000
  H   H174      1.0  0.18962017  0.82393506  0.34024698  1.0000
  H   H175      1.0  0.82573434  0.4049416800000001  0.05175476  1.0000
  H   H176      1.0  0.54480047  0.16463708  0.04865276  1.0000
  H   H177      1.0  0.44082236  0.08540511  0.9925685799999999  1.0000
  H   H178      1.0  0.13403404000000005  0.06540207  0.66087723  1.0000
  H   H179      1.0  0.45723951  0.12823488  0.83894255  1.0000
  H   H180      1.0  0.3609309999999999  0.97186862  0.7660067699999998  1.0000
  H   H181      1.0  0.87684325  0.48551369  0.9965745499999998  1.0000
  H   H182      1.0  0.6597851899999999  0.35776863  0.89120076  1.0000
  H   H183      1.0  0.35235456  0.78790098  0.49459535  1.0000
  H   H184      1.0  0.13119501000000003  0.90406088  0.38984614999999995  1.0000
  H   H185      1.0  0.027278820000000002  0.04234291  0.38615125999999994  1.0000
  H   H186      1.0  0.92170006  0.12378921000000001  0.33628804  1.0000
  H   H187      1.0  0.1942276900000001  0.08170113  0.7676067000000001  1.0000
  H   H188      1.0  0.6626198  0.18688845  0.15826504  1.0000
  H   H189      1.0  0.7207247600000001  0.17066559  0.26541595  1.0000
  H   H190      1.0  0.8249176500000001  0.33935974000000013  0.16392187  1.0000
  H   H191      1.0  0.30659214  0.95006651  0.65949661  1.0000
  H   H192      1.0  0.87640162  0.31944822  0.27111916  1.0000
  C   C1        1.0  0.12129444999999997  0.2547523  0.50489107  1.0000
  C   C2        1.0  0.03466103000000001  0.31442982000000014  0.41305528  1.0000
  C   C3        1.0  0.44442312000000006  0.34287236  0.96996784  1.0000
  C   C4        1.0  0.59655528  0.47343439  0.0030365399999999995  1.0000
  C   C5        1.0  0.7741681500000002  0.64300015  0.00339043  1.0000
  C   C6        1.0  0.06065182  0.30271216  0.47325154  1.0000
  C   C7        1.0  0.23900201000000001  0.06666965  0.38849127999999994  1.0000
  C   C8        1.0  0.50282406  0.38551707  0.00087306  1.0000
  C   C9        1.0  0.71251399  0.66551074  0.88672849  1.0000
  C   C10       1.0  0.20599415999999995  0.22209999  0.59020919  1.0000
  C   C11       1.0  0.30006328  0.08712215  0.5053347  1.0000
  C   C12       1.0  0.5345044300000001  0.42787915  0.97117727  1.0000
  C   C13       1.0  0.02604305999999999  0.3413797  0.50206498  1.0000
  C   C14       1.0  0.9686115899999999  0.38581099  0.47094106999999996  1.0000
  C   C15       1.0  0.23887634  0.23382856  0.65276193  1.0000
  C   C16       1.0  0.68045498  0.55742119  0.00456814  1.0000
  C   C17       1.0  0.7111474100000001  0.60799199  0.9741782399999999  1.0000
  C   C18       1.0  0.68218951  0.50444137  0.08853656999999998  1.0000
  C   C19       1.0  0.68399119  0.45732465  0.18327646  1.0000
  C   C20       1.0  0.20703353000000002  0.17486657  0.50624167  1.0000
  C   C21       1.0  0.9774717700000002  0.36120506  0.38538355  1.0000
  C   C22       1.0  0.81034801  0.50872604  0.24137544  1.0000
  C   C23       1.0  0.23802459  0.12460844  0.47582014  1.0000
  C   C24       1.0  0.3281111  0.04196971  0.47453543  1.0000
  C   C25       1.0  0.20749071000000002  0.11344336  0.4156489  1.0000
  C   C26       1.0  0.7150392200000001  0.49515096  0.15115362  1.0000
  C   C27       1.0  0.80335941  0.68541374  0.97269235  1.0000
  C   C28       1.0  0.68002132  0.62157917  0.91409598  1.0000
  C   C29       1.0  0.50430803  0.42504888  0.91061952  1.0000
  C   C30       1.0  0.44613214  0.37998969  0.88319995  1.0000
  C   C31       1.0  0.7176807800000001  0.4479762100000001  0.24244321  1.0000
  C   C32       1.0  0.20974074  0.28239994000000007  0.68233602  1.0000
  C   C33       1.0  0.24185649000000004  0.29122339  0.7415150699999999  1.0000
  C   C34       1.0  0.30089281  0.19832306  0.68549328  1.0000
  C   C35       1.0  0.7802531000000001  0.52123065  0.18235417  1.0000
  C   C36       1.0  0.32928957000000003  0.20984549  0.7446699200000001  1.0000
  C   C37       1.0  0.62129445  0.7547523  0.50489107  1.0000
  C   C38       1.0  0.53466103  0.81442982  0.41305528  1.0000
  C   C39       1.0  0.94442312  0.8428723600000002  0.96996784  1.0000
  C   C40       1.0  0.09655528000000001  0.97343439  0.0030365399999999995  1.0000
  C   C41       1.0  0.27416815  0.14300015  0.00339043  1.0000
  C   C42       1.0  0.56065182  0.80271216  0.47325154  1.0000
  C   C43       1.0  0.7390020099999998  0.56666965  0.38849127999999994  1.0000
  C   C44       1.0  0.0028240600000000006  0.88551707  0.00087306  1.0000
  C   C45       1.0  0.21251399  0.16551074  0.88672849  1.0000
  C   C46       1.0  0.70599416  0.72209999  0.59020919  1.0000
  C   C47       1.0  0.80006328  0.58712215  0.5053347  1.0000
  C   C48       1.0  0.03450443000000003  0.92787915  0.97117727  1.0000
  C   C49       1.0  0.52604306  0.8413797  0.50206498  1.0000
  C   C50       1.0  0.46861159  0.88581099  0.47094106999999996  1.0000
  C   C51       1.0  0.73887634  0.73382856  0.65276193  1.0000
  C   C52       1.0  0.18045498  0.057421190000000004  0.00456814  1.0000
  C   C53       1.0  0.2111474099999999  0.10799199000000002  0.9741782399999999  1.0000
  C   C54       1.0  0.18218951000000003  0.00444137  0.08853656999999998  1.0000
  C   C55       1.0  0.18399119  0.9573246500000002  0.18327646  1.0000
  C   C56       1.0  0.70703353  0.67486657  0.50624167  1.0000
  C   C57       1.0  0.47747177  0.86120506  0.38538355  1.0000
  C   C58       1.0  0.3103480100000001  0.00872604  0.24137544  1.0000
  C   C59       1.0  0.73802459  0.6246084400000002  0.47582014  1.0000
  C   C60       1.0  0.8281111  0.54196971  0.47453543  1.0000
  C   C61       1.0  0.70749071  0.61344336  0.4156489  1.0000
  C   C62       1.0  0.21503922000000003  0.99515096  0.15115362  1.0000
  C   C63       1.0  0.30335941  0.18541374  0.97269235  1.0000
  C   C64       1.0  0.18002131999999993  0.12157917  0.91409598  1.0000
  C   C65       1.0  0.0043080299999999575  0.92504888  0.91061952  1.0000
  C   C66       1.0  0.94613214  0.8799896900000002  0.88319995  1.0000
  C   C67       1.0  0.21768078  0.94797621  0.24244321  1.0000
  C   C68       1.0  0.70974074  0.78239994  0.68233602  1.0000
  C   C69       1.0  0.7418564900000001  0.79122339  0.7415150699999999  1.0000
  C   C70       1.0  0.8008928100000001  0.69832306  0.68549328  1.0000
  C   C71       1.0  0.2802531  0.02123065  0.18235417  1.0000
  C   C72       1.0  0.82928957  0.7098454900000002  0.7446699200000001  1.0000
  C   C73       1.0  0.87870555  0.2547523  0.99510893  1.0000
  C   C74       1.0  0.96533897  0.31442982000000014  0.08694472  1.0000
  C   C75       1.0  0.55557688  0.34287236  0.53003216  1.0000
  C   C76       1.0  0.40344472000000003  0.47343439  0.49696346  1.0000
  C   C77       1.0  0.22583185  0.64300015  0.49660957  1.0000
  C   C78       1.0  0.93934818  0.30271216  0.026748459999999998  1.0000
  C   C79       1.0  0.76099799  0.06666965  0.11150871999999999  1.0000
  C   C80       1.0  0.49717594000000004  0.38551707  0.49912694  1.0000
  C   C81       1.0  0.28748601  0.66551074  0.61327151  1.0000
  C   C82       1.0  0.79400584  0.22209999  0.90979081  1.0000
  C   C83       1.0  0.6999367200000002  0.08712215  0.9946653000000001  1.0000
  C   C84       1.0  0.4654955700000001  0.42787915  0.52882273  1.0000
  C   C85       1.0  0.97395694  0.3413797  0.9979350199999999  1.0000
  C   C86       1.0  0.03138841  0.38581099  0.02905893  1.0000
  C   C87       1.0  0.7611236600000001  0.23382856  0.8472380699999998  1.0000
  C   C88       1.0  0.31954502  0.55742119  0.49543185999999995  1.0000
  C   C89       1.0  0.28885259  0.60799199  0.52582176  1.0000
  C   C90       1.0  0.31781049  0.50444137  0.41146343  1.0000
  C   C91       1.0  0.31600881  0.45732465  0.31672354  1.0000
  C   C92       1.0  0.7929664700000001  0.17486657  0.9937583300000001  1.0000
  C   C93       1.0  0.02252823  0.36120506  0.11461645  1.0000
  C   C94       1.0  0.18965199  0.50872604  0.25862456  1.0000
  C   C95       1.0  0.76197541  0.12460844  0.024179859999999997  1.0000
  C   C96       1.0  0.6718889  0.04196971  0.02546457  1.0000
  C   C97       1.0  0.79250929  0.11344336  0.0843511  1.0000
  C   C98       1.0  0.28496078  0.49515096  0.34884638  1.0000
  C   C99       1.0  0.19664059  0.68541374  0.52730765  1.0000
  C   C100      1.0  0.31997868  0.62157917  0.58590402  1.0000
  C   C101      1.0  0.49569197  0.42504888  0.58938048  1.0000
  C   C102      1.0  0.55386786  0.37998969  0.61680005  1.0000
  C   C103      1.0  0.28231922  0.4479762100000001  0.25755679  1.0000
  C   C104      1.0  0.79025926  0.28239994000000007  0.81766398  1.0000
  C   C105      1.0  0.75814351  0.29122339  0.75848493  1.0000
  C   C106      1.0  0.6991071900000001  0.19832306  0.81450672  1.0000
  C   C107      1.0  0.21974690000000002  0.52123065  0.31764583  1.0000
  C   C108      1.0  0.67071043  0.20984549  0.75533008  1.0000
  C   C109      1.0  0.37870555  0.7547523  0.99510893  1.0000
  C   C110      1.0  0.46533897000000013  0.81442982  0.08694472  1.0000
  C   C111      1.0  0.05557688000000001  0.8428723600000002  0.53003216  1.0000
  C   C112      1.0  0.90344472  0.97343439  0.49696346  1.0000
  C   C113      1.0  0.72583185  0.14300015  0.49660957  1.0000
  C   C114      1.0  0.43934818  0.80271216  0.026748459999999998  1.0000
  C   C115      1.0  0.26099799  0.56666965  0.11150871999999999  1.0000
  C   C116      1.0  0.9971759400000001  0.88551707  0.49912694  1.0000
  C   C117      1.0  0.78748601  0.16551074  0.61327151  1.0000
  C   C118      1.0  0.29400584000000013  0.72209999  0.90979081  1.0000
  C   C119      1.0  0.19993672000000018  0.58712215  0.9946653000000001  1.0000
  C   C120      1.0  0.96549557  0.92787915  0.52882273  1.0000
  C   C121      1.0  0.47395693999999994  0.8413797  0.9979350199999999  1.0000
  C   C122      1.0  0.53138841  0.88581099  0.02905893  1.0000
  C   C123      1.0  0.2611236599999999  0.73382856  0.8472380699999998  1.0000
  C   C124      1.0  0.8195450200000002  0.057421190000000004  0.49543185999999995  1.0000
  C   C125      1.0  0.7888525900000001  0.10799199000000002  0.52582176  1.0000
  C   C126      1.0  0.81781049  0.00444137  0.41146343  1.0000
  C   C127      1.0  0.81600881  0.9573246500000002  0.31672354  1.0000
  C   C128      1.0  0.29296647000000015  0.67486657  0.9937583300000001  1.0000
  C   C129      1.0  0.52252823  0.86120506  0.11461645  1.0000
  C   C130      1.0  0.68965199  0.00872604  0.25862456  1.0000
  C   C131      1.0  0.26197541  0.6246084400000002  0.024179859999999997  1.0000
  C   C132      1.0  0.1718889  0.54196971  0.02546457  1.0000
  C   C133      1.0  0.29250929  0.61344336  0.0843511  1.0000
  C   C134      1.0  0.7849607800000001  0.99515096  0.34884638  1.0000
  C   C135      1.0  0.69664059  0.18541374  0.52730765  1.0000
  C   C136      1.0  0.81997868  0.12157917  0.58590402  1.0000
  C   C137      1.0  0.99569197  0.92504888  0.58938048  1.0000
  C   C138      1.0  0.05386785999999999  0.8799896900000002  0.61680005  1.0000
  C   C139      1.0  0.78231922  0.94797621  0.25755679  1.0000
  C   C140      1.0  0.29025926  0.78239994  0.81766398  1.0000
  C   C141      1.0  0.25814350999999996  0.79122339  0.75848493  1.0000
  C   C142      1.0  0.19910719  0.69832306  0.81450672  1.0000
  C   C143      1.0  0.7197469000000001  0.02123065  0.31764583  1.0000
  C   C144      1.0  0.17071043000000005  0.7098454900000002  0.75533008  1.0000
  C   C145      1.0  0.87870555  0.7452477  0.49510893  1.0000
  C   C146      1.0  0.96533897  0.68557018  0.58694472  1.0000
  C   C147      1.0  0.55557688  0.65712764  0.03003216  1.0000
  C   C148      1.0  0.40344472000000003  0.52656561  0.99696346  1.0000
  C   C149      1.0  0.22583185  0.35699985  0.99660957  1.0000
  C   C150      1.0  0.93934818  0.69728784  0.52674846  1.0000
  C   C151      1.0  0.76099799  0.9333303500000002  0.61150872  1.0000
  C   C152      1.0  0.49717594000000004  0.61448293  0.9991269399999999  1.0000
  C   C153      1.0  0.28748600999999996  0.33448926  0.11327151  1.0000
  C   C154      1.0  0.79400584  0.77790001  0.40979081  1.0000
  C   C155      1.0  0.69993672  0.91287785  0.4946653  1.0000
  C   C156      1.0  0.4654955700000001  0.57212085  0.02882273  1.0000
  C   C157      1.0  0.97395694  0.6586203  0.49793502  1.0000
  C   C158      1.0  0.03138840999999998  0.61418901  0.52905893  1.0000
  C   C159      1.0  0.7611236600000001  0.7661714400000003  0.34723806999999995  1.0000
  C   C160      1.0  0.31954502000000007  0.44257881  0.9954318599999998  1.0000
  C   C161      1.0  0.28885259  0.39200801  0.02582176  1.0000
  C   C162      1.0  0.3178104900000001  0.49555863  0.91146343  1.0000
  C   C163      1.0  0.31600881  0.54267535  0.81672354  1.0000
  C   C164      1.0  0.79296647  0.82513343  0.49375833  1.0000
  C   C165      1.0  0.02252822999999998  0.63879494  0.61461645  1.0000
  C   C166      1.0  0.18965199  0.49127396  0.7586245599999999  1.0000
  C   C167      1.0  0.76197541  0.87539156  0.52417986  1.0000
  C   C168      1.0  0.6718889  0.95803029  0.52546457  1.0000
  C   C169      1.0  0.79250929  0.88655664  0.5843511  1.0000
  C   C170      1.0  0.28496078  0.50484904  0.8488463799999999  1.0000
  C   C171      1.0  0.19664059  0.31458626  0.027307650000000003  1.0000
  C   C172      1.0  0.31997868  0.37842083  0.08590402  1.0000
  C   C173      1.0  0.49569197  0.57495112  0.08938048  1.0000
  C   C174      1.0  0.55386786  0.62001031  0.11680004999999999  1.0000
  C   C175      1.0  0.28231922000000015  0.55202379  0.7575567900000001  1.0000
  C   C176      1.0  0.79025926  0.71760006  0.31766398  1.0000
  C   C177      1.0  0.75814351  0.70877661  0.25848493  1.0000
  C   C178      1.0  0.6991071900000001  0.80167694  0.31450672  1.0000
  C   C179      1.0  0.21974689999999994  0.4787693500000001  0.81764583  1.0000
  C   C180      1.0  0.67071043  0.79015451  0.25533008  1.0000
  C   C181      1.0  0.37870555  0.2452477  0.49510893  1.0000
  C   C182      1.0  0.46533897000000013  0.18557018  0.58694472  1.0000
  C   C183      1.0  0.05557688000000001  0.15712764  0.03003216  1.0000
  C   C184      1.0  0.90344472  0.02656561  0.99696346  1.0000
  C   C185      1.0  0.72583185  0.85699985  0.99660957  1.0000
  C   C186      1.0  0.43934818  0.19728784  0.52674846  1.0000
  C   C187      1.0  0.26099799  0.43333035  0.61150872  1.0000
  C   C188      1.0  0.9971759400000001  0.11448293  0.9991269399999999  1.0000
  C   C189      1.0  0.78748601  0.8344892600000002  0.11327151  1.0000
  C   C190      1.0  0.29400584  0.27790001  0.40979081  1.0000
  C   C191      1.0  0.19993672000000004  0.41287785  0.4946653  1.0000
  C   C192      1.0  0.96549557  0.07212085000000003  0.02882273  1.0000
  C   C193      1.0  0.47395694000000005  0.15862030000000005  0.49793502  1.0000
  C   C194      1.0  0.53138841  0.11418901  0.52905893  1.0000
  C   C195      1.0  0.26112366  0.26617144  0.34723806999999995  1.0000
  C   C196      1.0  0.8195450200000002  0.94257881  0.9954318599999998  1.0000
  C   C197      1.0  0.7888525900000001  0.8920080100000002  0.02582176  1.0000
  C   C198      1.0  0.81781049  0.99555863  0.91146343  1.0000
  C   C199      1.0  0.81600881  0.04267535  0.81672354  1.0000
  C   C200      1.0  0.29296647  0.32513343  0.49375833  1.0000
  C   C201      1.0  0.52252823  0.13879494  0.61461645  1.0000
  C   C202      1.0  0.68965199  0.99127396  0.7586245599999999  1.0000
  C   C203      1.0  0.26197541  0.37539156  0.52417986  1.0000
  C   C204      1.0  0.1718889  0.45803029  0.52546457  1.0000
  C   C205      1.0  0.29250929  0.38655664  0.5843511  1.0000
  C   C206      1.0  0.7849607799999999  0.00484904  0.8488463799999999  1.0000
  C   C207      1.0  0.69664059  0.81458626  0.027307650000000003  1.0000
  C   C208      1.0  0.81997868  0.87842083  0.08590402  1.0000
  C   C209      1.0  0.99569197  0.07495112  0.08938048  1.0000
  C   C210      1.0  0.05386785999999999  0.12001031000000002  0.11680004999999999  1.0000
  C   C211      1.0  0.7823192200000002  0.05202379  0.7575567900000001  1.0000
  C   C212      1.0  0.29025926  0.21760006  0.31766398  1.0000
  C   C213      1.0  0.25814351  0.20877661000000006  0.25848493  1.0000
  C   C214      1.0  0.19910719  0.30167694  0.31450672  1.0000
  C   C215      1.0  0.7197469000000001  0.97876935  0.81764583  1.0000
  C   C216      1.0  0.17071042999999997  0.29015451  0.25533008  1.0000
  C   C217      1.0  0.12129445000000001  0.7452477  0.00489107  1.0000
  C   C218      1.0  0.034661030000000044  0.68557018  0.9130552800000001  1.0000
  C   C219      1.0  0.44442312000000006  0.65712764  0.46996783999999997  1.0000
  C   C220      1.0  0.59655528  0.52656561  0.50303654  1.0000
  C   C221      1.0  0.7741681500000002  0.35699985  0.50339043  1.0000
  C   C222      1.0  0.060651820000000044  0.69728784  0.97325154  1.0000
  C   C223      1.0  0.23900201000000001  0.9333303500000002  0.88849128  1.0000
  C   C224      1.0  0.50282406  0.61448293  0.50087306  1.0000
  C   C225      1.0  0.71251399  0.33448926  0.38672849  1.0000
  C   C226      1.0  0.20599416  0.77790001  0.09020919  1.0000
  C   C227      1.0  0.30006328  0.91287785  0.0053347  1.0000
  C   C228      1.0  0.53450443  0.57212085  0.47117727  1.0000
  C   C229      1.0  0.02604306  0.6586203  0.00206498  1.0000
  C   C230      1.0  0.96861159  0.61418901  0.9709410699999999  1.0000
  C   C231      1.0  0.23887634  0.7661714400000003  0.15276193  1.0000
  C   C232      1.0  0.68045498  0.44257881  0.50456814  1.0000
  C   C233      1.0  0.7111474100000001  0.39200801  0.47417824  1.0000
  C   C234      1.0  0.68218951  0.49555863  0.58853657  1.0000
  C   C235      1.0  0.68399119  0.54267535  0.68327646  1.0000
  C   C236      1.0  0.20703353000000002  0.82513343  0.0062416699999999995  1.0000
  C   C237      1.0  0.9774717700000002  0.63879494  0.88538355  1.0000
  C   C238      1.0  0.81034801  0.49127396  0.74137544  1.0000
  C   C239      1.0  0.23802458999999992  0.87539156  0.97582014  1.0000
  C   C240      1.0  0.3281111  0.95803029  0.9745354299999999  1.0000
  C   C241      1.0  0.20749070999999994  0.88655664  0.9156489  1.0000
  C   C242      1.0  0.7150392200000001  0.50484904  0.65115362  1.0000
  C   C243      1.0  0.80335941  0.31458626  0.47269235000000004  1.0000
  C   C244      1.0  0.68002132  0.37842083  0.41409598  1.0000
  C   C245      1.0  0.50430803  0.57495112  0.41061951999999996  1.0000
  C   C246      1.0  0.44613214  0.62001031  0.38319995  1.0000
  C   C247      1.0  0.7176807800000001  0.55202379  0.74244321  1.0000
  C   C248      1.0  0.20974074  0.71760006  0.18233602  1.0000
  C   C249      1.0  0.24185649  0.70877661  0.24151507  1.0000
  C   C250      1.0  0.30089281  0.80167694  0.18549328  1.0000
  C   C251      1.0  0.7802531000000001  0.4787693500000001  0.68235417  1.0000
  C   C252      1.0  0.32928957  0.79015451  0.24466992  1.0000
  C   C253      1.0  0.62129445  0.2452477  0.00489107  1.0000
  C   C254      1.0  0.53466103  0.18557018  0.9130552800000001  1.0000
  C   C255      1.0  0.94442312  0.15712764  0.46996783999999997  1.0000
  C   C256      1.0  0.09655528000000001  0.02656561  0.50303654  1.0000
  C   C257      1.0  0.27416815  0.85699985  0.50339043  1.0000
  C   C258      1.0  0.5606518200000001  0.19728784  0.97325154  1.0000
  C   C259      1.0  0.73900201  0.43333035  0.88849128  1.0000
  C   C260      1.0  0.0028240600000000223  0.11448293  0.50087306  1.0000
  C   C261      1.0  0.21251399  0.8344892600000002  0.38672849  1.0000
  C   C262      1.0  0.70599416  0.27790001  0.09020919  1.0000
  C   C263      1.0  0.80006328  0.41287785  0.0053347  1.0000
  C   C264      1.0  0.034504429999999996  0.07212085000000003  0.47117727  1.0000
  C   C265      1.0  0.52604306  0.15862030000000005  0.00206498  1.0000
  C   C266      1.0  0.46861159  0.11418901  0.9709410699999999  1.0000
  C   C267      1.0  0.73887634  0.26617144  0.15276193  1.0000
  C   C268      1.0  0.18045498  0.94257881  0.50456814  1.0000
  C   C269      1.0  0.21114741  0.8920080100000002  0.47417824  1.0000
  C   C270      1.0  0.18218951000000005  0.99555863  0.58853657  1.0000
  C   C271      1.0  0.18399119000000003  0.04267535  0.68327646  1.0000
  C   C272      1.0  0.70703353  0.32513343  0.0062416699999999995  1.0000
  C   C273      1.0  0.47747177  0.13879494  0.88538355  1.0000
  C   C274      1.0  0.31034801  0.99127396  0.74137544  1.0000
  C   C275      1.0  0.73802459  0.37539156  0.97582014  1.0000
  C   C276      1.0  0.8281111  0.45803029  0.9745354299999999  1.0000
  C   C277      1.0  0.70749071  0.38655664  0.9156489  1.0000
  C   C278      1.0  0.21503922000000003  0.00484904  0.65115362  1.0000
  C   C279      1.0  0.3033594100000001  0.81458626  0.47269235000000004  1.0000
  C   C280      1.0  0.18002132  0.87842083  0.41409598  1.0000
  C   C281      1.0  0.0043080299999999575  0.07495112  0.41061951999999996  1.0000
  C   C282      1.0  0.94613214  0.12001031000000002  0.38319995  1.0000
  C   C283      1.0  0.21768078000000007  0.05202379  0.74244321  1.0000
  C   C284      1.0  0.70974074  0.21760006  0.18233602  1.0000
  C   C285      1.0  0.7418564900000001  0.20877661000000006  0.24151507  1.0000
  C   C286      1.0  0.8008928100000001  0.30167694  0.18549328  1.0000
  C   C287      1.0  0.2802531  0.97876935  0.68235417  1.0000
  C   C288      1.0  0.82928957  0.29015451  0.24466992  1.0000
  N   N1        1.0  0.94295925  0.39611023  0.41279576  1.0000
  N   N2        1.0  0.29890038  0.03117445  0.4167403  1.0000
  N   N3        1.0  0.30071273  0.25490891  0.77332466  1.0000
  N   N4        1.0  0.14603733000000005  0.2571195  0.56309264  1.0000
  N   N5        1.0  0.14937479999999997  0.21383783  0.47438041999999997  1.0000
  N   N6        1.0  0.23844343000000004  0.17922374  0.56441497  1.0000
  N   N7        1.0  0.41578794  0.33881633  0.9119241899999999  1.0000
  N   N8        1.0  0.77414955  0.69636885  0.91468671  1.0000
  N   N9        1.0  0.78047613  0.47296788  0.27243187  1.0000
  N   N10       1.0  0.62380814  0.46462566  0.06086366  1.0000
  N   N11       1.0  0.6221633  0.51947475  0.97252481  1.0000
  N   N12       1.0  0.7127847600000002  0.55109157  0.06241031  1.0000
  N   N13       1.0  0.44295925  0.89611023  0.41279576  1.0000
  N   N14       1.0  0.7989003800000001  0.53117445  0.4167403  1.0000
  N   N15       1.0  0.8007127300000001  0.75490891  0.77332466  1.0000
  N   N16       1.0  0.64603733  0.7571195  0.56309264  1.0000
  N   N17       1.0  0.6493747999999999  0.71383783  0.47438041999999997  1.0000
  N   N18       1.0  0.73844343  0.67922374  0.56441497  1.0000
  N   N19       1.0  0.91578794  0.83881633  0.9119241899999999  1.0000
  N   N20       1.0  0.27414955  0.19636885  0.91468671  1.0000
  N   N21       1.0  0.28047613000000005  0.9729678800000001  0.27243187  1.0000
  N   N22       1.0  0.12380814000000001  0.96462566  0.06086366  1.0000
  N   N23       1.0  0.12216330000000003  0.01947475  0.97252481  1.0000
  N   N24       1.0  0.21278476000000002  0.05109157  0.06241031  1.0000
  N   N25       1.0  0.05704075  0.39611023  0.08720424  1.0000
  N   N26       1.0  0.70109962  0.03117445  0.0832597  1.0000
  N   N27       1.0  0.69928727  0.25490891  0.72667534  1.0000
  N   N28       1.0  0.85396267  0.2571195  0.9369073599999999  1.0000
  N   N29       1.0  0.8506252000000002  0.21383783  0.02561958  1.0000
  N   N30       1.0  0.76155657  0.17922374  0.93558503  1.0000
  N   N31       1.0  0.58421206  0.33881633  0.58807581  1.0000
  N   N32       1.0  0.22585045  0.69636885  0.58531329  1.0000
  N   N33       1.0  0.21952387  0.47296788  0.22756813  1.0000
  N   N34       1.0  0.37619186  0.46462566  0.43913634  1.0000
  N   N35       1.0  0.3778367  0.51947475  0.52747519  1.0000
  N   N36       1.0  0.28721524  0.55109157  0.4375896899999999  1.0000
  N   N37       1.0  0.55704075  0.89611023  0.08720424  1.0000
  N   N38       1.0  0.20109962000000003  0.53117445  0.0832597  1.0000
  N   N39       1.0  0.19928727000000004  0.75490891  0.72667534  1.0000
  N   N40       1.0  0.35396266999999987  0.7571195  0.9369073599999999  1.0000
  N   N41       1.0  0.3506252000000001  0.71383783  0.02561958  1.0000
  N   N42       1.0  0.2615565700000001  0.67922374  0.93558503  1.0000
  N   N43       1.0  0.08421206  0.83881633  0.58807581  1.0000
  N   N44       1.0  0.72585045  0.19636885  0.58531329  1.0000
  N   N45       1.0  0.71952387  0.9729678800000001  0.22756813  1.0000
  N   N46       1.0  0.87619186  0.96462566  0.43913634  1.0000
  N   N47       1.0  0.8778367000000001  0.01947475  0.52747519  1.0000
  N   N48       1.0  0.7872152400000001  0.05109157  0.4375896899999999  1.0000
  N   N49       1.0  0.05704075000000001  0.60388977  0.58720424  1.0000
  N   N50       1.0  0.70109962  0.96882555  0.5832597  1.0000
  N   N51       1.0  0.69928727  0.74509109  0.22667533999999998  1.0000
  N   N52       1.0  0.85396267  0.7428805  0.43690735999999997  1.0000
  N   N53       1.0  0.8506252000000002  0.78616217  0.52561958  1.0000
  N   N54       1.0  0.76155657  0.8207762600000001  0.43558503000000004  1.0000
  N   N55       1.0  0.58421206  0.66118367  0.08807581  1.0000
  N   N56       1.0  0.22585045  0.30363115  0.08531329  1.0000
  N   N57       1.0  0.21952387  0.52703212  0.72756813  1.0000
  N   N58       1.0  0.37619186  0.53537434  0.93913634  1.0000
  N   N59       1.0  0.3778367  0.48052525  0.02747519  1.0000
  N   N60       1.0  0.28721524000000004  0.44890843000000014  0.93758969  1.0000
  N   N61       1.0  0.55704075  0.10388977  0.58720424  1.0000
  N   N62       1.0  0.20109962000000003  0.4688255500000001  0.5832597  1.0000
  N   N63       1.0  0.19928727000000004  0.24509109  0.22667533999999998  1.0000
  N   N64       1.0  0.35396267  0.2428805  0.43690735999999997  1.0000
  N   N65       1.0  0.3506252000000001  0.28616217  0.52561958  1.0000
  N   N66       1.0  0.26155657000000004  0.32077626  0.43558503000000004  1.0000
  N   N67       1.0  0.08421206  0.16118367  0.08807581  1.0000
  N   N68       1.0  0.72585045  0.80363115  0.08531329  1.0000
  N   N69       1.0  0.71952387  0.02703212  0.72756813  1.0000
  N   N70       1.0  0.87619186  0.03537434  0.93913634  1.0000
  N   N71       1.0  0.8778367000000001  0.98052525  0.02747519  1.0000
  N   N72       1.0  0.7872152400000001  0.94890843  0.93758969  1.0000
  N   N73       1.0  0.94295925  0.60388977  0.91279576  1.0000
  N   N74       1.0  0.29890038  0.96882555  0.9167403  1.0000
  N   N75       1.0  0.30071273  0.74509109  0.27332466  1.0000
  N   N76       1.0  0.14603733  0.7428805  0.06309264  1.0000
  N   N77       1.0  0.14937479999999997  0.78616217  0.97438042  1.0000
  N   N78       1.0  0.23844343000000004  0.8207762600000001  0.06441497  1.0000
  N   N79       1.0  0.41578794  0.66118367  0.41192419  1.0000
  N   N80       1.0  0.77414955  0.30363115  0.41468670999999996  1.0000
  N   N81       1.0  0.78047613  0.52703212  0.7724318700000001  1.0000
  N   N82       1.0  0.62380814  0.53537434  0.56086366  1.0000
  N   N83       1.0  0.6221633  0.48052525  0.47252480999999996  1.0000
  N   N84       1.0  0.7127847600000002  0.44890843000000014  0.56241031  1.0000
  N   N85       1.0  0.44295925  0.10388977  0.91279576  1.0000
  N   N86       1.0  0.7989003800000001  0.4688255500000001  0.9167403  1.0000
  N   N87       1.0  0.8007127300000001  0.24509109  0.27332466  1.0000
  N   N88       1.0  0.64603733  0.2428805  0.06309264  1.0000
  N   N89       1.0  0.6493747999999999  0.28616217  0.97438042  1.0000
  N   N90       1.0  0.73844343  0.32077626  0.06441497  1.0000
  N   N91       1.0  0.91578794  0.16118367  0.41192419  1.0000
  N   N92       1.0  0.27414955  0.80363115  0.41468670999999996  1.0000
  N   N93       1.0  0.28047613000000005  0.02703212  0.7724318700000001  1.0000
  N   N94       1.0  0.12380814  0.03537434  0.56086366  1.0000
  N   N95       1.0  0.12216330000000002  0.98052525  0.47252480999999996  1.0000
  N   N96       1.0  0.21278476000000002  0.94890843  0.56241031  1.0000
