data_image0
_chemical_formula_structural       Ag16H192C288N96
_chemical_formula_sum              "Ag16 H192 C288 N96"
_cell_length_a       22.58826637
_cell_length_b       15.34701
_cell_length_c       25.60616829
_cell_angle_alpha    90.0
_cell_angle_beta     115.02053320999998
_cell_angle_gamma    90.0

_symmetry_space_group_name_H-M    'P 1'
_symmetry_Int_Tables_number       1

loop_
  _symmetry_equiv_pos_as_xyz
  'x,y,z'

loop_
  _atom_site_type_symbol
  _atom_site_label
  _atom_site_symmetry_multiplicity
  _atom_site_fract_x
  _atom_site_fract_y
  _atom_site_fract_z
  _atom_site_occupancy
  Ag  Ag1       1.0  0.34247136  0.5505375599999999  0.3669951  1.0000
  Ag  Ag2       1.0  0.3276510500000001  0.25079054  0.8681841200000001  1.0000
  Ag  Ag3       1.0  0.84247136  0.05053756  0.3669951  1.0000
  Ag  Ag4       1.0  0.8276510500000003  0.75079054  0.8681841200000001  1.0000
  Ag  Ag5       1.0  0.65752864  0.5505375599999999  0.1330049  1.0000
  Ag  Ag6       1.0  0.67234895  0.25079054  0.63181588  1.0000
  Ag  Ag7       1.0  0.15752864  0.05053756  0.1330049  1.0000
  Ag  Ag8       1.0  0.17234895  0.75079054  0.63181588  1.0000
  Ag  Ag9       1.0  0.65752864  0.44946244  0.6330049  1.0000
  Ag  Ag10      1.0  0.67234895  0.74920946  0.13181588  1.0000
  Ag  Ag11      1.0  0.15752864  0.94946244  0.6330049  1.0000
  Ag  Ag12      1.0  0.17234895  0.24920946  0.13181588  1.0000
  Ag  Ag13      1.0  0.34247136000000006  0.44946244  0.8669951000000001  1.0000
  Ag  Ag14      1.0  0.32765105  0.74920946  0.36818412  1.0000
  Ag  Ag15      1.0  0.84247136  0.94946244  0.8669951000000001  1.0000
  Ag  Ag16      1.0  0.82765105  0.24920946  0.36818412  1.0000
  H   H1        1.0  0.21546577  0.44253614  0.34195774  1.0000
  H   H2        1.0  0.059932080000000006  0.21341283  0.38905444  1.0000
  H   H3        1.0  0.6906867400000001  0.82714239  0.8411225200000001  1.0000
  H   H4        1.0  0.79973694  0.86438284  0.05120812000000001  1.0000
  H   H5        1.0  0.4183148300000001  0.18903615  0.99169403  1.0000
  H   H6        1.0  0.04526349  0.16526621  0.54868168  1.0000
  H   H7        1.0  0.32555888  0.4052360299999999  0.55193383  1.0000
  H   H8        1.0  0.5247263200000001  0.11403307  0.04719983  1.0000
  H   H9        1.0  0.94045529  0.08714527  0.49267096000000005  1.0000
  H   H10       1.0  0.63300957  0.0656712  0.16017699  1.0000
  H   H11       1.0  0.3766207  0.48582818  0.4967700500000001  1.0000
  H   H12       1.0  0.86080882  0.97249815  0.26674911  1.0000
  H   H13       1.0  0.15897587999999996  0.35805601  0.39140206  1.0000
  H   H14       1.0  0.95642741  0.12920261  0.33891121  1.0000
  H   H15       1.0  0.85303964  0.78864031  0.99608877  1.0000
  H   H16       1.0  0.6929233  0.08175143  0.26721207  1.0000
  H   H17       1.0  0.32512426  0.3398990899999999  0.66421936  1.0000
  H   H18       1.0  0.52692573  0.04181734  0.88594498  1.0000
  H   H19       1.0  0.42103339999999995  0.12327227  0.83576001  1.0000
  H   H20       1.0  0.22136237  0.16915381  0.76471772  1.0000
  H   H21       1.0  0.16387258  0.1844895  0.65729195  1.0000
  H   H22       1.0  0.3761413800000001  0.32103688  0.77161851  1.0000
  H   H23       1.0  0.63199431  0.90676922  0.89061522  1.0000
  H   H24       1.0  0.80661501  0.95100572  0.16001041  1.0000
  H   H25       1.0  0.71546577  0.94253614  0.34195774  1.0000
  H   H26       1.0  0.55993208  0.71341283  0.38905444  1.0000
  H   H27       1.0  0.1906867400000001  0.3271423899999999  0.8411225200000001  1.0000
  H   H28       1.0  0.29973694  0.36438284  0.05120812000000001  1.0000
  H   H29       1.0  0.91831483  0.68903615  0.99169403  1.0000
  H   H30       1.0  0.54526349  0.66526621  0.54868168  1.0000
  H   H31       1.0  0.8255588799999999  0.90523603  0.55193383  1.0000
  H   H32       1.0  0.024726320000000003  0.61403307  0.04719983  1.0000
  H   H33       1.0  0.44045529000000005  0.58714527  0.49267096000000005  1.0000
  H   H34       1.0  0.13300957  0.5656712  0.16017699  1.0000
  H   H35       1.0  0.8766207000000001  0.9858281799999999  0.4967700500000001  1.0000
  H   H36       1.0  0.36080882  0.4724981499999999  0.26674911  1.0000
  H   H37       1.0  0.6589758799999998  0.85805601  0.39140206  1.0000
  H   H38       1.0  0.45642741  0.62920261  0.33891121  1.0000
  H   H39       1.0  0.35303964  0.28864031  0.99608877  1.0000
  H   H40       1.0  0.19292329999999996  0.58175143  0.26721207  1.0000
  H   H41       1.0  0.82512426  0.83989909  0.66421936  1.0000
  H   H42       1.0  0.026925729999999943  0.54181734  0.88594498  1.0000
  H   H43       1.0  0.9210334  0.6232722699999999  0.83576001  1.0000
  H   H44       1.0  0.72136237  0.66915381  0.76471772  1.0000
  H   H45       1.0  0.66387258  0.6844895  0.65729195  1.0000
  H   H46       1.0  0.87614138  0.82103688  0.77161851  1.0000
  H   H47       1.0  0.1319943100000001  0.40676922  0.89061522  1.0000
  H   H48       1.0  0.3066150100000001  0.45100572  0.16001041  1.0000
  H   H49       1.0  0.78453423  0.44253614  0.15804226000000002  1.0000
  H   H50       1.0  0.94006792  0.21341283  0.11094556  1.0000
  H   H51       1.0  0.30931326  0.82714239  0.65887748  1.0000
  H   H52       1.0  0.20026306  0.86438284  0.44879188  1.0000
  H   H53       1.0  0.58168517  0.18903615  0.50830597  1.0000
  H   H54       1.0  0.9547365100000001  0.16526621  0.95131832  1.0000
  H   H55       1.0  0.6744411200000001  0.4052360299999999  0.94806617  1.0000
  H   H56       1.0  0.47527368  0.11403307  0.45280017  1.0000
  H   H57       1.0  0.05954471  0.08714527  0.00732904  1.0000
  H   H58       1.0  0.36699043  0.0656712  0.33982301  1.0000
  H   H59       1.0  0.6233793  0.48582818  0.00322995  1.0000
  H   H60       1.0  0.13919118  0.97249815  0.23325089  1.0000
  H   H61       1.0  0.8410241199999999  0.35805601  0.10859794  1.0000
  H   H62       1.0  0.04357259  0.12920261  0.16108879  1.0000
  H   H63       1.0  0.14696036  0.78864031  0.50391123  1.0000
  H   H64       1.0  0.3070767  0.08175143  0.23278793  1.0000
  H   H65       1.0  0.67487574  0.3398990899999999  0.8357806400000001  1.0000
  H   H66       1.0  0.4730742700000001  0.04181734  0.61405502  1.0000
  H   H67       1.0  0.5789666  0.12327227  0.66423999  1.0000
  H   H68       1.0  0.7786376300000001  0.16915381  0.7352822800000001  1.0000
  H   H69       1.0  0.83612742  0.1844895  0.84270805  1.0000
  H   H70       1.0  0.6238586200000001  0.32103688  0.7283814900000001  1.0000
  H   H71       1.0  0.36800569  0.90676922  0.60938478  1.0000
  H   H72       1.0  0.19338499  0.95100572  0.33998959  1.0000
  H   H73       1.0  0.28453423  0.94253614  0.15804226000000002  1.0000
  H   H74       1.0  0.44006792  0.71341283  0.11094556  1.0000
  H   H75       1.0  0.80931326  0.3271423899999999  0.65887748  1.0000
  H   H76       1.0  0.70026306  0.36438284  0.44879188  1.0000
  H   H77       1.0  0.08168517000000004  0.68903615  0.50830597  1.0000
  H   H78       1.0  0.45473651  0.66526621  0.95131832  1.0000
  H   H79       1.0  0.17444112000000003  0.90523603  0.94806617  1.0000
  H   H80       1.0  0.97527368  0.61403307  0.45280017  1.0000
  H   H81       1.0  0.55954471  0.58714527  0.00732904  1.0000
  H   H82       1.0  0.86699043  0.5656712  0.33982301  1.0000
  H   H83       1.0  0.1233793  0.9858281799999999  0.00322995  1.0000
  H   H84       1.0  0.63919118  0.4724981499999999  0.23325089  1.0000
  H   H85       1.0  0.34102412  0.85805601  0.10859794  1.0000
  H   H86       1.0  0.54357259  0.62920261  0.16108879  1.0000
  H   H87       1.0  0.64696036  0.28864031  0.50391123  1.0000
  H   H88       1.0  0.8070767  0.58175143  0.23278793  1.0000
  H   H89       1.0  0.17487574000000003  0.83989909  0.8357806400000001  1.0000
  H   H90       1.0  0.97307427  0.54181734  0.61405502  1.0000
  H   H91       1.0  0.07896659999999998  0.6232722699999999  0.66423999  1.0000
  H   H92       1.0  0.27863763  0.66915381  0.7352822800000001  1.0000
  H   H93       1.0  0.3361274200000001  0.6844895  0.84270805  1.0000
  H   H94       1.0  0.12385862000000006  0.82103688  0.7283814900000001  1.0000
  H   H95       1.0  0.86800569  0.40676922  0.60938478  1.0000
  H   H96       1.0  0.69338499  0.45100572  0.33998959  1.0000
  H   H97       1.0  0.78453423  0.55746386  0.65804226  1.0000
  H   H98       1.0  0.94006792  0.78658717  0.6109455600000001  1.0000
  H   H99       1.0  0.3093132599999999  0.17285761  0.15887748  1.0000
  H   H100      1.0  0.2002630599999999  0.13561716  0.94879188  1.0000
  H   H101      1.0  0.58168517  0.81096385  0.00830597  1.0000
  H   H102      1.0  0.9547365100000001  0.83473379  0.45131832000000005  1.0000
  H   H103      1.0  0.67444112  0.59476397  0.44806617  1.0000
  H   H104      1.0  0.47527368  0.88596693  0.95280017  1.0000
  H   H105      1.0  0.05954471000000001  0.91285473  0.50732904  1.0000
  H   H106      1.0  0.36699043000000003  0.9343288  0.8398230100000003  1.0000
  H   H107      1.0  0.6233793  0.51417182  0.50322995  1.0000
  H   H108      1.0  0.13919118000000005  0.02750185  0.7332508900000001  1.0000
  H   H109      1.0  0.8410241199999999  0.64194399  0.60859794  1.0000
  H   H110      1.0  0.043572590000000015  0.87079739  0.66108879  1.0000
  H   H111      1.0  0.14696036  0.21135969  0.00391123  1.0000
  H   H112      1.0  0.3070767000000001  0.9182485699999999  0.7327879300000001  1.0000
  H   H113      1.0  0.67487574  0.66010091  0.33578064  1.0000
  H   H114      1.0  0.4730742700000001  0.95818266  0.11405502000000002  1.0000
  H   H115      1.0  0.5789666  0.87672773  0.16423999  1.0000
  H   H116      1.0  0.77863763  0.8308461899999998  0.23528228000000004  1.0000
  H   H117      1.0  0.83612742  0.8155105  0.34270805  1.0000
  H   H118      1.0  0.62385862  0.6789631199999998  0.22838149  1.0000
  H   H119      1.0  0.36800569  0.09323077999999999  0.10938478  1.0000
  H   H120      1.0  0.19338499000000015  0.048994279999999994  0.8399895900000002  1.0000
  H   H121      1.0  0.28453423  0.05746386  0.65804226  1.0000
  H   H122      1.0  0.44006792000000006  0.28658717  0.6109455600000001  1.0000
  H   H123      1.0  0.80931326  0.67285761  0.15887748  1.0000
  H   H124      1.0  0.70026306  0.63561716  0.94879188  1.0000
  H   H125      1.0  0.08168517  0.31096384999999993  0.00830597  1.0000
  H   H126      1.0  0.45473651  0.33473379  0.45131832000000005  1.0000
  H   H127      1.0  0.17444112  0.09476397  0.44806617  1.0000
  H   H128      1.0  0.97527368  0.38596693  0.95280017  1.0000
  H   H129      1.0  0.55954471  0.41285473  0.50732904  1.0000
  H   H130      1.0  0.8669904300000001  0.4343288  0.8398230100000003  1.0000
  H   H131      1.0  0.12337930000000004  0.01417182  0.50322995  1.0000
  H   H132      1.0  0.6391911800000001  0.52750185  0.7332508900000001  1.0000
  H   H133      1.0  0.34102412  0.14194398999999994  0.60859794  1.0000
  H   H134      1.0  0.54357259  0.37079738999999995  0.66108879  1.0000
  H   H135      1.0  0.64696036  0.71135969  0.00391123  1.0000
  H   H136      1.0  0.8070767  0.41824857  0.7327879300000001  1.0000
  H   H137      1.0  0.17487574  0.16010091  0.33578064  1.0000
  H   H138      1.0  0.97307427  0.45818266  0.11405502000000002  1.0000
  H   H139      1.0  0.0789666  0.37672773  0.16423999  1.0000
  H   H140      1.0  0.27863763  0.33084619  0.23528228000000004  1.0000
  H   H141      1.0  0.33612742  0.3155105  0.34270805  1.0000
  H   H142      1.0  0.12385862  0.17896312  0.22838149  1.0000
  H   H143      1.0  0.86800569  0.59323078  0.10938478  1.0000
  H   H144      1.0  0.69338499  0.54899428  0.8399895900000002  1.0000
  H   H145      1.0  0.21546577  0.55746386  0.84195774  1.0000
  H   H146      1.0  0.059932080000000006  0.78658717  0.88905444  1.0000
  H   H147      1.0  0.69068674  0.17285761  0.34112252  1.0000
  H   H148      1.0  0.79973694  0.13561716  0.55120812  1.0000
  H   H149      1.0  0.4183148300000001  0.81096385  0.49169403000000006  1.0000
  H   H150      1.0  0.04526349  0.83473379  0.04868168  1.0000
  H   H151      1.0  0.32555888  0.59476397  0.05193383  1.0000
  H   H152      1.0  0.52472632  0.88596693  0.54719983  1.0000
  H   H153      1.0  0.9404552900000003  0.91285473  0.9926709600000002  1.0000
  H   H154      1.0  0.63300957  0.9343288  0.66017699  1.0000
  H   H155      1.0  0.3766207  0.51417182  0.99677005  1.0000
  H   H156      1.0  0.86080882  0.02750185  0.76674911  1.0000
  H   H157      1.0  0.15897588000000007  0.64194399  0.8914020600000001  1.0000
  H   H158      1.0  0.95642741  0.87079739  0.83891121  1.0000
  H   H159      1.0  0.85303964  0.21135969  0.49608877  1.0000
  H   H160      1.0  0.6929233  0.9182485699999999  0.76721207  1.0000
  H   H161      1.0  0.32512426  0.66010091  0.16421936  1.0000
  H   H162      1.0  0.52692573  0.95818266  0.38594498  1.0000
  H   H163      1.0  0.42103339999999995  0.87672773  0.33576001  1.0000
  H   H164      1.0  0.22136237  0.8308461899999998  0.26471772  1.0000
  H   H165      1.0  0.16387258000000002  0.8155105  0.15729195000000004  1.0000
  H   H166      1.0  0.3761413800000001  0.6789631199999998  0.27161851  1.0000
  H   H167      1.0  0.63199431  0.09323077999999999  0.39061522  1.0000
  H   H168      1.0  0.80661501  0.048994279999999994  0.66001041  1.0000
  H   H169      1.0  0.71546577  0.05746386  0.84195774  1.0000
  H   H170      1.0  0.55993208  0.28658717  0.88905444  1.0000
  H   H171      1.0  0.19068674  0.67285761  0.34112252  1.0000
  H   H172      1.0  0.29973694  0.63561716  0.55120812  1.0000
  H   H173      1.0  0.91831483  0.31096384999999993  0.49169403000000006  1.0000
  H   H174      1.0  0.54526349  0.33473379  0.04868168  1.0000
  H   H175      1.0  0.8255588799999999  0.09476397  0.05193383  1.0000
  H   H176      1.0  0.024726320000000006  0.38596693  0.54719983  1.0000
  H   H177      1.0  0.44045529000000017  0.41285473  0.9926709600000002  1.0000
  H   H178      1.0  0.13300957000000002  0.4343288  0.66017699  1.0000
  H   H179      1.0  0.8766207  0.01417182  0.99677005  1.0000
  H   H180      1.0  0.36080882  0.52750185  0.76674911  1.0000
  H   H181      1.0  0.6589758800000001  0.14194398999999994  0.8914020600000001  1.0000
  H   H182      1.0  0.45642741  0.37079738999999995  0.83891121  1.0000
  H   H183      1.0  0.35303964  0.71135969  0.49608877  1.0000
  H   H184      1.0  0.19292329999999994  0.41824857  0.76721207  1.0000
  H   H185      1.0  0.82512426  0.16010091  0.16421936  1.0000
  H   H186      1.0  0.02692573000000004  0.45818266  0.38594498  1.0000
  H   H187      1.0  0.9210334000000002  0.37672773  0.33576001  1.0000
  H   H188      1.0  0.72136237  0.33084619  0.26471772  1.0000
  H   H189      1.0  0.66387258  0.3155105  0.15729195000000004  1.0000
  H   H190      1.0  0.87614138  0.17896312  0.27161851  1.0000
  H   H191      1.0  0.13199431  0.59323078  0.39061522  1.0000
  H   H192      1.0  0.30661501  0.54899428  0.66001041  1.0000
  C   C1        1.0  0.12154346999999996  0.24466780999999996  0.50472158  1.0000
  C   C2        1.0  0.23831190999999996  0.43345991  0.38858465  1.0000
  C   C3        1.0  0.03438853999999997  0.18584112  0.4129605  1.0000
  C   C4        1.0  0.7134284499999999  0.83693351  0.8876771000000001  1.0000
  C   C5        1.0  0.06068046999999996  0.19735328  0.4731559  1.0000
  C   C6        1.0  0.59655583  0.02719848  0.00290702  1.0000
  C   C7        1.0  0.77476435  0.85784348  0.00456322  1.0000
  C   C8        1.0  0.44410378  0.15720504999999999  0.96936112  1.0000
  C   C9        1.0  0.026082959999999985  0.15921693999999995  0.50205683  1.0000
  C   C10       1.0  0.29991438000000004  0.4130191599999999  0.5054655300000002  1.0000
  C   C11       1.0  0.50270593  0.11483662  0.00036506  1.0000
  C   C12       1.0  0.23958116  0.2653777  0.65265856  1.0000
  C   C13       1.0  0.20667821999999994  0.27686632  0.59011132  1.0000
  C   C14       1.0  0.53427765  0.07235253  0.9707786900000002  1.0000
  C   C15       1.0  0.20700175  0.32512708  0.50627199  1.0000
  C   C16       1.0  0.9682907800000001  0.11542234  0.47099768000000003  1.0000
  C   C17       1.0  0.68072957  0.94351888  0.00505376  1.0000
  C   C18       1.0  0.6831961  0.04319834999999999  0.1830414  1.0000
  C   C19       1.0  0.7117272400000001  0.89332184  0.97505895  1.0000
  C   C20       1.0  0.68207245  0.99625989  0.08872554000000002  1.0000
  C   C21       1.0  0.3278566  0.45810542  0.47466787000000005  1.0000
  C   C22       1.0  0.81001813  0.9917860699999999  0.24183947  1.0000
  C   C23       1.0  0.23779822  0.37547372  0.47587759  1.0000
  C   C24       1.0  0.20689629  0.38673423  0.41574666000000005  1.0000
  C   C25       1.0  0.97686217  0.13962713  0.3853268  1.0000
  C   C26       1.0  0.71472295  0.00556481  0.15132787  1.0000
  C   C27       1.0  0.80406593  0.8156654899999999  0.9739639400000001  1.0000
  C   C28       1.0  0.71669115  0.05232761  0.24225086  1.0000
  C   C29       1.0  0.30121968  0.30199836  0.6857027  1.0000
  C   C30       1.0  0.5039047500000001  0.07468932  0.9102432400000002  1.0000
  C   C31       1.0  0.44556136  0.11961466  0.88268996  1.0000
  C   C32       1.0  0.2423934700000001  0.20785294  0.74113382  1.0000
  C   C33       1.0  0.21059356  0.21611465  0.68188209  1.0000
  C   C34       1.0  0.32930246  0.29104601  0.74493934  1.0000
  C   C35       1.0  0.6808171200000002  0.88057256  0.9149111200000001  1.0000
  C   C36       1.0  0.78013765  0.97947654  0.18280605  1.0000
  C   C37       1.0  0.62154347  0.74466781  0.50472158  1.0000
  C   C38       1.0  0.73831191  0.93345991  0.38858465  1.0000
  C   C39       1.0  0.53438854  0.68584112  0.4129605  1.0000
  C   C40       1.0  0.21342845000000013  0.33693351  0.8876771000000001  1.0000
  C   C41       1.0  0.56068047  0.69735328  0.4731559  1.0000
  C   C42       1.0  0.09655583  0.52719848  0.00290702  1.0000
  C   C43       1.0  0.27476435  0.35784348  0.00456322  1.0000
  C   C44       1.0  0.94410378  0.65720505  0.96936112  1.0000
  C   C45       1.0  0.52608296  0.65921694  0.50205683  1.0000
  C   C46       1.0  0.7999143800000001  0.91301916  0.5054655300000002  1.0000
  C   C47       1.0  0.00270593  0.6148366199999998  0.00036506  1.0000
  C   C48       1.0  0.73958116  0.7653777  0.65265856  1.0000
  C   C49       1.0  0.70667822  0.77686632  0.59011132  1.0000
  C   C50       1.0  0.03427764999999999  0.57235253  0.9707786900000002  1.0000
  C   C51       1.0  0.70700175  0.82512708  0.50627199  1.0000
  C   C52       1.0  0.46829078  0.61542234  0.47099768000000003  1.0000
  C   C53       1.0  0.18072957  0.44351888  0.00505376  1.0000
  C   C54       1.0  0.1831961  0.54319835  0.1830414  1.0000
  C   C55       1.0  0.21172723999999993  0.39332184  0.97505895  1.0000
  C   C56       1.0  0.18207245  0.49625989  0.08872554000000002  1.0000
  C   C57       1.0  0.8278566000000002  0.95810542  0.47466787000000005  1.0000
  C   C58       1.0  0.31001813  0.49178607  0.24183947  1.0000
  C   C59       1.0  0.73779822  0.87547372  0.47587759  1.0000
  C   C60       1.0  0.7068962900000001  0.88673423  0.41574666000000005  1.0000
  C   C61       1.0  0.47686217  0.63962713  0.3853268  1.0000
  C   C62       1.0  0.21472294999999997  0.50556481  0.15132787  1.0000
  C   C63       1.0  0.30406593000000004  0.31566549  0.9739639400000001  1.0000
  C   C64       1.0  0.21669115000000003  0.55232761  0.24225086  1.0000
  C   C65       1.0  0.8012196799999999  0.80199836  0.6857027  1.0000
  C   C66       1.0  0.0039047500000001676  0.57468932  0.9102432400000002  1.0000
  C   C67       1.0  0.94556136  0.61961466  0.88268996  1.0000
  C   C68       1.0  0.74239347  0.70785294  0.74113382  1.0000
  C   C69       1.0  0.71059356  0.71611465  0.68188209  1.0000
  C   C70       1.0  0.8293024599999999  0.79104601  0.74493934  1.0000
  C   C71       1.0  0.18081712000000005  0.38057256  0.9149111200000001  1.0000
  C   C72       1.0  0.28013765  0.47947654  0.18280605  1.0000
  C   C73       1.0  0.8784565300000002  0.24466780999999996  0.9952784200000001  1.0000
  C   C74       1.0  0.76168809  0.43345991  0.11141535  1.0000
  C   C75       1.0  0.96561146  0.18584112  0.0870395  1.0000
  C   C76       1.0  0.28657155  0.83693351  0.6123229000000001  1.0000
  C   C77       1.0  0.9393195299999999  0.19735328  0.0268441  1.0000
  C   C78       1.0  0.40344417  0.02719848  0.49709298  1.0000
  C   C79       1.0  0.22523565  0.85784348  0.49543678  1.0000
  C   C80       1.0  0.55589622  0.15720504999999999  0.53063888  1.0000
  C   C81       1.0  0.9739170399999999  0.15921693999999995  0.99794317  1.0000
  C   C82       1.0  0.7000856200000001  0.4130191599999999  0.9945344700000001  1.0000
  C   C83       1.0  0.4972940699999999  0.11483662  0.4996349400000001  1.0000
  C   C84       1.0  0.76041884  0.2653777  0.84734144  1.0000
  C   C85       1.0  0.7933217799999999  0.27686632  0.90988868  1.0000
  C   C86       1.0  0.46572235  0.07235253  0.52922131  1.0000
  C   C87       1.0  0.7929982500000001  0.32512708  0.9937280100000002  1.0000
  C   C88       1.0  0.03170922  0.11542234  0.029002320000000005  1.0000
  C   C89       1.0  0.31927043  0.94351888  0.49494624  1.0000
  C   C90       1.0  0.3168039  0.04319834999999999  0.3169586  1.0000
  C   C91       1.0  0.28827276  0.89332184  0.52494105  1.0000
  C   C92       1.0  0.31792755  0.99625989  0.41127446  1.0000
  C   C93       1.0  0.6721434  0.45810542  0.02533213  1.0000
  C   C94       1.0  0.18998187  0.9917860699999999  0.25816053  1.0000
  C   C95       1.0  0.76220178  0.37547372  0.024122410000000004  1.0000
  C   C96       1.0  0.7931037099999999  0.38673423  0.08425334000000001  1.0000
  C   C97       1.0  0.02313782999999999  0.13962713  0.1146732  1.0000
  C   C98       1.0  0.28527705  0.00556481  0.34867213  1.0000
  C   C99       1.0  0.19593407  0.8156654899999999  0.52603606  1.0000
  C   C100      1.0  0.28330885  0.05232761  0.25774914  1.0000
  C   C101      1.0  0.6987803200000002  0.30199836  0.8142973  1.0000
  C   C102      1.0  0.49609525  0.07468932  0.58975676  1.0000
  C   C103      1.0  0.55443864  0.11961466  0.61731004  1.0000
  C   C104      1.0  0.75760653  0.20785294  0.7588661800000001  1.0000
  C   C105      1.0  0.78940644  0.21611465  0.81811791  1.0000
  C   C106      1.0  0.6706975400000003  0.29104601  0.7550606600000003  1.0000
  C   C107      1.0  0.31918288  0.88057256  0.58508888  1.0000
  C   C108      1.0  0.21986235  0.97947654  0.31719395  1.0000
  C   C109      1.0  0.3784565300000001  0.74466781  0.9952784200000001  1.0000
  C   C110      1.0  0.26168809  0.93345991  0.11141535  1.0000
  C   C111      1.0  0.46561146  0.68584112  0.0870395  1.0000
  C   C112      1.0  0.7865715500000001  0.33693351  0.6123229000000001  1.0000
  C   C113      1.0  0.43931953  0.69735328  0.0268441  1.0000
  C   C114      1.0  0.9034441699999999  0.52719848  0.49709298  1.0000
  C   C115      1.0  0.72523565  0.35784348  0.49543678  1.0000
  C   C116      1.0  0.05589622000000002  0.65720505  0.53063888  1.0000
  C   C117      1.0  0.47391704  0.65921694  0.99794317  1.0000
  C   C118      1.0  0.20008562  0.91301916  0.9945344700000001  1.0000
  C   C119      1.0  0.9972940700000001  0.6148366199999998  0.4996349400000001  1.0000
  C   C120      1.0  0.26041884  0.7653777  0.84734144  1.0000
  C   C121      1.0  0.29332178  0.77686632  0.90988868  1.0000
  C   C122      1.0  0.96572235  0.57235253  0.52922131  1.0000
  C   C123      1.0  0.2929982500000002  0.82512708  0.9937280100000002  1.0000
  C   C124      1.0  0.53170922  0.61542234  0.029002320000000005  1.0000
  C   C125      1.0  0.81927043  0.44351888  0.49494624  1.0000
  C   C126      1.0  0.8168038999999999  0.54319835  0.3169586  1.0000
  C   C127      1.0  0.7882727599999999  0.39332184  0.52494105  1.0000
  C   C128      1.0  0.8179275499999998  0.49625989  0.41127446  1.0000
  C   C129      1.0  0.1721434  0.95810542  0.02533213  1.0000
  C   C130      1.0  0.68998187  0.49178607  0.25816053  1.0000
  C   C131      1.0  0.26220178  0.87547372  0.024122410000000004  1.0000
  C   C132      1.0  0.29310371  0.88673423  0.08425334000000001  1.0000
  C   C133      1.0  0.52313783  0.63962713  0.1146732  1.0000
  C   C134      1.0  0.78527705  0.50556481  0.34867213  1.0000
  C   C135      1.0  0.69593407  0.31566549  0.52603606  1.0000
  C   C136      1.0  0.78330885  0.55232761  0.25774914  1.0000
  C   C137      1.0  0.19878032000000007  0.80199836  0.8142973  1.0000
  C   C138      1.0  0.99609525  0.57468932  0.58975676  1.0000
  C   C139      1.0  0.05443864000000002  0.61961466  0.61731004  1.0000
  C   C140      1.0  0.2576065300000001  0.70785294  0.7588661800000001  1.0000
  C   C141      1.0  0.28940644  0.71611465  0.81811791  1.0000
  C   C142      1.0  0.17069754000000006  0.79104601  0.7550606600000003  1.0000
  C   C143      1.0  0.8191828800000001  0.38057256  0.58508888  1.0000
  C   C144      1.0  0.71986235  0.47947654  0.31719395  1.0000
  C   C145      1.0  0.87845653  0.75533219  0.49527842  1.0000
  C   C146      1.0  0.76168809  0.56654009  0.61141535  1.0000
  C   C147      1.0  0.96561146  0.81415888  0.5870395  1.0000
  C   C148      1.0  0.28657155  0.16306649  0.1123229  1.0000
  C   C149      1.0  0.9393195299999999  0.80264672  0.5268441  1.0000
  C   C150      1.0  0.40344417000000005  0.97280152  0.9970929800000001  1.0000
  C   C151      1.0  0.22523565000000012  0.14215652  0.9954367800000001  1.0000
  C   C152      1.0  0.55589622  0.84279495  0.03063888  1.0000
  C   C153      1.0  0.9739170399999999  0.84078306  0.49794317000000005  1.0000
  C   C154      1.0  0.7000856199999997  0.58698084  0.49453447  1.0000
  C   C155      1.0  0.4972940699999999  0.88516338  0.99963494  1.0000
  C   C156      1.0  0.76041884  0.7346222999999998  0.34734144  1.0000
  C   C157      1.0  0.7933217799999999  0.72313368  0.40988868  1.0000
  C   C158      1.0  0.46572235  0.9276474699999999  0.02922131  1.0000
  C   C159      1.0  0.79299825  0.6748729199999998  0.49372801000000005  1.0000
  C   C160      1.0  0.03170922000000004  0.88457766  0.52900232  1.0000
  C   C161      1.0  0.31927043  0.05648112  0.99494624  1.0000
  C   C162      1.0  0.3168039  0.95680165  0.8169586  1.0000
  C   C163      1.0  0.28827276  0.10667816  0.02494105  1.0000
  C   C164      1.0  0.31792755000000006  0.00374011  0.91127446  1.0000
  C   C165      1.0  0.6721434  0.54189458  0.52533213  1.0000
  C   C166      1.0  0.18998187  0.00821393  0.75816053  1.0000
  C   C167      1.0  0.76220178  0.6245262799999999  0.52412241  1.0000
  C   C168      1.0  0.7931037100000001  0.61326577  0.5842533400000001  1.0000
  C   C169      1.0  0.023137829999999974  0.86037287  0.6146732  1.0000
  C   C170      1.0  0.28527705000000003  0.99443519  0.8486721300000002  1.0000
  C   C171      1.0  0.19593407  0.18433451  0.026036060000000003  1.0000
  C   C172      1.0  0.28330885  0.94767239  0.75774914  1.0000
  C   C173      1.0  0.69878032  0.69800164  0.3142973  1.0000
  C   C174      1.0  0.49609525  0.92531068  0.08975676  1.0000
  C   C175      1.0  0.55443864  0.88038534  0.11731004  1.0000
  C   C176      1.0  0.75760653  0.7921470599999998  0.25886618  1.0000
  C   C177      1.0  0.78940644  0.78388535  0.31811791000000006  1.0000
  C   C178      1.0  0.67069754  0.7089539899999998  0.25506066  1.0000
  C   C179      1.0  0.31918288  0.11942744  0.08508888  1.0000
  C   C180      1.0  0.21986235000000007  0.02052346  0.8171939500000001  1.0000
  C   C181      1.0  0.37845653  0.25533219  0.49527842  1.0000
  C   C182      1.0  0.26168809  0.06654009  0.61141535  1.0000
  C   C183      1.0  0.46561146  0.31415888  0.5870395  1.0000
  C   C184      1.0  0.7865715500000001  0.66306649  0.1123229  1.0000
  C   C185      1.0  0.43931953  0.30264672  0.5268441  1.0000
  C   C186      1.0  0.9034441700000001  0.4728015199999999  0.9970929800000001  1.0000
  C   C187      1.0  0.72523565  0.64215652  0.9954367800000001  1.0000
  C   C188      1.0  0.05589622  0.34279495  0.03063888  1.0000
  C   C189      1.0  0.47391704  0.34078306  0.49794317000000005  1.0000
  C   C190      1.0  0.20008562  0.08698084  0.49453447  1.0000
  C   C191      1.0  0.9972940700000001  0.38516338  0.99963494  1.0000
  C   C192      1.0  0.26041884  0.2346223  0.34734144  1.0000
  C   C193      1.0  0.29332178  0.22313368  0.40988868  1.0000
  C   C194      1.0  0.96572235  0.42764747  0.02922131  1.0000
  C   C195      1.0  0.29299825000000007  0.17487292  0.49372801000000005  1.0000
  C   C196      1.0  0.53170922  0.38457766  0.52900232  1.0000
  C   C197      1.0  0.81927043  0.55648112  0.99494624  1.0000
  C   C198      1.0  0.8168038999999999  0.45680165  0.8169586  1.0000
  C   C199      1.0  0.7882727599999999  0.60667816  0.02494105  1.0000
  C   C200      1.0  0.8179275499999998  0.50374011  0.91127446  1.0000
  C   C201      1.0  0.1721434  0.04189458  0.52533213  1.0000
  C   C202      1.0  0.68998187  0.50821393  0.75816053  1.0000
  C   C203      1.0  0.26220178  0.12452628  0.52412241  1.0000
  C   C204      1.0  0.2931037100000001  0.11326577  0.5842533400000001  1.0000
  C   C205      1.0  0.52313783  0.36037287  0.6146732  1.0000
  C   C206      1.0  0.78527705  0.49443519  0.8486721300000002  1.0000
  C   C207      1.0  0.69593407  0.68433451  0.026036060000000003  1.0000
  C   C208      1.0  0.78330885  0.44767239  0.75774914  1.0000
  C   C209      1.0  0.19878031999999998  0.19800164  0.3142973  1.0000
  C   C210      1.0  0.99609525  0.42531067999999994  0.08975676  1.0000
  C   C211      1.0  0.05443864  0.38038534  0.11731004  1.0000
  C   C212      1.0  0.25760653  0.29214706  0.25886618  1.0000
  C   C213      1.0  0.28940644000000004  0.28388535  0.31811791000000006  1.0000
  C   C214      1.0  0.17069754  0.20895399  0.25506066  1.0000
  C   C215      1.0  0.8191828800000001  0.61942744  0.08508888  1.0000
  C   C216      1.0  0.7198623500000002  0.52052346  0.8171939500000001  1.0000
  C   C217      1.0  0.12154347  0.75533219  0.00472158  1.0000
  C   C218      1.0  0.23831190999999996  0.56654009  0.88858465  1.0000
  C   C219      1.0  0.03438854000000013  0.81415888  0.9129605000000002  1.0000
  C   C220      1.0  0.7134284499999999  0.16306649  0.3876771  1.0000
  C   C221      1.0  0.06068046999999998  0.80264672  0.9731559  1.0000
  C   C222      1.0  0.5965558299999999  0.97280152  0.50290702  1.0000
  C   C223      1.0  0.77476435  0.14215652  0.50456322  1.0000
  C   C224      1.0  0.44410378  0.84279495  0.46936112  1.0000
  C   C225      1.0  0.02608296  0.84078306  0.00205683  1.0000
  C   C226      1.0  0.29991438  0.58698084  0.0054655300000000006  1.0000
  C   C227      1.0  0.50270593  0.88516338  0.50036506  1.0000
  C   C228      1.0  0.23958116  0.7346222999999998  0.15265856  1.0000
  C   C229      1.0  0.20667821999999997  0.72313368  0.09011132  1.0000
  C   C230      1.0  0.53427765  0.9276474699999999  0.47077869  1.0000
  C   C231      1.0  0.20700175  0.6748729199999998  0.00627199  1.0000
  C   C232      1.0  0.96829078  0.88457766  0.97099768  1.0000
  C   C233      1.0  0.68072957  0.05648112  0.50505376  1.0000
  C   C234      1.0  0.6831961000000002  0.95680165  0.6830414  1.0000
  C   C235      1.0  0.7117272400000001  0.10667816  0.47505895  1.0000
  C   C236      1.0  0.68207245  0.00374011  0.58872554  1.0000
  C   C237      1.0  0.3278566000000001  0.54189458  0.9746678700000002  1.0000
  C   C238      1.0  0.81001813  0.00821393  0.74183947  1.0000
  C   C239      1.0  0.23779822000000017  0.6245262799999999  0.9758775900000002  1.0000
  C   C240      1.0  0.20689629  0.61326577  0.91574666  1.0000
  C   C241      1.0  0.97686217  0.86037287  0.8853268000000001  1.0000
  C   C242      1.0  0.71472295  0.99443519  0.65132787  1.0000
  C   C243      1.0  0.80406593  0.18433451  0.47396394  1.0000
  C   C244      1.0  0.71669115  0.94767239  0.7422508600000001  1.0000
  C   C245      1.0  0.30121968  0.69800164  0.18570270000000003  1.0000
  C   C246      1.0  0.50390475  0.92531068  0.41024324000000006  1.0000
  C   C247      1.0  0.44556136  0.88038534  0.38268996  1.0000
  C   C248      1.0  0.24239347000000003  0.7921470599999998  0.24113382000000005  1.0000
  C   C249      1.0  0.21059356  0.78388535  0.18188209  1.0000
  C   C250      1.0  0.32930246000000013  0.7089539899999998  0.24493934  1.0000
  C   C251      1.0  0.6808171200000002  0.11942744  0.41491112000000013  1.0000
  C   C252      1.0  0.78013765  0.02052346  0.68280605  1.0000
  C   C253      1.0  0.62154347  0.25533219  0.00472158  1.0000
  C   C254      1.0  0.73831191  0.06654009  0.88858465  1.0000
  C   C255      1.0  0.5343885400000002  0.31415888  0.9129605000000002  1.0000
  C   C256      1.0  0.21342845000000002  0.66306649  0.3876771  1.0000
  C   C257      1.0  0.56068047  0.30264672  0.9731559  1.0000
  C   C258      1.0  0.09655582999999995  0.4728015199999999  0.50290702  1.0000
  C   C259      1.0  0.27476435  0.64215652  0.50456322  1.0000
  C   C260      1.0  0.94410378  0.34279495  0.46936112  1.0000
  C   C261      1.0  0.52608296  0.34078306  0.00205683  1.0000
  C   C262      1.0  0.7999143800000001  0.08698084  0.0054655300000000006  1.0000
  C   C263      1.0  0.002705930000000019  0.38516338  0.50036506  1.0000
  C   C264      1.0  0.73958116  0.2346223  0.15265856  1.0000
  C   C265      1.0  0.70667822  0.22313368  0.09011132  1.0000
  C   C266      1.0  0.03427764999999999  0.42764747  0.47077869  1.0000
  C   C267      1.0  0.70700175  0.17487292  0.00627199  1.0000
  C   C268      1.0  0.46829078  0.38457766  0.97099768  1.0000
  C   C269      1.0  0.18072957  0.55648112  0.50505376  1.0000
  C   C270      1.0  0.1831961  0.45680165  0.6830414  1.0000
  C   C271      1.0  0.21172724  0.60667816  0.47505895  1.0000
  C   C272      1.0  0.18207245  0.50374011  0.58872554  1.0000
  C   C273      1.0  0.8278566000000002  0.04189458  0.9746678700000002  1.0000
  C   C274      1.0  0.3100181300000001  0.50821393  0.74183947  1.0000
  C   C275      1.0  0.7377982200000002  0.12452628  0.9758775900000002  1.0000
  C   C276      1.0  0.70689629  0.11326577  0.91574666  1.0000
  C   C277      1.0  0.47686216999999986  0.36037287  0.8853268000000001  1.0000
  C   C278      1.0  0.21472294999999997  0.49443519  0.65132787  1.0000
  C   C279      1.0  0.30406592999999993  0.68433451  0.47396394  1.0000
  C   C280      1.0  0.21669115000000003  0.44767239  0.7422508600000001  1.0000
  C   C281      1.0  0.8012196799999999  0.19800164  0.18570270000000003  1.0000
  C   C282      1.0  0.0039047500000000106  0.42531067999999994  0.41024324000000006  1.0000
  C   C283      1.0  0.94556136  0.38038534  0.38268996  1.0000
  C   C284      1.0  0.74239347  0.29214706  0.24113382000000005  1.0000
  C   C285      1.0  0.71059356  0.28388535  0.18188209  1.0000
  C   C286      1.0  0.8293024599999999  0.20895399  0.24493934  1.0000
  C   C287      1.0  0.18081712000000005  0.61942744  0.41491112000000013  1.0000
  C   C288      1.0  0.28013765  0.52052346  0.68280605  1.0000
  N   N1        1.0  0.9423427  0.10517825  0.41284111  1.0000
  N   N2        1.0  0.2984286800000001  0.46876929  0.41687072  1.0000
  N   N3        1.0  0.30078819  0.24545413  0.77333822  1.0000
  N   N4        1.0  0.14921119000000002  0.28639135  0.4742628500000001  1.0000
  N   N5        1.0  0.23874357  0.32058794  0.56440018  1.0000
  N   N6        1.0  0.14686901  0.24116056  0.56287633  1.0000
  N   N7        1.0  0.415275  0.16090576  0.91131801  1.0000
  N   N8        1.0  0.77504811  0.80541511  0.91586067  1.0000
  N   N9        1.0  0.7797175099999999  0.02735985  0.27257126  1.0000
  N   N10       1.0  0.62241022  0.98153286  0.97262875  1.0000
  N   N11       1.0  0.71278561  0.94957809  0.06292149  1.0000
  N   N12       1.0  0.62361508  0.03602469  0.06069451  1.0000
  N   N13       1.0  0.4423426999999999  0.60517825  0.41284111  1.0000
  N   N14       1.0  0.79842868  0.9687692899999999  0.41687072  1.0000
  N   N15       1.0  0.8007881900000001  0.74545413  0.77333822  1.0000
  N   N16       1.0  0.6492111900000002  0.78639135  0.4742628500000001  1.0000
  N   N17       1.0  0.73874357  0.82058794  0.56440018  1.0000
  N   N18       1.0  0.64686901  0.74116056  0.56287633  1.0000
  N   N19       1.0  0.915275  0.66090576  0.91131801  1.0000
  N   N20       1.0  0.27504811  0.30541511  0.91586067  1.0000
  N   N21       1.0  0.27971751  0.52735985  0.27257126  1.0000
  N   N22       1.0  0.12241021999999999  0.48153286  0.97262875  1.0000
  N   N23       1.0  0.21278561  0.44957808999999993  0.06292149  1.0000
  N   N24       1.0  0.12361508  0.53602469  0.06069451  1.0000
  N   N25       1.0  0.057657299999999995  0.10517825  0.08715889  1.0000
  N   N26       1.0  0.70157132  0.46876929  0.08312928000000001  1.0000
  N   N27       1.0  0.69921181  0.24545413  0.72666178  1.0000
  N   N28       1.0  0.8507888100000001  0.28639135  0.025737150000000007  1.0000
  N   N29       1.0  0.76125643  0.32058794  0.93559982  1.0000
  N   N30       1.0  0.85313099  0.24116056  0.9371236700000002  1.0000
  N   N31       1.0  0.584725  0.16090576  0.58868199  1.0000
  N   N32       1.0  0.22495189000000002  0.80541511  0.58413933  1.0000
  N   N33       1.0  0.22028249  0.02735985  0.22742874  1.0000
  N   N34       1.0  0.37758978  0.98153286  0.52737125  1.0000
  N   N35       1.0  0.2872143900000001  0.94957809  0.43707851  1.0000
  N   N36       1.0  0.37638492  0.03602469  0.43930549  1.0000
  N   N37       1.0  0.5576573  0.60517825  0.08715889  1.0000
  N   N38       1.0  0.20157132  0.9687692899999999  0.08312928000000001  1.0000
  N   N39       1.0  0.19921181  0.74545413  0.72666178  1.0000
  N   N40       1.0  0.35078881  0.78639135  0.025737150000000007  1.0000
  N   N41       1.0  0.26125643  0.82058794  0.93559982  1.0000
  N   N42       1.0  0.35313099000000003  0.74116056  0.9371236700000002  1.0000
  N   N43       1.0  0.084725  0.66090576  0.58868199  1.0000
  N   N44       1.0  0.72495189  0.30541511  0.58413933  1.0000
  N   N45       1.0  0.7202824900000001  0.52735985  0.22742874  1.0000
  N   N46       1.0  0.8775897800000001  0.48153286  0.52737125  1.0000
  N   N47       1.0  0.78721439  0.44957808999999993  0.43707851  1.0000
  N   N48       1.0  0.87638492  0.53602469  0.43930549  1.0000
  N   N49       1.0  0.05765729999999998  0.89482175  0.58715889  1.0000
  N   N50       1.0  0.70157132  0.53123071  0.58312928  1.0000
  N   N51       1.0  0.69921181  0.75454587  0.22666178000000003  1.0000
  N   N52       1.0  0.8507888100000001  0.71360865  0.52573715  1.0000
  N   N53       1.0  0.76125643  0.67941206  0.4355998200000001  1.0000
  N   N54       1.0  0.85313099  0.7588394399999999  0.43712367  1.0000
  N   N55       1.0  0.584725  0.83909424  0.08868199  1.0000
  N   N56       1.0  0.22495189000000002  0.19458489  0.08413933  1.0000
  N   N57       1.0  0.22028249  0.97264015  0.72742874  1.0000
  N   N58       1.0  0.37758978  0.01846714  0.027371250000000003  1.0000
  N   N59       1.0  0.2872143900000001  0.05042191  0.93707851  1.0000
  N   N60       1.0  0.37638492  0.96397531  0.93930549  1.0000
  N   N61       1.0  0.5576573  0.39482175  0.58715889  1.0000
  N   N62       1.0  0.20157132  0.03123070999999999  0.58312928  1.0000
  N   N63       1.0  0.19921181  0.25454587  0.22666178000000003  1.0000
  N   N64       1.0  0.35078881  0.21360865  0.52573715  1.0000
  N   N65       1.0  0.26125643000000004  0.17941206  0.4355998200000001  1.0000
  N   N66       1.0  0.35313099  0.25883944  0.43712367  1.0000
  N   N67       1.0  0.084725  0.33909424  0.08868199  1.0000
  N   N68       1.0  0.72495189  0.69458489  0.08413933  1.0000
  N   N69       1.0  0.7202824900000001  0.47264015  0.72742874  1.0000
  N   N70       1.0  0.8775897800000001  0.51846714  0.027371250000000003  1.0000
  N   N71       1.0  0.78721439  0.55042191  0.93707851  1.0000
  N   N72       1.0  0.87638492  0.46397531  0.93930549  1.0000
  N   N73       1.0  0.9423427000000001  0.89482175  0.9128411100000001  1.0000
  N   N74       1.0  0.29842868000000006  0.53123071  0.9168707200000001  1.0000
  N   N75       1.0  0.30078819  0.75454587  0.27333822  1.0000
  N   N76       1.0  0.14921119  0.71360865  0.97426285  1.0000
  N   N77       1.0  0.23874357  0.67941206  0.06440018  1.0000
  N   N78       1.0  0.14686901  0.7588394399999999  0.06287633  1.0000
  N   N79       1.0  0.415275  0.83909424  0.41131801  1.0000
  N   N80       1.0  0.77504811  0.19458489  0.41586067  1.0000
  N   N81       1.0  0.7797175099999999  0.97264015  0.7725712600000001  1.0000
  N   N82       1.0  0.62241022  0.01846714  0.47262875  1.0000
  N   N83       1.0  0.71278561  0.05042191  0.56292149  1.0000
  N   N84       1.0  0.62361508  0.96397531  0.56069451  1.0000
  N   N85       1.0  0.44234270000000003  0.39482175  0.9128411100000001  1.0000
  N   N86       1.0  0.79842868  0.03123070999999999  0.9168707200000001  1.0000
  N   N87       1.0  0.8007881900000001  0.25454587  0.27333822  1.0000
  N   N88       1.0  0.64921119  0.21360865  0.97426285  1.0000
  N   N89       1.0  0.73874357  0.17941206  0.06440018  1.0000
  N   N90       1.0  0.64686901  0.25883944  0.06287633  1.0000
  N   N91       1.0  0.915275  0.33909424  0.41131801  1.0000
  N   N92       1.0  0.27504810999999996  0.69458489  0.41586067  1.0000
  N   N93       1.0  0.27971751  0.47264015  0.7725712600000001  1.0000
  N   N94       1.0  0.12241021999999999  0.51846714  0.47262875  1.0000
  N   N95       1.0  0.21278561  0.55042191  0.56292149  1.0000
  N   N96       1.0  0.12361508000000004  0.46397531  0.56069451  1.0000
