data_image0
_chemical_formula_structural       Ag16H192C288N96
_chemical_formula_sum              "Ag16 H192 C288 N96"
_cell_length_a       22.61051609
_cell_length_b       15.25889929
_cell_length_c       25.579956450000005
_cell_angle_alpha    90.0
_cell_angle_beta     114.96922839999999
_cell_angle_gamma    90.0

_space_group_name_H-M_alt    "P 1"
_space_group_IT_number       1

loop_
  _space_group_symop_operation_xyz
  'x, y, z'

loop_
  _atom_site_type_symbol
  _atom_site_label
  _atom_site_symmetry_multiplicity
  _atom_site_fract_x
  _atom_site_fract_y
  _atom_site_fract_z
  _atom_site_occupancy
  Ag  Ag1       1.0  0.84265528  0.44887035000000003  0.3668349199999999  1.0000
  Ag  Ag2       1.0  0.32783280999999986  0.24946074000000004  0.8680916599999998  1.0000
  Ag  Ag3       1.0  0.34265527999999995  0.9488703500000002  0.3668349199999999  1.0000
  Ag  Ag4       1.0  0.8278328099999999  0.74946074  0.8680916599999998  1.0000
  Ag  Ag5       1.0  0.15734472  0.44887035000000003  0.13316508  1.0000
  Ag  Ag6       1.0  0.6721671900000001  0.24946074000000004  0.63190834  1.0000
  Ag  Ag7       1.0  0.65734472  0.9488703500000002  0.13316508  1.0000
  Ag  Ag8       1.0  0.17216719000000005  0.74946074  0.63190834  1.0000
  Ag  Ag9       1.0  0.15734471999999994  0.55112965  0.63316508  1.0000
  Ag  Ag10      1.0  0.6721671899999999  0.75053926  0.13190833999999999  1.0000
  Ag  Ag11      1.0  0.65734472  0.05112965000000001  0.63316508  1.0000
  Ag  Ag12      1.0  0.17216719  0.25053926  0.13190833999999999  1.0000
  Ag  Ag13      1.0  0.84265528  0.55112965  0.8668349199999997  1.0000
  Ag  Ag14      1.0  0.32783281  0.75053926  0.36809165999999993  1.0000
  Ag  Ag15      1.0  0.3426552799999998  0.05112965000000001  0.8668349199999997  1.0000
  Ag  Ag16      1.0  0.82783281  0.25053926  0.36809165999999993  1.0000
  H   H1        1.0  0.79950228  0.6362888100000003  0.05062349  1.0000
  H   H2        1.0  0.21613854  0.05717836000000001  0.34180436  1.0000
  H   H3        1.0  0.3261648  0.09519272000000002  0.55193316  1.0000
  H   H4        1.0  0.060122089999999975  0.28647650000000013  0.38929694  1.0000
  H   H5        1.0  0.41791631999999984  0.3107822900000001  0.9919117999999998  1.0000
  H   H6        1.0  0.52415246  0.3862629700000001  0.04762364  1.0000
  H   H7        1.0  0.69019195  0.6743944300000002  0.8404752599999998  1.0000
  H   H8        1.0  0.6333850099999999  0.4344504  0.16054967  1.0000
  H   H9        1.0  0.04499465999999999  0.3354288  0.5489618  1.0000
  H   H10       1.0  0.6313470199999999  0.5945148600000002  0.8901180599999998  1.0000
  H   H11       1.0  0.9567822500000001  0.3716370200000001  0.33901939  1.0000
  H   H12       1.0  0.37695694  0.01406652  0.49650395999999997  1.0000
  H   H13       1.0  0.9403354199999999  0.41397842  0.4926133099999999  1.0000
  H   H14       1.0  0.8527768599999999  0.71185915  0.9950992099999999  1.0000
  H   H15       1.0  0.86107242  0.5277282300000002  0.26687606  1.0000
  H   H16       1.0  0.15949997999999993  0.14221517  0.39122853999999996  1.0000
  H   H17       1.0  0.52688169  0.4578041200000001  0.88599308  1.0000
  H   H18       1.0  0.16329647999999994  0.31493711  0.65811494  1.0000
  H   H19       1.0  0.80705581  0.54934221  0.15998104  1.0000
  H   H20       1.0  0.42110443000000003  0.37571872  0.83598249  1.0000
  H   H21       1.0  0.3246883599999999  0.15977171000000007  0.6639732699999998  1.0000
  H   H22       1.0  0.37621097  0.17904717  0.77160145  1.0000
  H   H23       1.0  0.22160405  0.3305140400000001  0.76559774  1.0000
  H   H24       1.0  0.69344576  0.4184753900000001  0.26766516  1.0000
  H   H25       1.0  0.29950228  0.13628881000000007  0.05062349  1.0000
  H   H26       1.0  0.71613854  0.5571783600000002  0.34180436  1.0000
  H   H27       1.0  0.8261648  0.59519272  0.55193316  1.0000
  H   H28       1.0  0.56012209  0.7864765000000002  0.38929694  1.0000
  H   H29       1.0  0.91791632  0.81078229  0.9919117999999998  1.0000
  H   H30       1.0  0.02415246  0.88626297  0.04762364  1.0000
  H   H31       1.0  0.19019194999999997  0.17439443000000004  0.8404752599999998  1.0000
  H   H32       1.0  0.13338501  0.9344504000000002  0.16054967  1.0000
  H   H33       1.0  0.54499466  0.8354288000000002  0.5489618  1.0000
  H   H34       1.0  0.13134701999999995  0.09451486000000003  0.8901180599999998  1.0000
  H   H35       1.0  0.45678225  0.87163702  0.33901939  1.0000
  H   H36       1.0  0.8769569400000001  0.51406652  0.49650395999999997  1.0000
  H   H37       1.0  0.44033541999999987  0.9139784200000002  0.4926133099999999  1.0000
  H   H38       1.0  0.35277685999999997  0.21185915000000005  0.9950992099999999  1.0000
  H   H39       1.0  0.36107241999999995  0.02772823  0.26687606  1.0000
  H   H40       1.0  0.65949998  0.6422151700000002  0.39122853999999996  1.0000
  H   H41       1.0  0.026881690000000014  0.9578041200000003  0.88599308  1.0000
  H   H42       1.0  0.66329648  0.8149371100000002  0.65811494  1.0000
  H   H43       1.0  0.30705581  0.04934221  0.15998104  1.0000
  H   H44       1.0  0.92110443  0.8757187200000002  0.83598249  1.0000
  H   H45       1.0  0.8246883599999999  0.65977171  0.6639732699999998  1.0000
  H   H46       1.0  0.87621097  0.67904717  0.77160145  1.0000
  H   H47       1.0  0.7216040499999999  0.8305140400000002  0.76559774  1.0000
  H   H48       1.0  0.19344575999999997  0.9184753900000002  0.26766516  1.0000
  H   H49       1.0  0.20049772  0.6362888100000003  0.44937651  1.0000
  H   H50       1.0  0.78386146  0.05717836000000001  0.15819564  1.0000
  H   H51       1.0  0.6738351999999999  0.09519272000000002  0.9480668399999997  1.0000
  H   H52       1.0  0.9398779099999999  0.28647650000000013  0.11070305999999999  1.0000
  H   H53       1.0  0.58208368  0.3107822900000001  0.5080882  1.0000
  H   H54       1.0  0.47584753999999996  0.3862629700000001  0.45237635999999987  1.0000
  H   H55       1.0  0.30980805  0.6743944300000002  0.65952474  1.0000
  H   H56       1.0  0.36661499  0.4344504  0.33945032999999997  1.0000
  H   H57       1.0  0.95500534  0.3354288  0.9510382  1.0000
  H   H58       1.0  0.36865298  0.5945148600000002  0.60988194  1.0000
  H   H59       1.0  0.043217749999999985  0.3716370200000001  0.16098060999999997  1.0000
  H   H60       1.0  0.62304306  0.01406652  0.0034960399999999993  1.0000
  H   H61       1.0  0.05966458  0.41397842  0.007386689999999999  1.0000
  H   H62       1.0  0.14722314  0.71185915  0.50490079  1.0000
  H   H63       1.0  0.13892758  0.5277282300000002  0.23312394  1.0000
  H   H64       1.0  0.84050002  0.14221517  0.10877146  1.0000
  H   H65       1.0  0.47311831  0.4578041200000001  0.61400692  1.0000
  H   H66       1.0  0.83670352  0.31493711  0.84188506  1.0000
  H   H67       1.0  0.19294418999999996  0.54934221  0.3400189599999999  1.0000
  H   H68       1.0  0.57889557  0.37571872  0.66401751  1.0000
  H   H69       1.0  0.67531164  0.15977171000000007  0.83602673  1.0000
  H   H70       1.0  0.6237890299999999  0.17904717  0.7283985499999998  1.0000
  H   H71       1.0  0.77839595  0.3305140400000001  0.7344022599999999  1.0000
  H   H72       1.0  0.30655424  0.4184753900000001  0.23233484  1.0000
  H   H73       1.0  0.70049772  0.13628881000000007  0.44937651  1.0000
  H   H74       1.0  0.28386146000000007  0.5571783600000002  0.15819564  1.0000
  H   H75       1.0  0.1738351999999999  0.59519272  0.9480668399999997  1.0000
  H   H76       1.0  0.43987791  0.7864765000000002  0.11070305999999999  1.0000
  H   H77       1.0  0.08208368000000003  0.81078229  0.5080882  1.0000
  H   H78       1.0  0.9758475399999998  0.88626297  0.45237635999999987  1.0000
  H   H79       1.0  0.8098080500000001  0.17439443000000004  0.65952474  1.0000
  H   H80       1.0  0.86661499  0.9344504000000002  0.33945032999999997  1.0000
  H   H81       1.0  0.45500534000000004  0.8354288000000002  0.9510382  1.0000
  H   H82       1.0  0.86865298  0.09451486000000003  0.60988194  1.0000
  H   H83       1.0  0.54321775  0.87163702  0.16098060999999997  1.0000
  H   H84       1.0  0.12304306  0.51406652  0.0034960399999999993  1.0000
  H   H85       1.0  0.55966458  0.9139784200000002  0.007386689999999999  1.0000
  H   H86       1.0  0.64722314  0.21185915000000005  0.50490079  1.0000
  H   H87       1.0  0.63892758  0.02772823  0.23312394  1.0000
  H   H88       1.0  0.34050002  0.6422151700000002  0.10877146  1.0000
  H   H89       1.0  0.97311831  0.9578041200000003  0.61400692  1.0000
  H   H90       1.0  0.33670352  0.8149371100000002  0.84188506  1.0000
  H   H91       1.0  0.6929441899999998  0.04934221  0.3400189599999999  1.0000
  H   H92       1.0  0.07889557  0.8757187200000002  0.66401751  1.0000
  H   H93       1.0  0.17531163999999996  0.65977171  0.83602673  1.0000
  H   H94       1.0  0.12378902999999987  0.67904717  0.7283985499999998  1.0000
  H   H95       1.0  0.27839595  0.8305140400000002  0.7344022599999999  1.0000
  H   H96       1.0  0.80655424  0.9184753900000002  0.23233484  1.0000
  H   H97       1.0  0.2004977199999999  0.3637111900000001  0.9493765099999999  1.0000
  H   H98       1.0  0.78386146  0.9428216400000002  0.65819564  1.0000
  H   H99       1.0  0.6738351999999999  0.9048072800000002  0.4480668399999999  1.0000
  H   H100      1.0  0.9398779099999999  0.7135235000000002  0.61070306  1.0000
  H   H101      1.0  0.58208368  0.68921771  0.0080882  1.0000
  H   H102      1.0  0.47584754000000007  0.61373703  0.95237636  1.0000
  H   H103      1.0  0.30980805  0.3256055700000001  0.15952474  1.0000
  H   H104      1.0  0.3666149899999999  0.5655496  0.8394503299999999  1.0000
  H   H105      1.0  0.95500534  0.6645712  0.4510382  1.0000
  H   H106      1.0  0.36865298  0.40548514000000013  0.10988194  1.0000
  H   H107      1.0  0.04321774999999995  0.62836298  0.6609806099999999  1.0000
  H   H108      1.0  0.62304306  0.9859334800000003  0.50349604  1.0000
  H   H109      1.0  0.05966458  0.5860215800000003  0.50738669  1.0000
  H   H110      1.0  0.14722314  0.28814085  0.00490079  1.0000
  H   H111      1.0  0.13892758  0.4722717700000001  0.73312394  1.0000
  H   H112      1.0  0.8405000199999998  0.85778483  0.6087714599999999  1.0000
  H   H113      1.0  0.47311831  0.54219588  0.11400692  1.0000
  H   H114      1.0  0.83670352  0.68506289  0.34188506  1.0000
  H   H115      1.0  0.19294419000000007  0.4506577900000001  0.84001896  1.0000
  H   H116      1.0  0.57889557  0.62428128  0.16401751  1.0000
  H   H117      1.0  0.67531164  0.84022829  0.33602673  1.0000
  H   H118      1.0  0.62378903  0.8209528300000002  0.22839854999999995  1.0000
  H   H119      1.0  0.77839595  0.6694859600000003  0.23440225999999997  1.0000
  H   H120      1.0  0.30655424  0.5815246100000001  0.73233484  1.0000
  H   H121      1.0  0.7004977199999999  0.8637111900000002  0.9493765099999999  1.0000
  H   H122      1.0  0.28386146  0.4428216400000001  0.65819564  1.0000
  H   H123      1.0  0.17383519999999997  0.4048072800000001  0.4480668399999999  1.0000
  H   H124      1.0  0.43987791  0.21352350000000006  0.61070306  1.0000
  H   H125      1.0  0.08208368  0.18921771  0.0080882  1.0000
  H   H126      1.0  0.9758475399999998  0.11373703000000003  0.95237636  1.0000
  H   H127      1.0  0.8098080500000001  0.82560557  0.15952474  1.0000
  H   H128      1.0  0.86661499  0.0655496  0.8394503299999999  1.0000
  H   H129      1.0  0.45500534000000004  0.16457120000000003  0.4510382  1.0000
  H   H130      1.0  0.86865298  0.9054851400000002  0.10988194  1.0000
  H   H131      1.0  0.5432177499999999  0.12836298  0.6609806099999999  1.0000
  H   H132      1.0  0.12304305999999995  0.4859334800000001  0.50349604  1.0000
  H   H133      1.0  0.55966458  0.08602158000000003  0.50738669  1.0000
  H   H134      1.0  0.64722314  0.7881408500000002  0.00490079  1.0000
  H   H135      1.0  0.63892758  0.9722717700000002  0.73312394  1.0000
  H   H136      1.0  0.3405000199999999  0.3577848300000001  0.6087714599999999  1.0000
  H   H137      1.0  0.97311831  0.04219588  0.11400692  1.0000
  H   H138      1.0  0.33670352  0.18506289000000006  0.34188506  1.0000
  H   H139      1.0  0.69294419  0.9506577900000002  0.84001896  1.0000
  H   H140      1.0  0.07889557  0.12428128000000002  0.16401751  1.0000
  H   H141      1.0  0.17531163999999996  0.3402282900000001  0.33602673  1.0000
  H   H142      1.0  0.12378902999999995  0.32095283  0.22839854999999995  1.0000
  H   H143      1.0  0.27839595  0.16948596000000005  0.23440225999999997  1.0000
  H   H144      1.0  0.80655424  0.08152461  0.73233484  1.0000
  H   H145      1.0  0.79950228  0.3637111900000001  0.55062349  1.0000
  H   H146      1.0  0.21613854  0.9428216400000002  0.84180436  1.0000
  H   H147      1.0  0.3261648  0.9048072800000002  0.05193316  1.0000
  H   H148      1.0  0.06012208999999994  0.7135235000000002  0.8892969399999999  1.0000
  H   H149      1.0  0.4179163199999999  0.68921771  0.4919117999999999  1.0000
  H   H150      1.0  0.52415246  0.61373703  0.54762364  1.0000
  H   H151      1.0  0.69019195  0.3256055700000001  0.34047525999999995  1.0000
  H   H152      1.0  0.6333850099999999  0.5655496  0.6605496699999999  1.0000
  H   H153      1.0  0.044994660000000006  0.6645712  0.0489618  1.0000
  H   H154      1.0  0.6313470199999999  0.40548514000000013  0.39011805999999993  1.0000
  H   H155      1.0  0.9567822500000001  0.62836298  0.83901939  1.0000
  H   H156      1.0  0.37695694  0.9859334800000003  0.99650396  1.0000
  H   H157      1.0  0.9403354199999999  0.5860215800000003  0.99261331  1.0000
  H   H158      1.0  0.8527768600000001  0.28814085  0.49509920999999996  1.0000
  H   H159      1.0  0.8610724199999997  0.4722717700000001  0.7668760599999997  1.0000
  H   H160      1.0  0.1594999799999999  0.85778483  0.8912285399999998  1.0000
  H   H161      1.0  0.52688169  0.54219588  0.3859930799999999  1.0000
  H   H162      1.0  0.16329647999999997  0.68506289  0.15811493999999998  1.0000
  H   H163      1.0  0.80705581  0.4506577900000001  0.6599810399999999  1.0000
  H   H164      1.0  0.42110443000000003  0.62428128  0.33598248999999997  1.0000
  H   H165      1.0  0.32468836  0.84022829  0.16397326999999998  1.0000
  H   H166      1.0  0.37621097  0.8209528300000002  0.27160145  1.0000
  H   H167      1.0  0.22160405  0.6694859600000003  0.26559773999999997  1.0000
  H   H168      1.0  0.6934457599999999  0.5815246100000001  0.7676651599999998  1.0000
  H   H169      1.0  0.29950228  0.8637111900000002  0.55062349  1.0000
  H   H170      1.0  0.71613854  0.4428216400000001  0.84180436  1.0000
  H   H171      1.0  0.8261648  0.4048072800000001  0.05193316  1.0000
  H   H172      1.0  0.5601220899999999  0.21352350000000006  0.8892969399999999  1.0000
  H   H173      1.0  0.91791632  0.18921771  0.4919117999999999  1.0000
  H   H174      1.0  0.02415246  0.11373703000000003  0.54762364  1.0000
  H   H175      1.0  0.19019195000000003  0.82560557  0.34047525999999995  1.0000
  H   H176      1.0  0.13338500999999992  0.0655496  0.6605496699999999  1.0000
  H   H177      1.0  0.54499466  0.16457120000000003  0.0489618  1.0000
  H   H178      1.0  0.13134701999999995  0.9054851400000002  0.39011805999999993  1.0000
  H   H179      1.0  0.45678225  0.12836298  0.83901939  1.0000
  H   H180      1.0  0.8769569400000001  0.4859334800000001  0.99650396  1.0000
  H   H181      1.0  0.44033542  0.08602158000000003  0.99261331  1.0000
  H   H182      1.0  0.35277685999999997  0.7881408500000002  0.49509920999999996  1.0000
  H   H183      1.0  0.3610724199999999  0.9722717700000002  0.7668760599999997  1.0000
  H   H184      1.0  0.65949998  0.3577848300000001  0.8912285399999998  1.0000
  H   H185      1.0  0.026881689999999937  0.04219588  0.3859930799999999  1.0000
  H   H186      1.0  0.66329648  0.18506289000000006  0.15811493999999998  1.0000
  H   H187      1.0  0.30705580999999993  0.9506577900000002  0.6599810399999999  1.0000
  H   H188      1.0  0.92110443  0.12428128000000002  0.33598248999999997  1.0000
  H   H189      1.0  0.8246883599999999  0.3402282900000001  0.16397326999999998  1.0000
  H   H190      1.0  0.87621097  0.32095283  0.27160145  1.0000
  H   H191      1.0  0.7216040499999999  0.16948596000000005  0.26559773999999997  1.0000
  H   H192      1.0  0.19344575999999986  0.08152461  0.7676651599999998  1.0000
  C   C1        1.0  0.12137683000000003  0.25497425  0.50493451  1.0000
  C   C2        1.0  0.7744565  0.64274075  0.003969519999999999  1.0000
  C   C3        1.0  0.59643409  0.4729673900000001  0.00305368  1.0000
  C   C4        1.0  0.23874486  0.0664823  0.38845304  1.0000
  C   C5        1.0  0.30032481000000005  0.08719690000000002  0.50545504  1.0000
  C   C6        1.0  0.03450637999999995  0.31428542  0.41313320999999986  1.0000
  C   C7        1.0  0.06059402999999993  0.3027360900000001  0.47337754999999987  1.0000
  C   C8        1.0  0.44393871999999995  0.34260431000000013  0.9697028499999998  1.0000
  C   C9        1.0  0.5024542  0.3851937  0.0007487399999999999  1.0000
  C   C10       1.0  0.71283647  0.6641834500000002  0.8870148999999998  1.0000
  C   C11       1.0  0.2063422  0.22263954000000005  0.59033965  1.0000
  C   C12       1.0  0.53416357  0.4275916100000001  0.9710525299999999  1.0000
  C   C13       1.0  0.68355127  0.45701703000000005  0.18323538  1.0000
  C   C14       1.0  0.23915469000000006  0.23424271000000005  0.65288636  1.0000
  C   C15       1.0  0.026001560000000017  0.3413016900000001  0.50228809  1.0000
  C   C16       1.0  0.68050464  0.55685582  0.004788669999999999  1.0000
  C   C17       1.0  0.68222725  0.50384288  0.0887266  1.0000
  C   C18       1.0  0.7113637500000001  0.6073819800000002  0.9745621599999998  1.0000
  C   C19       1.0  0.6802450299999999  0.6204494100000002  0.9143745499999999  1.0000
  C   C20       1.0  0.97715784  0.3608985400000001  0.38543756  1.0000
  C   C21       1.0  0.3282122499999999  0.041875070000000014  0.47456664999999987  1.0000
  C   C22       1.0  0.96832826  0.3853772  0.47110196  1.0000
  C   C23       1.0  0.8037310999999999  0.6849434600000002  0.9732181399999998  1.0000
  C   C24       1.0  0.20711229000000003  0.17483533  0.50637315  1.0000
  C   C25       1.0  0.23813234  0.12464094  0.47589142  1.0000
  C   C26       1.0  0.81033659  0.5084353400000002  0.24185770999999995  1.0000
  C   C27       1.0  0.20733531999999996  0.11342353000000002  0.41565754999999993  1.0000
  C   C28       1.0  0.5039185899999999  0.4249959500000001  0.9104325899999999  1.0000
  C   C29       1.0  0.7150581499999998  0.49461334000000007  0.15138037  1.0000
  C   C30       1.0  0.21018799999999999  0.2834191900000001  0.68233644  1.0000
  C   C31       1.0  0.78045536  0.5207823300000001  0.18274714999999994  1.0000
  C   C32       1.0  0.4456720199999999  0.37987213  0.8829187799999999  1.0000
  C   C33       1.0  0.3009429799999999  0.19778503  0.6856681699999999  1.0000
  C   C34       1.0  0.32933193  0.20898660000000005  0.74492155  1.0000
  C   C35       1.0  0.24236005999999988  0.29195278  0.7415988999999997  1.0000
  C   C36       1.0  0.71707851  0.4478863600000001  0.24249313  1.0000
  C   C37       1.0  0.62137683  0.75497425  0.50493451  1.0000
  C   C38       1.0  0.2744565  0.14274075000000006  0.003969519999999999  1.0000
  C   C39       1.0  0.09643408999999999  0.9729673900000002  0.00305368  1.0000
  C   C40       1.0  0.7387448600000001  0.5664823  0.38845304  1.0000
  C   C41       1.0  0.80032481  0.5871969000000002  0.50545504  1.0000
  C   C42       1.0  0.53450638  0.8142854200000003  0.41313320999999986  1.0000
  C   C43       1.0  0.56059403  0.80273609  0.47337754999999987  1.0000
  C   C44       1.0  0.94393872  0.84260431  0.9697028499999998  1.0000
  C   C45       1.0  0.0024542  0.8851937000000002  0.0007487399999999999  1.0000
  C   C46       1.0  0.21283646999999983  0.16418345000000006  0.8870148999999998  1.0000
  C   C47       1.0  0.7063422000000001  0.7226395400000002  0.59033965  1.0000
  C   C48       1.0  0.03416356999999998  0.92759161  0.9710525299999999  1.0000
  C   C49       1.0  0.18355127000000002  0.9570170300000003  0.18323538  1.0000
  C   C50       1.0  0.7391546900000001  0.7342427100000002  0.65288636  1.0000
  C   C51       1.0  0.52600156  0.84130169  0.50228809  1.0000
  C   C52       1.0  0.18050464  0.056855820000000015  0.004788669999999999  1.0000
  C   C53       1.0  0.18222725  0.0038428800000000008  0.0887266  1.0000
  C   C54       1.0  0.2113637499999999  0.10738198000000003  0.9745621599999998  1.0000
  C   C55       1.0  0.18024502999999997  0.12044941000000003  0.9143745499999999  1.0000
  C   C56       1.0  0.47715784  0.86089854  0.38543756  1.0000
  C   C57       1.0  0.82821225  0.5418750700000002  0.47456664999999987  1.0000
  C   C58       1.0  0.46832826  0.8853772000000002  0.47110196  1.0000
  C   C59       1.0  0.30373109999999987  0.18494346  0.9732181399999998  1.0000
  C   C60       1.0  0.70711229  0.6748353300000002  0.50637315  1.0000
  C   C61       1.0  0.73813234  0.6246409400000003  0.47589142  1.0000
  C   C62       1.0  0.31033658999999997  0.00843534  0.24185770999999995  1.0000
  C   C63       1.0  0.7073353199999999  0.6134235300000003  0.41565754999999993  1.0000
  C   C64       1.0  0.003918589999999988  0.92499595  0.9104325899999999  1.0000
  C   C65       1.0  0.21505815  0.9946133400000002  0.15138037  1.0000
  C   C66       1.0  0.7101880000000002  0.7834191900000003  0.68233644  1.0000
  C   C67       1.0  0.28045535999999993  0.02078233000000001  0.18274714999999994  1.0000
  C   C68       1.0  0.94567202  0.8798721300000002  0.8829187799999999  1.0000
  C   C69       1.0  0.8009429800000001  0.6977850300000003  0.6856681699999999  1.0000
  C   C70       1.0  0.82933193  0.7089866000000002  0.74492155  1.0000
  C   C71       1.0  0.7423600599999999  0.7919527800000002  0.7415988999999997  1.0000
  C   C72       1.0  0.21707851000000003  0.94788636  0.24249313  1.0000
  C   C73       1.0  0.8786231699999998  0.25497425  0.9950654899999998  1.0000
  C   C74       1.0  0.2255435  0.64274075  0.49603048  1.0000
  C   C75       1.0  0.40356591  0.4729673900000001  0.49694631999999994  1.0000
  C   C76       1.0  0.76125514  0.0664823  0.11154695999999999  1.0000
  C   C77       1.0  0.69967519  0.08719690000000002  0.9945449599999998  1.0000
  C   C78       1.0  0.96549362  0.31428542  0.08686679  1.0000
  C   C79       1.0  0.9394059700000001  0.3027360900000001  0.02662245  1.0000
  C   C80       1.0  0.55606128  0.34260431000000013  0.53029715  1.0000
  C   C81       1.0  0.49754580000000004  0.3851937  0.49925125999999986  1.0000
  C   C82       1.0  0.28716353  0.6641834500000002  0.6129851  1.0000
  C   C83       1.0  0.7936578  0.22263954000000005  0.9096603499999998  1.0000
  C   C84       1.0  0.46583642999999997  0.4275916100000001  0.5289474699999999  1.0000
  C   C85       1.0  0.31644873  0.45701703000000005  0.31676462  1.0000
  C   C86       1.0  0.76084531  0.23424271000000005  0.84711364  1.0000
  C   C87       1.0  0.97399844  0.3413016900000001  0.9977119099999998  1.0000
  C   C88       1.0  0.31949536  0.55685582  0.49521133  1.0000
  C   C89       1.0  0.31777275  0.50384288  0.4112734  1.0000
  C   C90       1.0  0.28863625  0.6073819800000002  0.52543784  1.0000
  C   C91       1.0  0.31975497  0.6204494100000002  0.58562545  1.0000
  C   C92       1.0  0.022842159999999986  0.3608985400000001  0.11456243999999997  1.0000
  C   C93       1.0  0.67178775  0.041875070000000014  0.02543335  1.0000
  C   C94       1.0  0.03167173999999999  0.3853772  0.028898039999999996  1.0000
  C   C95       1.0  0.1962689  0.6849434600000002  0.52678186  1.0000
  C   C96       1.0  0.79288771  0.17483533  0.99362685  1.0000
  C   C97       1.0  0.76186766  0.12464094  0.02410858  1.0000
  C   C98       1.0  0.18966341  0.5084353400000002  0.25814229  1.0000
  C   C99       1.0  0.79266468  0.11342353000000002  0.08434244999999999  1.0000
  C   C100      1.0  0.49608141  0.4249959500000001  0.58956741  1.0000
  C   C101      1.0  0.28494185  0.49461334000000007  0.34861963  1.0000
  C   C102      1.0  0.789812  0.2834191900000001  0.81766356  1.0000
  C   C103      1.0  0.21954464  0.5207823300000001  0.31725285  1.0000
  C   C104      1.0  0.55432798  0.37987213  0.61708122  1.0000
  C   C105      1.0  0.69905702  0.19778503  0.81433183  1.0000
  C   C106      1.0  0.67066807  0.20898660000000005  0.75507845  1.0000
  C   C107      1.0  0.75763994  0.29195278  0.7584011  1.0000
  C   C108      1.0  0.28292149  0.4478863600000001  0.25750687  1.0000
  C   C109      1.0  0.3786231699999999  0.75497425  0.9950654899999998  1.0000
  C   C110      1.0  0.7255434999999999  0.14274075000000006  0.49603048  1.0000
  C   C111      1.0  0.90356591  0.9729673900000002  0.49694631999999994  1.0000
  C   C112      1.0  0.26125514  0.5664823  0.11154695999999999  1.0000
  C   C113      1.0  0.19967518999999986  0.5871969000000002  0.9945449599999998  1.0000
  C   C114      1.0  0.4654936200000001  0.8142854200000003  0.08686679  1.0000
  C   C115      1.0  0.43940597000000003  0.80273609  0.02662245  1.0000
  C   C116      1.0  0.05606127999999999  0.84260431  0.53029715  1.0000
  C   C117      1.0  0.9975457999999999  0.8851937000000002  0.49925125999999986  1.0000
  C   C118      1.0  0.78716353  0.16418345000000006  0.6129851  1.0000
  C   C119      1.0  0.2936577999999999  0.7226395400000002  0.9096603499999998  1.0000
  C   C120      1.0  0.9658364300000001  0.92759161  0.5289474699999999  1.0000
  C   C121      1.0  0.8164487300000001  0.9570170300000003  0.31676462  1.0000
  C   C122      1.0  0.2608453100000001  0.7342427100000002  0.84711364  1.0000
  C   C123      1.0  0.4739984399999999  0.84130169  0.9977119099999998  1.0000
  C   C124      1.0  0.8194953599999999  0.056855820000000015  0.49521133  1.0000
  C   C125      1.0  0.8177727500000002  0.0038428800000000008  0.4112734  1.0000
  C   C126      1.0  0.78863625  0.10738198000000003  0.52543784  1.0000
  C   C127      1.0  0.81975497  0.12044941000000003  0.58562545  1.0000
  C   C128      1.0  0.5228421599999998  0.86089854  0.11456243999999997  1.0000
  C   C129      1.0  0.17178775  0.5418750700000002  0.02543335  1.0000
  C   C130      1.0  0.53167174  0.8853772000000002  0.028898039999999996  1.0000
  C   C131      1.0  0.6962689  0.18494346  0.52678186  1.0000
  C   C132      1.0  0.29288771  0.6748353300000002  0.99362685  1.0000
  C   C133      1.0  0.26186766  0.6246409400000003  0.02410858  1.0000
  C   C134      1.0  0.68966341  0.00843534  0.25814229  1.0000
  C   C135      1.0  0.29266468  0.6134235300000003  0.08434244999999999  1.0000
  C   C136      1.0  0.9960814100000001  0.92499595  0.58956741  1.0000
  C   C137      1.0  0.78494185  0.9946133400000002  0.34861963  1.0000
  C   C138      1.0  0.2898119999999999  0.7834191900000003  0.81766356  1.0000
  C   C139      1.0  0.7195446400000001  0.02078233000000001  0.31725285  1.0000
  C   C140      1.0  0.054327979999999984  0.8798721300000002  0.61708122  1.0000
  C   C141      1.0  0.19905701999999997  0.6977850300000003  0.81433183  1.0000
  C   C142      1.0  0.17066807  0.7089866000000002  0.75507845  1.0000
  C   C143      1.0  0.2576399399999999  0.7919527800000002  0.7584011  1.0000
  C   C144      1.0  0.78292149  0.94788636  0.25750687  1.0000
  C   C145      1.0  0.87862317  0.74502575  0.49506549  1.0000
  C   C146      1.0  0.2255435  0.3572592500000001  0.99603048  1.0000
  C   C147      1.0  0.40356590999999986  0.5270326100000002  0.9969463199999998  1.0000
  C   C148      1.0  0.76125514  0.9335177  0.61154696  1.0000
  C   C149      1.0  0.69967519  0.9128031000000002  0.4945449599999999  1.0000
  C   C150      1.0  0.96549362  0.68571458  0.58686679  1.0000
  C   C151      1.0  0.9394059700000001  0.6972639100000002  0.52662245  1.0000
  C   C152      1.0  0.55606128  0.65739569  0.030297149999999995  1.0000
  C   C153      1.0  0.4975457999999999  0.6148063  0.9992512599999998  1.0000
  C   C154      1.0  0.28716353  0.33581655000000005  0.11298509999999999  1.0000
  C   C155      1.0  0.7936578  0.7773604600000001  0.4096603499999999  1.0000
  C   C156      1.0  0.46583643  0.57240839  0.02894747  1.0000
  C   C157      1.0  0.31644872999999996  0.5429829700000002  0.8167646199999999  1.0000
  C   C158      1.0  0.76084531  0.7657572900000003  0.34711363999999995  1.0000
  C   C159      1.0  0.97399844  0.6586983100000002  0.4977119099999999  1.0000
  C   C160      1.0  0.31949536  0.4431441800000001  0.99521133  1.0000
  C   C161      1.0  0.31777275  0.4961571200000001  0.9112733999999999  1.0000
  C   C162      1.0  0.28863625  0.39261802  0.02543784  1.0000
  C   C163      1.0  0.31975497  0.37955059000000013  0.08562545  1.0000
  C   C164      1.0  0.022842159999999993  0.6391014600000002  0.61456244  1.0000
  C   C165      1.0  0.67178775  0.9581249300000002  0.52543335  1.0000
  C   C166      1.0  0.03167173999999996  0.6146228  0.52889804  1.0000
  C   C167      1.0  0.1962689  0.3150565400000001  0.026781859999999998  1.0000
  C   C168      1.0  0.79288771  0.8251646700000003  0.4936268499999999  1.0000
  C   C169      1.0  0.76186766  0.8753590600000002  0.52410858  1.0000
  C   C170      1.0  0.18966340999999992  0.4915646600000001  0.75814229  1.0000
  C   C171      1.0  0.79266468  0.8865764700000002  0.58434245  1.0000
  C   C172      1.0  0.49608141  0.57500405  0.08956740999999999  1.0000
  C   C173      1.0  0.28494185000000005  0.50538666  0.84861963  1.0000
  C   C174      1.0  0.789812  0.7165808100000002  0.31766356  1.0000
  C   C175      1.0  0.21954464  0.47921767  0.81725285  1.0000
  C   C176      1.0  0.55432798  0.62012787  0.11708121999999999  1.0000
  C   C177      1.0  0.69905702  0.8022149700000002  0.3143318299999999  1.0000
  C   C178      1.0  0.6706680699999998  0.7910134000000002  0.25507844999999996  1.0000
  C   C179      1.0  0.75763994  0.7080472200000002  0.2584011  1.0000
  C   C180      1.0  0.2829214900000001  0.55211364  0.75750687  1.0000
  C   C181      1.0  0.37862317  0.24502575000000004  0.49506549  1.0000
  C   C182      1.0  0.7255434999999999  0.85725925  0.99603048  1.0000
  C   C183      1.0  0.9035659099999999  0.02703261  0.9969463199999998  1.0000
  C   C184      1.0  0.26125514  0.4335177000000001  0.61154696  1.0000
  C   C185      1.0  0.19967518999999995  0.4128031000000001  0.4945449599999999  1.0000
  C   C186      1.0  0.46549362  0.18571458000000005  0.58686679  1.0000
  C   C187      1.0  0.43940597000000003  0.19726391000000004  0.52662245  1.0000
  C   C188      1.0  0.056061280000000005  0.15739569000000006  0.030297149999999995  1.0000
  C   C189      1.0  0.9975457999999999  0.11480630000000003  0.9992512599999998  1.0000
  C   C190      1.0  0.78716353  0.8358165500000002  0.11298509999999999  1.0000
  C   C191      1.0  0.29365779999999997  0.27736046  0.4096603499999999  1.0000
  C   C192      1.0  0.9658364300000001  0.07240839  0.02894747  1.0000
  C   C193      1.0  0.8164487299999998  0.042982970000000016  0.8167646199999999  1.0000
  C   C194      1.0  0.26084530999999994  0.2657572900000001  0.34711363999999995  1.0000
  C   C195      1.0  0.47399843999999997  0.15869831  0.4977119099999999  1.0000
  C   C196      1.0  0.8194953599999999  0.9431441800000002  0.99521133  1.0000
  C   C197      1.0  0.8177727499999999  0.9961571200000002  0.9112733999999999  1.0000
  C   C198      1.0  0.78863625  0.8926180200000002  0.02543784  1.0000
  C   C199      1.0  0.81975497  0.8795505900000002  0.08562545  1.0000
  C   C200      1.0  0.52284216  0.13910146  0.61456244  1.0000
  C   C201      1.0  0.17178775  0.4581249300000001  0.52543335  1.0000
  C   C202      1.0  0.53167174  0.11462280000000002  0.52889804  1.0000
  C   C203      1.0  0.6962689  0.8150565400000003  0.026781859999999998  1.0000
  C   C204      1.0  0.29288770999999997  0.32516467  0.4936268499999999  1.0000
  C   C205      1.0  0.26186766  0.37535906  0.52410858  1.0000
  C   C206      1.0  0.68966341  0.9915646600000002  0.75814229  1.0000
  C   C207      1.0  0.29266468  0.3865764700000001  0.58434245  1.0000
  C   C208      1.0  0.9960814100000001  0.07500405000000003  0.08956740999999999  1.0000
  C   C209      1.0  0.78494185  0.00538666  0.84861963  1.0000
  C   C210      1.0  0.289812  0.21658081000000007  0.31766356  1.0000
  C   C211      1.0  0.7195446400000001  0.9792176700000003  0.81725285  1.0000
  C   C212      1.0  0.054327980000000005  0.12012787  0.11708121999999999  1.0000
  C   C213      1.0  0.19905701999999995  0.30221497000000014  0.3143318299999999  1.0000
  C   C214      1.0  0.17066806999999998  0.2910134000000001  0.25507844999999996  1.0000
  C   C215      1.0  0.25763994  0.20804722  0.2584011  1.0000
  C   C216      1.0  0.78292149  0.05211364000000002  0.75750687  1.0000
  C   C217      1.0  0.12137683  0.74502575  0.00493451  1.0000
  C   C218      1.0  0.7744565  0.3572592500000001  0.50396952  1.0000
  C   C219      1.0  0.5964340899999999  0.5270326100000002  0.50305368  1.0000
  C   C220      1.0  0.23874486  0.9335177  0.88845304  1.0000
  C   C221      1.0  0.30032481  0.9128031000000002  0.005455039999999999  1.0000
  C   C222      1.0  0.03450637999999998  0.68571458  0.9131332099999999  1.0000
  C   C223      1.0  0.06059402999999991  0.6972639100000002  0.9733775499999998  1.0000
  C   C224      1.0  0.44393872  0.65739569  0.46970285  1.0000
  C   C225      1.0  0.5024542  0.6148063  0.50074874  1.0000
  C   C226      1.0  0.71283647  0.33581655000000005  0.3870149  1.0000
  C   C227      1.0  0.2063422  0.7773604600000001  0.09033964999999998  1.0000
  C   C228      1.0  0.53416357  0.57240839  0.47105253  1.0000
  C   C229      1.0  0.68355127  0.5429829700000002  0.6832353799999998  1.0000
  C   C230      1.0  0.23915469000000003  0.7657572900000003  0.15288636  1.0000
  C   C231      1.0  0.02600156  0.6586983100000002  0.00228809  1.0000
  C   C232      1.0  0.68050464  0.4431441800000001  0.50478867  1.0000
  C   C233      1.0  0.68222725  0.4961571200000001  0.5887265999999999  1.0000
  C   C234      1.0  0.7113637500000001  0.39261802  0.47456216  1.0000
  C   C235      1.0  0.68024503  0.37955059000000013  0.4143745499999999  1.0000
  C   C236      1.0  0.97715784  0.6391014600000002  0.88543756  1.0000
  C   C237      1.0  0.32821224999999987  0.9581249300000002  0.9745666499999998  1.0000
  C   C238      1.0  0.96832826  0.6146228  0.97110196  1.0000
  C   C239      1.0  0.8037311  0.3150565400000001  0.47321814  1.0000
  C   C240      1.0  0.20711229000000003  0.8251646700000003  0.00637315  1.0000
  C   C241      1.0  0.23813233999999991  0.8753590600000002  0.9758914199999997  1.0000
  C   C242      1.0  0.81033659  0.4915646600000001  0.74185771  1.0000
  C   C243      1.0  0.2073353199999999  0.8865764700000002  0.91565755  1.0000
  C   C244      1.0  0.50391859  0.57500405  0.41043258999999993  1.0000
  C   C245      1.0  0.7150581499999998  0.50538666  0.6513803699999999  1.0000
  C   C246      1.0  0.21018799999999996  0.7165808100000002  0.18233643999999993  1.0000
  C   C247      1.0  0.78045536  0.47921767  0.68274715  1.0000
  C   C248      1.0  0.44567202  0.62012787  0.38291878  1.0000
  C   C249      1.0  0.30094298  0.8022149700000002  0.18566817  1.0000
  C   C250      1.0  0.32933193  0.7910134000000002  0.24492155  1.0000
  C   C251      1.0  0.24236006  0.7080472200000002  0.2415989  1.0000
  C   C252      1.0  0.71707851  0.55211364  0.7424931299999998  1.0000
  C   C253      1.0  0.62137683  0.24502575000000004  0.00493451  1.0000
  C   C254      1.0  0.2744565  0.85725925  0.50396952  1.0000
  C   C255      1.0  0.09643408999999999  0.02703261  0.50305368  1.0000
  C   C256      1.0  0.7387448600000001  0.4335177000000001  0.88845304  1.0000
  C   C257      1.0  0.80032481  0.4128031000000001  0.005455039999999999  1.0000
  C   C258      1.0  0.53450638  0.18571458000000005  0.9131332099999999  1.0000
  C   C259      1.0  0.56059403  0.19726391000000004  0.9733775499999998  1.0000
  C   C260      1.0  0.94393872  0.15739569000000006  0.46970285  1.0000
  C   C261      1.0  0.0024541999999999863  0.11480630000000003  0.50074874  1.0000
  C   C262      1.0  0.21283647  0.8358165500000002  0.3870149  1.0000
  C   C263      1.0  0.7063422  0.27736046  0.09033964999999998  1.0000
  C   C264      1.0  0.03416356999999998  0.07240839  0.47105253  1.0000
  C   C265      1.0  0.1835512699999999  0.042982970000000016  0.6832353799999998  1.0000
  C   C266      1.0  0.7391546900000001  0.2657572900000001  0.15288636  1.0000
  C   C267      1.0  0.52600156  0.15869831  0.00228809  1.0000
  C   C268      1.0  0.18050464  0.9431441800000002  0.50478867  1.0000
  C   C269      1.0  0.18222724999999995  0.9961571200000002  0.5887265999999999  1.0000
  C   C270      1.0  0.21136375  0.8926180200000002  0.47456216  1.0000
  C   C271      1.0  0.18024502999999997  0.8795505900000002  0.4143745499999999  1.0000
  C   C272      1.0  0.47715784  0.13910146  0.88543756  1.0000
  C   C273      1.0  0.8282122499999998  0.4581249300000001  0.9745666499999998  1.0000
  C   C274      1.0  0.46832826  0.11462280000000002  0.97110196  1.0000
  C   C275      1.0  0.3037311  0.8150565400000003  0.47321814  1.0000
  C   C276      1.0  0.70711229  0.32516467  0.00637315  1.0000
  C   C277      1.0  0.73813234  0.37535906  0.9758914199999997  1.0000
  C   C278      1.0  0.31033659000000013  0.9915646600000002  0.74185771  1.0000
  C   C279      1.0  0.7073353199999999  0.3865764700000001  0.91565755  1.0000
  C   C280      1.0  0.003918589999999988  0.07500405000000003  0.41043258999999993  1.0000
  C   C281      1.0  0.21505814999999998  0.00538666  0.6513803699999999  1.0000
  C   C282      1.0  0.7101880000000002  0.21658081000000007  0.18233643999999993  1.0000
  C   C283      1.0  0.28045536  0.9792176700000003  0.68274715  1.0000
  C   C284      1.0  0.94567202  0.12012787  0.38291878  1.0000
  C   C285      1.0  0.8009429800000001  0.30221497000000014  0.18566817  1.0000
  C   C286      1.0  0.82933193  0.2910134000000001  0.24492155  1.0000
  C   C287      1.0  0.74236006  0.20804722  0.2415989  1.0000
  C   C288      1.0  0.21707851000000003  0.05211364000000002  0.7424931299999998  1.0000
  N   N1        1.0  0.9426157500000001  0.3955808000000001  0.4129226399999999  1.0000
  N   N2        1.0  0.29875062999999996  0.030998760000000007  0.4167700699999999  1.0000
  N   N3        1.0  0.30098061  0.2547154100000001  0.77349809  1.0000
  N   N4        1.0  0.14644346000000005  0.2580651  0.56314229  1.0000
  N   N5        1.0  0.14922466  0.21353789000000006  0.47437853  1.0000
  N   N6        1.0  0.23869352  0.17935375000000006  0.56456865  1.0000
  N   N7        1.0  0.41533237  0.3386862700000001  0.9116553099999999  1.0000
  N   N8        1.0  0.7745211699999999  0.6953540600000002  0.91512028  1.0000
  N   N9        1.0  0.78005872  0.47283860000000005  0.27267549999999996  1.0000
  N   N10       1.0  0.6237492  0.4640991600000001  0.060907889999999985  1.0000
  N   N11       1.0  0.6221146999999999  0.5189054100000002  0.9725615199999998  1.0000
  N   N12       1.0  0.71280645  0.5505471900000002  0.06267325999999998  1.0000
  N   N13       1.0  0.44261575  0.8955808  0.4129226399999999  1.0000
  N   N14       1.0  0.79875063  0.53099876  0.4167700699999999  1.0000
  N   N15       1.0  0.80098061  0.7547154100000002  0.77349809  1.0000
  N   N16       1.0  0.64644346  0.7580651000000003  0.56314229  1.0000
  N   N17       1.0  0.6492246599999999  0.71353789  0.47437853  1.0000
  N   N18       1.0  0.73869352  0.6793537500000002  0.56456865  1.0000
  N   N19       1.0  0.9153323700000001  0.83868627  0.9116553099999999  1.0000
  N   N20       1.0  0.27452117  0.19535406000000005  0.91512028  1.0000
  N   N21       1.0  0.28005872  0.9728386000000002  0.27267549999999996  1.0000
  N   N22       1.0  0.12374919999999999  0.9640991600000002  0.060907889999999985  1.0000
  N   N23       1.0  0.12211469999999995  0.018905410000000008  0.9725615199999998  1.0000
  N   N24       1.0  0.21280645  0.05054719000000001  0.06267325999999998  1.0000
  N   N25       1.0  0.05738425  0.3955808000000001  0.08707736  1.0000
  N   N26       1.0  0.70124937  0.030998760000000007  0.08322992999999998  1.0000
  N   N27       1.0  0.6990193899999999  0.2547154100000001  0.7265019099999999  1.0000
  N   N28       1.0  0.85355654  0.2580651  0.9368577099999997  1.0000
  N   N29       1.0  0.85077534  0.21353789000000006  0.02562147  1.0000
  N   N30       1.0  0.7613064799999998  0.17935375000000006  0.9354313499999998  1.0000
  N   N31       1.0  0.58466763  0.3386862700000001  0.5883446899999999  1.0000
  N   N32       1.0  0.22547883  0.6953540600000002  0.58487972  1.0000
  N   N33       1.0  0.21994128000000002  0.47283860000000005  0.22732449999999998  1.0000
  N   N34       1.0  0.37625079999999994  0.4640991600000001  0.43909210999999987  1.0000
  N   N35       1.0  0.37788530000000004  0.5189054100000002  0.52743848  1.0000
  N   N36       1.0  0.28719354999999996  0.5505471900000002  0.4373267399999999  1.0000
  N   N37       1.0  0.55738425  0.8955808  0.08707736  1.0000
  N   N38       1.0  0.20124937000000004  0.53099876  0.08322992999999998  1.0000
  N   N39       1.0  0.19901938999999993  0.7547154100000002  0.7265019099999999  1.0000
  N   N40       1.0  0.3535565399999999  0.7580651000000003  0.9368577099999997  1.0000
  N   N41       1.0  0.35077534  0.71353789  0.02562147  1.0000
  N   N42       1.0  0.2613064799999999  0.6793537500000002  0.9354313499999998  1.0000
  N   N43       1.0  0.08466762999999995  0.83868627  0.5883446899999999  1.0000
  N   N44       1.0  0.72547883  0.19535406000000005  0.58487972  1.0000
  N   N45       1.0  0.7199412800000001  0.9728386000000002  0.22732449999999998  1.0000
  N   N46       1.0  0.8762508  0.9640991600000002  0.43909210999999987  1.0000
  N   N47       1.0  0.8778853  0.018905410000000008  0.52743848  1.0000
  N   N48       1.0  0.78719355  0.05054719000000001  0.4373267399999999  1.0000
  N   N49       1.0  0.05738425000000002  0.6044192  0.58707736  1.0000
  N   N50       1.0  0.70124937  0.96900124  0.58322993  1.0000
  N   N51       1.0  0.69901939  0.7452845900000001  0.22650190999999997  1.0000
  N   N52       1.0  0.85355654  0.7419349000000002  0.43685771  1.0000
  N   N53       1.0  0.85077534  0.78646211  0.52562147  1.0000
  N   N54       1.0  0.76130648  0.8206462500000002  0.43543134999999994  1.0000
  N   N55       1.0  0.58466763  0.66131373  0.08834468999999999  1.0000
  N   N56       1.0  0.22547883  0.30464594000000006  0.08487972  1.0000
  N   N57       1.0  0.21994127999999993  0.5271614  0.7273244999999999  1.0000
  N   N58       1.0  0.3762507999999999  0.53590084  0.9390921099999998  1.0000
  N   N59       1.0  0.37788530000000004  0.4810945900000001  0.027438479999999998  1.0000
  N   N60       1.0  0.28719355  0.44945281  0.9373267399999999  1.0000
  N   N61       1.0  0.55738425  0.1044192  0.58707736  1.0000
  N   N62       1.0  0.20124937000000004  0.4690012400000001  0.58322993  1.0000
  N   N63       1.0  0.19901939  0.24528459000000005  0.22650190999999997  1.0000
  N   N64       1.0  0.35355654  0.24193490000000006  0.43685771  1.0000
  N   N65       1.0  0.35077533999999994  0.28646211  0.52562147  1.0000
  N   N66       1.0  0.26130648  0.32064625  0.43543134999999994  1.0000
  N   N67       1.0  0.08466762999999998  0.16131373000000004  0.08834468999999999  1.0000
  N   N68       1.0  0.72547883  0.8046459400000002  0.08487972  1.0000
  N   N69       1.0  0.7199412800000001  0.0271614  0.7273244999999999  1.0000
  N   N70       1.0  0.8762507999999999  0.03590084000000002  0.9390921099999998  1.0000
  N   N71       1.0  0.8778853  0.9810945900000002  0.027438479999999998  1.0000
  N   N72       1.0  0.78719355  0.9494528100000003  0.9373267399999999  1.0000
  N   N73       1.0  0.9426157500000001  0.6044192  0.91292264  1.0000
  N   N74       1.0  0.29875063  0.96900124  0.91677007  1.0000
  N   N75       1.0  0.3009806099999999  0.7452845900000001  0.27349808999999997  1.0000
  N   N76       1.0  0.14644346  0.7419349000000002  0.06314229  1.0000
  N   N77       1.0  0.14922466  0.78646211  0.9743785299999999  1.0000
  N   N78       1.0  0.23869352  0.8206462500000002  0.06456865  1.0000
  N   N79       1.0  0.41533237  0.66131373  0.41165531  1.0000
  N   N80       1.0  0.7745211699999999  0.30464594000000006  0.4151202799999999  1.0000
  N   N81       1.0  0.78005872  0.5271614  0.7726755  1.0000
  N   N82       1.0  0.6237492  0.53590084  0.56090789  1.0000
  N   N83       1.0  0.6221147  0.4810945900000001  0.4725615199999999  1.0000
  N   N84       1.0  0.71280645  0.44945281  0.5626732599999998  1.0000
  N   N85       1.0  0.44261575  0.1044192  0.91292264  1.0000
  N   N86       1.0  0.79875063  0.4690012400000001  0.91677007  1.0000
  N   N87       1.0  0.80098061  0.24528459000000005  0.27349808999999997  1.0000
  N   N88       1.0  0.64644346  0.24193490000000006  0.06314229  1.0000
  N   N89       1.0  0.6492246599999999  0.28646211  0.9743785299999999  1.0000
  N   N90       1.0  0.7386935200000001  0.32064625  0.06456865  1.0000
  N   N91       1.0  0.9153323700000001  0.16131373000000004  0.41165531  1.0000
  N   N92       1.0  0.2745211699999999  0.8046459400000002  0.4151202799999999  1.0000
  N   N93       1.0  0.28005872  0.0271614  0.7726755  1.0000
  N   N94       1.0  0.12374919999999998  0.03590084000000002  0.56090789  1.0000
  N   N95       1.0  0.12211469999999999  0.9810945900000002  0.4725615199999999  1.0000
  N   N96       1.0  0.21280644999999992  0.9494528100000003  0.5626732599999998  1.0000
