data_image0
_chemical_formula_structural       O8Cu2C4O8Cu2C4O8Cu2C4O8Cu2C4O8Cu2C4O8Cu2C4O8Cu2C4O8Cu2C4O8Cu2C4O8Cu2C4O8Cu2C4O8Cu2C10H2C6H2C6H2C6H2C6H2C6H2C6H2C6H2C6H2C6H2C6H2C6H2C6F4C6F4C6F4C6F4C6F4C6F4C6F4C6F4C6F4C6F4C6F4C6F4C6F4C6F4C6F4C6F4C6F4C6F4C6F4C6F4C6F4C6F4C6F4C6F4C6F4C6F4C6F4C6F4C6F4C6F4C6F4C6F4C6F4C6F4C6F4C6F4C6F4C6F4C6F4C6F4C6F4C6F4C6F4C6F4C6F4C6F4C6F4C6F4
_chemical_formula_sum              "O96 Cu24 C408 H24 F192"
_cell_length_a       33.0251
_cell_length_b       34.8289
_cell_length_c       31.172599999999996
_cell_angle_alpha    89.8797
_cell_angle_beta     90.3601
_cell_angle_gamma    90.0844

_space_group_name_H-M_alt    "P 1"
_space_group_IT_number       1

loop_
  _space_group_symop_operation_xyz
  'x, y, z'

loop_
  _atom_site_type_symbol
  _atom_site_label
  _atom_site_symmetry_multiplicity
  _atom_site_fract_x
  _atom_site_fract_y
  _atom_site_fract_z
  _atom_site_occupancy
  O   O1        1.0  0.40634  0.34384  0.9596599999999998  1.0000
  O   O2        1.0  0.35113  0.4033  0.037549999999999986  1.0000
  O   O3        1.0  0.4035700000000001  0.34742  0.04276  1.0000
  O   O4        1.0  0.3549200000000001  0.40015  0.9536299999999999  1.0000
  O   O5        1.0  0.30363  0.35983  0.9554999999999999  1.0000
  O   O6        1.0  0.35402000000000006  0.30491  0.04104999999999999  1.0000
  O   O7        1.0  0.30147  0.36065  0.03823999999999999  1.0000
  O   O8        1.0  0.35509  0.30291  0.9580599999999999  1.0000
  Cu  Cu1       1.0  0.38398  0.378  0.9984599999999999  1.0000
  Cu  Cu2       1.0  0.3235  0.3279  0.9981499999999999  1.0000
  C   C1        1.0  0.39001  0.31325  0.94578  1.0000
  C   C2        1.0  0.317  0.3919  0.05115999999999998  1.0000
  C   C3        1.0  0.38749  0.31663  0.05647999999999999  1.0000
  C   C4        1.0  0.32052  0.38936  0.9395899999999999  1.0000
  O   O9        1.0  0.59599  0.65  0.95579  1.0000
  O   O10       1.0  0.64575  0.60226  0.04772999999999999  1.0000
  O   O11       1.0  0.59435  0.65494  0.04122999999999999  1.0000
  O   O12       1.0  0.65281  0.59375  0.9681799999999999  1.0000
  O   O13       1.0  0.69092  0.64352  0.9516099999999998  1.0000
  O   O14       1.0  0.64382  0.69754  0.03907  1.0000
  O   O15       1.0  0.69826  0.64064  0.0379  1.0000
  O   O16       1.0  0.64048  0.69741  0.9587999999999999  1.0000
  Cu  Cu3       1.0  0.61662  0.62127  0.0017999999999999995  1.0000
  Cu  Cu4       1.0  0.6743  0.67334  0.9974699999999999  1.0000
  C   C5        1.0  0.60848  0.68271  0.9432999999999999  1.0000
  C   C6        1.0  0.68145  0.61275  0.05731  1.0000
  C   C7        1.0  0.60994  0.68641  0.053699999999999984  1.0000
  C   C8        1.0  0.68135  0.60852  0.94656  1.0000
  O   O17       1.0  0.59181  0.34842  0.040609999999999806  1.0000
  O   O18       1.0  0.6472200000000002  0.40312  0.9582099999999998  1.0000
  O   O19       1.0  0.59471  0.34707  0.9578799999999997  1.0000
  O   O20       1.0  0.64499  0.40405  0.04278999999999988  1.0000
  O   O21       1.0  0.69619  0.36373  0.04220000000000001  1.0000
  O   O22       1.0  0.64316  0.30374  0.9632199999999997  1.0000
  O   O23       1.0  0.69528  0.35931  0.9595199999999998  1.0000
  O   O24       1.0  0.64305  0.30782  0.045759999999999794  1.0000
  Cu  Cu5       1.0  0.61482  0.38017  0.9996299999999998  1.0000
  Cu  Cu6       1.0  0.67446  0.32954  0.0031000000000001022  1.0000
  C   C9        1.0  0.60799  0.31866  0.05678999999999989  1.0000
  C   C10       1.0  0.68063  0.39019  0.9443599999999998  1.0000
  C   C11       1.0  0.6099300000000002  0.31507  0.9469499999999997  1.0000
  C   C12       1.0  0.67975  0.394  0.05655000000000009  1.0000
  O   O25       1.0  0.40553  0.65571  0.04106999999999994  1.0000
  O   O26       1.0  0.35447  0.59567  0.9600399999999998  1.0000
  O   O27       1.0  0.40556  0.6526  0.9578399999999998  1.0000
  O   O28       1.0  0.35273  0.5996  0.04382999999999981  1.0000
  O   O29       1.0  0.30165  0.63975  0.03806999999999982  1.0000
  O   O30       1.0  0.35596  0.69504  0.9564999999999998  1.0000
  O   O31       1.0  0.3048700000000001  0.63811  0.9554899999999998  1.0000
  O   O32       1.0  0.35427  0.6964799999999999  0.03923999999999972  1.0000
  Cu  Cu7       1.0  0.3846000000000001  0.62164  0.0011599999999998278  1.0000
  Cu  Cu8       1.0  0.3241  0.67147  0.9972099999999998  1.0000
  C   C13       1.0  0.38878  0.68646  0.053500000000000096  1.0000
  C   C14       1.0  0.32119  0.60689  0.9438299999999997  1.0000
  C   C15       1.0  0.38996  0.68331  0.9431099999999998  1.0000
  C   C16       1.0  0.3174200000000001  0.61007  0.05491000000000001  1.0000
  O   O33       1.0  0.95704  0.3984  0.3573399999999999  1.0000
  O   O34       1.0  0.04231000000000001  0.34327  0.40313  1.0000
  O   O35       1.0  0.03935  0.39831  0.35249999999999987  1.0000
  O   O36       1.0  0.96826  0.33541  0.40971999999999986  1.0000
  O   O37       1.0  0.95271  0.30645  0.3490199999999999  1.0000
  O   O38       1.0  0.03217  0.36218  0.2947799999999999  1.0000
  O   O39       1.0  0.03511000000000001  0.30248  0.34963  1.0000
  O   O40       1.0  0.9568300000000001  0.36278  0.2989199999999999  1.0000
  Cu  Cu9       1.0  0.00013999999999999934  0.37387  0.3854399999999999  1.0000
  Cu  Cu10      1.0  0.9949900000000002  0.3285  0.3183999999999999  1.0000
  C   C17       1.0  0.94329  0.391  0.32004  1.0000
  C   C18       1.0  0.05267  0.31261  0.38432  1.0000
  C   C19       1.0  0.04886  0.39012  0.31415  1.0000
  C   C20       1.0  0.94815  0.3102  0.3892099999999999  1.0000
  O   O41       1.0  0.03625000000000001  0.66126  0.59192  1.0000
  O   O42       1.0  0.96417  0.60166  0.65219  1.0000
  O   O43       1.0  0.958  0.65786  0.5987699999999998  1.0000
  O   O44       1.0  0.04292  0.60303  0.6447999999999998  1.0000
  O   O45       1.0  0.04441  0.64211  0.7004199999999998  1.0000
  O   O46       1.0  0.96429  0.70042  0.65048  1.0000
  O   O47       1.0  0.9661800000000001  0.64335  0.7053999999999998  1.0000
  O   O48       1.0  0.04247  0.69996  0.6477499999999998  1.0000
  Cu  Cu11      1.0  0.0001899999999999987  0.62677  0.6164899999999998  1.0000
  Cu  Cu12      1.0  0.004610000000000001  0.67551  0.68153  1.0000
  C   C21       1.0  0.05163  0.69065  0.60974  1.0000
  C   C22       1.0  0.9524  0.6127  0.6888499999999999  1.0000
  C   C23       1.0  0.94709  0.68909  0.61615  1.0000
  C   C24       1.0  0.05763  0.61278  0.6809099999999998  1.0000
  O   O49       1.0  0.03761999999999999  0.59762  0.3522999999999999  1.0000
  O   O50       1.0  0.9654  0.65947  0.4092899999999999  1.0000
  O   O51       1.0  0.95862  0.60031  0.3580299999999999  1.0000
  O   O52       1.0  0.04390000000000005  0.65598  0.40274999999999994  1.0000
  O   O53       1.0  0.03825999999999997  0.69714  0.34939  1.0000
  O   O54       1.0  0.95856  0.63771  0.3007199999999999  1.0000
  O   O55       1.0  0.95995  0.69658  0.3518999999999999  1.0000
  O   O56       1.0  0.03671000000000002  0.63806  0.29768  1.0000
  Cu  Cu13      1.0  0.0014499999999999513  0.62435  0.38623  1.0000
  Cu  Cu14      1.0  0.99817  0.67129  0.31929999999999986  1.0000
  C   C25       1.0  0.04994999999999994  0.60766  0.3154399999999999  1.0000
  C   C26       1.0  0.95029  0.68835  0.39015  1.0000
  C   C27       1.0  0.9447200000000002  0.60911  0.3212199999999999  1.0000
  C   C28       1.0  0.05520999999999998  0.68667  0.38419999999999993  1.0000
  O   O57       1.0  0.95574  0.346  0.5966199999999998  1.0000
  O   O58       1.0  0.04272000000000009  0.40044  0.6399099999999998  1.0000
  O   O59       1.0  0.029539999999999896  0.33636  0.59013  1.0000
  O   O60       1.0  0.96039  0.40213  0.64543  1.0000
  O   O61       1.0  0.9666800000000002  0.36691  0.7041399999999998  1.0000
  O   O62       1.0  0.044850000000000056  0.30886  0.6518399999999998  1.0000
  O   O63       1.0  0.041870000000000074  0.36665  0.6998899999999998  1.0000
  O   O64       1.0  0.9624  0.30622  0.65132  1.0000
  Cu  Cu15      1.0  0.9987900000000001  0.37611  0.61306  1.0000
  Cu  Cu16      1.0  0.0031300000000000767  0.33229  0.6816599999999998  1.0000
  C   C29       1.0  0.94483  0.31592  0.6164399999999998  1.0000
  C   C30       1.0  0.05614000000000008  0.3939  0.6775699999999998  1.0000
  C   C31       1.0  0.049209999999999976  0.3114  0.61151  1.0000
  C   C32       1.0  0.95073  0.39481  0.684  1.0000
  O   O65       1.0  0.4009  0.03991  0.35137  1.0000
  O   O66       1.0  0.3423500000000001  0.96296  0.4032699999999999  1.0000
  O   O67       1.0  0.40091  0.9647300000000001  0.3482399999999999  1.0000
  O   O68       1.0  0.34133  0.0378  0.4055199999999999  1.0000
  O   O69       1.0  0.298  0.03944  0.35142  1.0000
  O   O70       1.0  0.35631  0.96559  0.29521999999999987  1.0000
  O   O71       1.0  0.2974  0.9651499999999998  0.3504299999999999  1.0000
  O   O72       1.0  0.35778  0.03976  0.2968399999999999  1.0000
  Cu  Cu17      1.0  0.37589  0.0012700000000000003  0.38246  1.0000
  Cu  Cu18      1.0  0.32295  0.00268  0.3181  1.0000
  C   C33       1.0  0.38947  0.05260000000000001  0.31508999999999987  1.0000
  C   C34       1.0  0.30979  0.9512800000000001  0.3858199999999999  1.0000
  C   C35       1.0  0.38861  0.9525799999999999  0.31199999999999994  1.0000
  C   C36       1.0  0.30928  0.05099  0.38821  1.0000
  O   O73       1.0  0.66056  0.9635  0.59518  1.0000
  O   O74       1.0  0.6005  0.0353  0.6533299999999997  1.0000
  O   O75       1.0  0.66047  0.03826  0.60005  1.0000
  O   O76       1.0  0.60177  0.96008  0.6499799999999999  1.0000
  O   O77       1.0  0.64407  0.9600999999999998  0.7051899999999998  1.0000
  O   O78       1.0  0.70575  0.03435  0.6523999999999998  1.0000
  O   O79       1.0  0.64512  0.03449  0.7063099999999998  1.0000
  O   O80       1.0  0.70299  0.9597  0.6502  1.0000
  Cu  Cu19      1.0  0.62637  0.99951  0.61927  1.0000
  Cu  Cu20      1.0  0.6789  0.9970500000000001  0.6839299999999998  1.0000
  C   C37       1.0  0.69168  0.94915  0.6130499999999998  1.0000
  C   C38       1.0  0.61271  0.04742  0.68957  1.0000
  C   C39       1.0  0.69339  0.04915  0.61746  1.0000
  C   C40       1.0  0.61283  0.9470400000000001  0.68631  1.0000
  O   O81       1.0  0.39834000000000014  0.96339  0.6517499999999998  1.0000
  O   O82       1.0  0.33434000000000014  0.03632999999999997  0.59908  1.0000
  O   O83       1.0  0.39574  0.038759999999999906  0.6521799999999998  1.0000
  O   O84       1.0  0.33859  0.96224  0.5978399999999998  1.0000
  O   O85       1.0  0.29485  0.9611500000000001  0.6511299999999998  1.0000
  O   O86       1.0  0.3545  0.03491  0.7075999999999998  1.0000
  O   O87       1.0  0.29281  0.03542000000000001  0.6544699999999998  1.0000
  O   O88       1.0  0.35522  0.96062  0.7055199999999999  1.0000
  Cu  Cu21      1.0  0.37121  0.0005900000000000906  0.6198599999999997  1.0000
  Cu  Cu22      1.0  0.32011  0.9978599999999999  0.6851999999999998  1.0000
  C   C41       1.0  0.38734000000000013  0.9492  0.68742  1.0000
  C   C42       1.0  0.30258  0.04794999999999994  0.61772  1.0000
  C   C43       1.0  0.38514  0.049490000000000034  0.6893199999999998  1.0000
  C   C44       1.0  0.30669000000000013  0.94901  0.61491  1.0000
  O   O89       1.0  0.6028400000000003  0.96312  0.3469699999999999  1.0000
  O   O90       1.0  0.66189  0.038370000000000015  0.40167999999999987  1.0000
  O   O91       1.0  0.60302  0.03813  0.3468099999999999  1.0000
  O   O92       1.0  0.66181  0.96296  0.4020499999999999  1.0000
  O   O93       1.0  0.70464  0.9613499999999999  0.3480299999999999  1.0000
  O   O94       1.0  0.64861  0.03974999999999995  0.29538  1.0000
  O   O95       1.0  0.7084  0.035290000000000044  0.35152  1.0000
  O   O96       1.0  0.64544  0.96528  0.29260999999999987  1.0000
  Cu  Cu23      1.0  0.628  0.0006500000000000397  0.3797399999999999  1.0000
  Cu  Cu24      1.0  0.68116  0.0005500000000000506  0.3165099999999999  1.0000
  C   C45       1.0  0.61391  0.9517500000000001  0.31022  1.0000
  C   C46       1.0  0.6956200000000002  0.049350000000000005  0.3865  1.0000
  C   C47       1.0  0.61599  0.05203000000000002  0.3117999999999999  1.0000
  C   C48       1.0  0.693  0.94899  0.38426  1.0000
  C   C49       1.0  0.83706  0.78457  0.47982999999999987  1.0000
  C   C50       1.0  0.83455  0.78395  0.52524  1.0000
  C   C51       1.0  0.8080600000000002  0.80932  0.5458199999999997  1.0000
  C   C52       1.0  0.7845700000000002  0.83561  0.5224399999999998  1.0000
  C   C53       1.0  0.7859  0.83517  0.47704  1.0000
  C   C54       1.0  0.81203  0.80957  0.4563799999999999  1.0000
  H   H1        1.0  0.81366  0.80979  0.42165  1.0000
  H   H2        1.0  0.80662  0.80944  0.58056  1.0000
  C   C55       1.0  0.16077000000000005  0.21213  0.4772399999999999  1.0000
  C   C56       1.0  0.15538  0.20944  0.5224399999999998  1.0000
  C   C57       1.0  0.17787  0.18182  0.5454399999999998  1.0000
  C   C58       1.0  0.20501999999999998  0.1571  0.5248499999999998  1.0000
  C   C59       1.0  0.20988  0.15972  0.47993999999999987  1.0000
  C   C60       1.0  0.18794  0.18732  0.4568899999999999  1.0000
  H   H3        1.0  0.19191  0.18934  0.42243999999999987  1.0000
  H   H4        1.0  0.17357000000000006  0.17879  0.5797299999999997  1.0000
  C   C61       1.0  0.16762  0.78389  0.4718299999999999  1.0000
  C   C62       1.0  0.16378  0.78599  0.5171  1.0000
  C   C63       1.0  0.18748  0.81232  0.54018  1.0000
  C   C64       1.0  0.21382  0.83754  0.51921  1.0000
  C   C65       1.0  0.21674  0.83634  0.47405999999999987  1.0000
  C   C66       1.0  0.19443  0.809  0.45099  1.0000
  H   H5        1.0  0.19706  0.8081  0.4163499999999999  1.0000
  H   H6        1.0  0.1848  0.81374  0.57479  1.0000
  C   C67       1.0  0.78546  0.16276  0.5255  1.0000
  C   C68       1.0  0.78916  0.16003  0.4804299999999999  1.0000
  C   C69       1.0  0.81626  0.1846  0.4591699999999999  1.0000
  C   C70       1.0  0.83939  0.2122  0.4815099999999999  1.0000
  C   C71       1.0  0.83437  0.21541  0.52673  1.0000
  C   C72       1.0  0.80736  0.19074  0.5478299999999998  1.0000
  H   H7        1.0  0.80424  0.19256  0.58239  1.0000
  H   H8        1.0  0.81972  0.18178  0.4247899999999999  1.0000
  C   C73       1.0  0.47795  0.77475  0.8200299999999998  1.0000
  C   C74       1.0  0.52072  0.7734  0.8194199999999998  1.0000
  C   C75       1.0  0.54216  0.79884  0.7929599999999998  1.0000
  C   C76       1.0  0.52174  0.82664  0.7684499999999997  1.0000
  C   C77       1.0  0.47904  0.82818  0.7692899999999998  1.0000
  C   C78       1.0  0.4576  0.80175  0.7943999999999999  1.0000
  H   H9        1.0  0.42483  0.80336  0.7954899999999998  1.0000
  H   H10       1.0  0.57499  0.79874  0.7937099999999998  1.0000
  C   C79       1.0  0.52284  0.17005  0.22605999999999996  1.0000
  C   C80       1.0  0.48018000000000005  0.17026  0.22851999999999995  1.0000
  C   C81       1.0  0.4579700000000001  0.19731  0.20490999999999995  1.0000
  C   C82       1.0  0.47734  0.22345  0.17754  1.0000
  C   C83       1.0  0.52016  0.22334  0.17513999999999993  1.0000
  C   C84       1.0  0.54238  0.19706  0.19997999999999994  1.0000
  H   H11       1.0  0.57512  0.19655  0.19759999999999994  1.0000
  H   H12       1.0  0.42516  0.19682  0.20633999999999994  1.0000
  C   C85       1.0  0.52111  0.16325  0.7793399999999998  1.0000
  C   C86       1.0  0.47839  0.1644  0.77821  1.0000
  C   C87       1.0  0.45773  0.19153  0.8029299999999998  1.0000
  C   C88       1.0  0.47889  0.21701  0.82971  1.0000
  C   C89       1.0  0.5217500000000002  0.21641  0.83027  1.0000
  C   C90       1.0  0.5423  0.18966  0.8048499999999997  1.0000
  H   H13       1.0  0.57513  0.18887  0.8055599999999999  1.0000
  H   H14       1.0  0.4249  0.19143  0.8030799999999998  1.0000
  C   C91       1.0  0.52108  0.83607  0.22178  1.0000
  C   C92       1.0  0.47837  0.83645  0.22109999999999994  1.0000
  C   C93       1.0  0.45736  0.80998  0.19539999999999993  1.0000
  C   C94       1.0  0.47819  0.78379  0.16951999999999995  1.0000
  C   C95       1.0  0.52108  0.78334  0.17035999999999996  1.0000
  C   C96       1.0  0.54195  0.80921  0.19699  1.0000
  H   H15       1.0  0.5747900000000001  0.80937  0.19726999999999995  1.0000
  H   H16       1.0  0.42454  0.81078  0.19428999999999993  1.0000
  C   C97       1.0  0.77524  0.48011  0.8253599999999998  1.0000
  C   C98       1.0  0.77842  0.52048  0.8318499999999998  1.0000
  C   C99       1.0  0.80798  0.541  0.8088799999999998  1.0000
  C   C100      1.0  0.83392  0.52271  0.7800899999999997  1.0000
  C   C101      1.0  0.8307  0.48280000000000006  0.7739299999999998  1.0000
  C   C102      1.0  0.80102  0.4621199999999999  0.7958699999999997  1.0000
  H   H17       1.0  0.79939  0.43125  0.7916299999999997  1.0000
  H   H18       1.0  0.81148  0.57161  0.8139599999999998  1.0000
  C   C103      1.0  0.17021  0.51864  0.22628999999999994  1.0000
  C   C104      1.0  0.17060000000000006  0.47817  0.22563999999999995  1.0000
  C   C105      1.0  0.19822  0.45902999999999994  0.19928999999999994  1.0000
  C   C106      1.0  0.22451  0.4795499999999999  0.17233999999999994  1.0000
  C   C107      1.0  0.22441  0.52024  0.17328999999999994  1.0000
  C   C108      1.0  0.19775  0.53913  0.20104999999999995  1.0000
  H   H19       1.0  0.19724  0.57025  0.20180999999999993  1.0000
  H   H20       1.0  0.19761  0.42792  0.19788  1.0000
  C   C109      1.0  0.8174500000000002  0.52176  0.24028  1.0000
  C   C110      1.0  0.81736  0.48129  0.23960999999999993  1.0000
  C   C111      1.0  0.7902400000000003  0.46194  0.21243999999999993  1.0000
  C   C112      1.0  0.76492  0.48209  0.18383  1.0000
  C   C113      1.0  0.76504  0.52275  0.18484  1.0000
  C   C114      1.0  0.79049  0.54202  0.21381999999999995  1.0000
  H   H21       1.0  0.79176  0.57315  0.21320999999999996  1.0000
  H   H22       1.0  0.79089  0.43083  0.21148999999999996  1.0000
  C   C115      1.0  0.23687000000000005  0.51911  0.81503  1.0000
  C   C116      1.0  0.23688000000000006  0.47851  0.8122999999999998  1.0000
  C   C117      1.0  0.21129000000000003  0.46051999999999993  0.78221  1.0000
  C   C118      1.0  0.18388  0.48179  0.7572899999999998  1.0000
  C   C119      1.0  0.18369  0.52218  0.7604199999999998  1.0000
  C   C120      1.0  0.21109999999999998  0.54042  0.7881999999999998  1.0000
  H   H23       1.0  0.21024  0.57143  0.79124  1.0000
  H   H24       1.0  0.21052  0.42943  0.78044  1.0000
  C   C121      1.0  0.30243  0.41174  0.12607999999999994  1.0000
  C   C122      1.0  0.29466  0.41533  0.08196999999999997  1.0000
  C   C123      1.0  0.26399  0.44006  0.06748  1.0000
  C   C124      1.0  0.24128  0.46116000000000007  0.09685999999999997  1.0000
  C   C125      1.0  0.24901  0.45772  0.14111999999999994  1.0000
  C   C126      1.0  0.27954  0.43264  0.15554999999999994  1.0000
  F   F1        1.0  0.28738  0.42877  0.19814999999999994  1.0000
  F   F2        1.0  0.33177  0.38759  0.1405  1.0000
  F   F3        1.0  0.21112  0.48428999999999994  0.08225  1.0000
  F   F4        1.0  0.25585  0.44341  0.024869999999999993  1.0000
  C   C127      1.0  0.6875  0.58745  0.13185999999999995  1.0000
  C   C128      1.0  0.70374  0.59145  0.09055  1.0000
  C   C129      1.0  0.74036  0.57321  0.08052999999999998  1.0000
  C   C130      1.0  0.75986  0.55021  0.11108999999999997  1.0000
  C   C131      1.0  0.7435  0.54601  0.15230999999999997  1.0000
  C   C132      1.0  0.70782  0.56559  0.16289999999999993  1.0000
  F   F5        1.0  0.69235  0.56286  0.20303999999999994  1.0000
  F   F6        1.0  0.65229  0.60516  0.14219  1.0000
  F   F7        1.0  0.79489  0.53222  0.10068999999999999  1.0000
  F   F8        1.0  0.75653  0.57679  0.040789999999999986  1.0000
  C   C133      1.0  0.68454  0.43881  0.8843399999999998  1.0000
  C   C134      1.0  0.70356  0.4115  0.91119  1.0000
  C   C135      1.0  0.74546  0.40524  0.9068699999999997  1.0000
  C   C136      1.0  0.76802  0.42669  0.8777999999999998  1.0000
  C   C137      1.0  0.74938  0.45494  0.85219  1.0000
  C   C138      1.0  0.70727  0.46011  0.8547799999999998  1.0000
  F   F9        1.0  0.68839  0.48635  0.8293899999999997  1.0000
  F   F10       1.0  0.64405  0.445  0.8866999999999998  1.0000
  F   F11       1.0  0.80876  0.42151  0.8766099999999998  1.0000
  F   F12       1.0  0.7653  0.37962  0.9322799999999998  1.0000
  C   C139      1.0  0.31153  0.587  0.8679299999999998  1.0000
  C   C140      1.0  0.3009600000000001  0.58332  0.91125  1.0000
  C   C141      1.0  0.26996999999999993  0.55793  0.9231399999999997  1.0000
  C   C142      1.0  0.24953  0.53647  0.8919099999999998  1.0000
  C   C143      1.0  0.25994  0.54018  0.8484199999999997  1.0000
  C   C144      1.0  0.29093  0.56575  0.8366199999999998  1.0000
  F   F13       1.0  0.3011900000000001  0.56998  0.7947699999999998  1.0000
  F   F14       1.0  0.34131  0.61166  0.85601  1.0000
  F   F15       1.0  0.21882  0.5129  0.9038999999999998  1.0000
  F   F16       1.0  0.25926  0.55435  0.96496  1.0000
  C   C145      1.0  0.11152999999999998  0.30297  0.4347199999999999  1.0000
  C   C146      1.0  0.08422  0.28791  0.40405999999999986  1.0000
  C   C147      1.0  0.08562  0.24840999999999996  0.3946699999999999  1.0000
  C   C148      1.0  0.11188  0.22423  0.4172799999999999  1.0000
  C   C149      1.0  0.13724000000000003  0.23897  0.44973999999999986  1.0000
  C   C150      1.0  0.13802  0.27871  0.4570899999999999  1.0000
  F   F17       1.0  0.16361999999999996  0.29385  0.4868399999999999  1.0000
  F   F18       1.0  0.11226  0.34112  0.44358  1.0000
  F   F19       1.0  0.11049  0.18589  0.4095199999999999  1.0000
  F   F20       1.0  0.05991  0.23262999999999998  0.3654499999999999  1.0000
  C   C151      1.0  0.12151000000000002  0.71375  0.5961099999999998  1.0000
  C   C152      1.0  0.08014  0.71465  0.5859199999999998  1.0000
  C   C153      1.0  0.06589  0.73957  0.5538499999999997  1.0000
  C   C154      1.0  0.09288  0.76352  0.5320699999999998  1.0000
  C   C155      1.0  0.13464  0.76189  0.54125  1.0000
  C   C156      1.0  0.14867000000000002  0.73706  0.5737499999999998  1.0000
  F   F21       1.0  0.18881  0.73484  0.5831399999999998  1.0000
  F   F22       1.0  0.13558  0.68987  0.62729  1.0000
  F   F23       1.0  0.07825  0.78861  0.5024499999999997  1.0000
  F   F24       1.0  0.02574  0.74128  0.5443799999999998  1.0000
  C   C157      1.0  0.88003  0.71082  0.40322  1.0000
  C   C158      1.0  0.92152  0.71297  0.4127299999999999  1.0000
  C   C159      1.0  0.93555  0.73939  0.4432999999999999  1.0000
  C   C160      1.0  0.90827  0.76343  0.4643599999999999  1.0000
  C   C161      1.0  0.8664300000000001  0.76052  0.4559899999999999  1.0000
  C   C162      1.0  0.8526  0.73431  0.4248399999999999  1.0000
  F   F25       1.0  0.81241  0.73081  0.4162099999999999  1.0000
  F   F26       1.0  0.86611  0.68547  0.37352  1.0000
  F   F27       1.0  0.9227  0.7898  0.49259999999999987  1.0000
  F   F28       1.0  0.97575  0.74228  0.4521599999999999  1.0000
  C   C163      1.0  0.9107  0.25201  0.60793  1.0000
  C   C164      1.0  0.91267  0.29133  0.5976199999999998  1.0000
  C   C165      1.0  0.88537  0.30626  0.5668399999999998  1.0000
  C   C166      1.0  0.8583  0.28201  0.54527  1.0000
  C   C167      1.0  0.85848  0.24237  0.5535199999999998  1.0000
  C   C168      1.0  0.88388  0.22781  0.5860999999999997  1.0000
  F   F29       1.0  0.88481  0.18957  0.59466  1.0000
  F   F30       1.0  0.93641  0.23635999999999996  0.6372599999999998  1.0000
  F   F31       1.0  0.8327400000000003  0.29702  0.5153799999999997  1.0000
  F   F32       1.0  0.88521  0.34428  0.5570999999999998  1.0000
  C   C169      1.0  0.41952  0.11822  0.31330999999999987  1.0000
  C   C170      1.0  0.41336  0.08243999999999999  0.29363  1.0000
  C   C171      1.0  0.42956  0.07552  0.2528499999999999  1.0000
  C   C172      1.0  0.45206  0.10396  0.23212999999999995  1.0000
  C   C173      1.0  0.45782  0.13991  0.25154  1.0000
  C   C174      1.0  0.44102  0.14709  0.29199  1.0000
  F   F33       1.0  0.4454200000000001  0.18204  0.31066  1.0000
  F   F34       1.0  0.4035900000000001  0.12553  0.35249999999999987  1.0000
  F   F35       1.0  0.46772  0.09676  0.19278999999999993  1.0000
  F   F36       1.0  0.42401  0.04101  0.23345999999999995  1.0000
  C   C175      1.0  0.56693  0.10481  0.6893799999999998  1.0000
  C   C176      1.0  0.58902  0.07694  0.7124399999999997  1.0000
  C   C177      1.0  0.58856  0.07779  0.7575899999999998  1.0000
  C   C178      1.0  0.56623  0.10575  0.7791699999999998  1.0000
  C   C179      1.0  0.54425  0.13351  0.7560799999999998  1.0000
  C   C180      1.0  0.5451  0.13309  0.7110599999999998  1.0000
  F   F37       1.0  0.52581  0.16077  0.6881099999999998  1.0000
  F   F38       1.0  0.56755  0.1055  0.6458399999999997  1.0000
  F   F39       1.0  0.56569  0.10555  0.8227199999999998  1.0000
  F   F40       1.0  0.60898  0.05103  0.7808899999999998  1.0000
  C   C181      1.0  0.43083  0.89049  0.6831899999999997  1.0000
  C   C182      1.0  0.41189  0.91886  0.70807  1.0000
  C   C183      1.0  0.4154900000000001  0.91728  0.7530299999999998  1.0000
  C   C184      1.0  0.43774  0.88795  0.7727099999999998  1.0000
  C   C185      1.0  0.45631  0.85947  0.7478599999999997  1.0000
  C   C186      1.0  0.45242  0.86072  0.7030099999999998  1.0000
  F   F41       1.0  0.46831  0.83242  0.67853  1.0000
  F   F42       1.0  0.42699  0.89064  0.6397899999999997  1.0000
  F   F43       1.0  0.4412800000000001  0.88732  0.8161299999999998  1.0000
  F   F44       1.0  0.39804  0.9444999999999999  0.77793  1.0000
  C   C187      1.0  0.57448  0.9295199999999999  0.24653999999999995  1.0000
  C   C188      1.0  0.58997  0.92231  0.2878199999999999  1.0000
  C   C189      1.0  0.58284  0.88658  0.3073899999999999  1.0000
  C   C190      1.0  0.56093  0.85817  0.2856399999999999  1.0000
  C   C191      1.0  0.5446300000000001  0.86573  0.24480999999999994  1.0000
  C   C192      1.0  0.55152  0.90153  0.22535999999999995  1.0000
  F   F45       1.0  0.53627  0.90912  0.18569  1.0000
  F   F46       1.0  0.58094  0.96394  0.22719999999999996  1.0000
  F   F47       1.0  0.55565  0.82328  0.3042899999999999  1.0000
  F   F48       1.0  0.59816  0.87889  0.3470099999999999  1.0000
  C   C193      1.0  0.40829  0.29393  0.8715199999999997  1.0000
  C   C194      1.0  0.41234  0.28881  0.9159799999999998  1.0000
  C   C195      1.0  0.43763  0.25981  0.9320999999999998  1.0000
  C   C196      1.0  0.45895  0.23619  0.9039999999999998  1.0000
  C   C197      1.0  0.45556  0.24159999999999998  0.85939  1.0000
  C   C198      1.0  0.4297  0.27033  0.8433099999999998  1.0000
  F   F49       1.0  0.42586  0.27594  0.80037  1.0000
  F   F50       1.0  0.38374  0.32181  0.8555599999999998  1.0000
  F   F51       1.0  0.48249  0.20768  0.9202699999999998  1.0000
  F   F52       1.0  0.44145  0.25432  0.9750799999999997  1.0000
  C   C199      1.0  0.56652  0.7391  0.9239299999999998  1.0000
  C   C200      1.0  0.5852  0.70475  0.9114999999999998  1.0000
  C   C201      1.0  0.58315  0.69301  0.8684799999999999  1.0000
  C   C202      1.0  0.56286  0.71574  0.8380599999999998  1.0000
  C   C203      1.0  0.54354  0.74976  0.85072  1.0000
  C   C204      1.0  0.54553  0.76129  0.8938199999999997  1.0000
  F   F53       1.0  0.5274  0.79429  0.9065499999999997  1.0000
  F   F54       1.0  0.56841  0.75093  0.9653799999999998  1.0000
  F   F55       1.0  0.56165  0.70444  0.7964199999999998  1.0000
  F   F56       1.0  0.60162  0.66016  0.8558799999999998  1.0000
  C   C205      1.0  0.43629  0.74023  0.06718999999999997  1.0000
  C   C206      1.0  0.41056  0.71167  0.08336999999999997  1.0000
  C   C207      1.0  0.40639  0.70717  0.12783999999999995  1.0000
  C   C208      1.0  0.42812  0.73093  0.15596999999999994  1.0000
  C   C209      1.0  0.45448  0.75916  0.13982999999999995  1.0000
  C   C210      1.0  0.4579700000000001  0.76398  0.09521  1.0000
  F   F57       1.0  0.48207  0.79195  0.07884999999999998  1.0000
  F   F58       1.0  0.44046  0.74499  0.024189999999999993  1.0000
  F   F59       1.0  0.42418  0.7259  0.19893999999999995  1.0000
  F   F60       1.0  0.38156  0.67964  0.14388999999999993  1.0000
  C   C211      1.0  0.55758  0.26785  0.07175999999999998  1.0000
  C   C212      1.0  0.58509  0.29529  0.08725999999999998  1.0000
  C   C213      1.0  0.59153  0.29904  0.13153999999999993  1.0000
  C   C214      1.0  0.57024  0.27569  0.16021999999999995  1.0000
  C   C215      1.0  0.54243  0.2483  0.14479999999999996  1.0000
  C   C216      1.0  0.53666  0.24420999999999998  0.10031  1.0000
  F   F61       1.0  0.5114800000000002  0.21675  0.08453  1.0000
  F   F62       1.0  0.55164  0.2635  0.02888  1.0000
  F   F63       1.0  0.57642  0.27998  0.20304999999999995  1.0000
  F   F64       1.0  0.61835  0.32531  0.14685  1.0000
  C   C217      1.0  0.28011  0.11504999999999999  0.60423  1.0000
  C   C218      1.0  0.27626  0.07568  0.5958899999999998  1.0000
  C   C219      1.0  0.24742  0.0628  0.5659699999999998  1.0000
  C   C220      1.0  0.2231  0.08916  0.5439  1.0000
  C   C221      1.0  0.22793  0.12878  0.55094  1.0000
  C   C222      1.0  0.25607  0.1415  0.58187  1.0000
  F   F65       1.0  0.26126  0.17961  0.58921  1.0000
  F   F66       1.0  0.30778  0.12783  0.6332899999999999  1.0000
  F   F67       1.0  0.19498  0.07609  0.51551  1.0000
  F   F68       1.0  0.24305  0.02468  0.55804  1.0000
  C   C223      1.0  0.69984  0.10312  0.4367299999999999  1.0000
  C   C224      1.0  0.7187  0.07711  0.40855  1.0000
  C   C225      1.0  0.76105  0.07976  0.40302  1.0000
  C   C226      1.0  0.78395  0.10619  0.42682999999999993  1.0000
  C   C227      1.0  0.7649500000000001  0.1319  0.4549699999999999  1.0000
  C   C228      1.0  0.72254  0.13108  0.4581599999999999  1.0000
  F   F69       1.0  0.70274  0.15844  0.48066  1.0000
  F   F70       1.0  0.65897  0.10338  0.4414599999999999  1.0000
  F   F71       1.0  0.82488  0.10613  0.4229799999999999  1.0000
  F   F72       1.0  0.7808500000000003  0.0552  0.3766699999999999  1.0000
  C   C229      1.0  0.7087300000000001  0.88093  0.5980099999999998  1.0000
  C   C230      1.0  0.71524  0.9201199999999999  0.59021  1.0000
  C   C231      1.0  0.74476  0.9315399999999999  0.56073  1.0000
  C   C232      1.0  0.7681  0.90412  0.5396699999999998  1.0000
  C   C233      1.0  0.76092  0.86473  0.5463099999999997  1.0000
  C   C234      1.0  0.73124  0.85334  0.57596  1.0000
  F   F73       1.0  0.72363  0.81553  0.58295  1.0000
  F   F74       1.0  0.68026  0.86948  0.6265599999999998  1.0000
  F   F75       1.0  0.79812  0.91606  0.5132399999999998  1.0000
  F   F76       1.0  0.75107  0.9692999999999999  0.5524599999999997  1.0000
  C   C235      1.0  0.29901  0.88341  0.40811999999999987  1.0000
  C   C236      1.0  0.28574  0.9216600000000001  0.40727999999999986  1.0000
  C   C237      1.0  0.24943000000000004  0.93165  0.4274599999999999  1.0000
  C   C238      1.0  0.22692  0.90374  0.44904999999999995  1.0000
  C   C239      1.0  0.24024  0.86545  0.45018999999999987  1.0000
  C   C240      1.0  0.27605000000000013  0.85529  0.42897  1.0000
  F   F77       1.0  0.28916  0.81836  0.4294199999999999  1.0000
  F   F78       1.0  0.33401  0.87337  0.3884799999999999  1.0000
  F   F79       1.0  0.19203  0.91397  0.4687699999999999  1.0000
  F   F80       1.0  0.23627  0.96857  0.42688  1.0000
  C   C241      1.0  0.12329  0.42743  0.67314  1.0000
  C   C242      1.0  0.0882  0.41822  0.69635  1.0000
  C   C243      1.0  0.0846  0.43085  0.73896  1.0000
  C   C244      1.0  0.11546  0.45236  0.75806  1.0000
  C   C245      1.0  0.15082  0.46091  0.73526  1.0000
  C   C246      1.0  0.15479  0.44811  0.6927999999999997  1.0000
  F   F81       1.0  0.18942  0.45492  0.6708199999999997  1.0000
  F   F82       1.0  0.12783  0.41488  0.6322499999999998  1.0000
  F   F83       1.0  0.11127  0.46426000000000006  0.7992499999999998  1.0000
  F   F84       1.0  0.05102  0.42248  0.76208  1.0000
  C   C247      1.0  0.11028  0.56408  0.31613  1.0000
  C   C248      1.0  0.08011  0.58391  0.29293999999999987  1.0000
  C   C249      1.0  0.07954  0.5815  0.24787999999999993  1.0000
  C   C250      1.0  0.10859  0.55976  0.22648  1.0000
  C   C251      1.0  0.13888  0.54035  0.24964999999999996  1.0000
  C   C252      1.0  0.13972  0.54282  0.2945699999999999  1.0000
  F   F85       1.0  0.16984  0.52578  0.3174099999999999  1.0000
  F   F86       1.0  0.11227000000000002  0.56652  0.3595599999999999  1.0000
  F   F87       1.0  0.10721  0.55757  0.18301  1.0000
  F   F88       1.0  0.05045  0.59969  0.22455  1.0000
  C   C253      1.0  0.88043  0.43131  0.32528  1.0000
  C   C254      1.0  0.91153  0.4153  0.30037999999999987  1.0000
  C   C255      1.0  0.91148  0.42164  0.2557599999999999  1.0000
  C   C256      1.0  0.88093  0.44337  0.23642999999999995  1.0000
  C   C257      1.0  0.84963  0.45886  0.2611599999999999  1.0000
  C   C258      1.0  0.8494100000000002  0.45259  0.3056699999999999  1.0000
  F   F89       1.0  0.81857  0.46608  0.3298799999999999  1.0000
  F   F90       1.0  0.8792  0.42507  0.36825999999999987  1.0000
  F   F91       1.0  0.8818700000000003  0.44944  0.19339999999999993  1.0000
  F   F92       1.0  0.94144  0.40728  0.23084999999999994  1.0000
  C   C259      1.0  0.9235  0.5874  0.7573799999999999  1.0000
  C   C260      1.0  0.92221  0.5897  0.71231  1.0000
  C   C261      1.0  0.89151  0.5701  0.6897799999999997  1.0000
  C   C262      1.0  0.86254  0.54875  0.71193  1.0000
  C   C263      1.0  0.8643200000000002  0.54586  0.7568299999999998  1.0000
  C   C264      1.0  0.89485  0.56547  0.7794399999999998  1.0000
  F   F93       1.0  0.89721  0.5629  0.82285  1.0000
  F   F94       1.0  0.95308  0.60558  0.7800099999999998  1.0000
  F   F95       1.0  0.83203  0.53174  0.68961  1.0000
  F   F96       1.0  0.88872  0.57265  0.64638  1.0000
  C   C265      1.0  0.71949  0.55069  0.9313399999999998  1.0000
  C   C266      1.0  0.70325  0.58606  0.9179699999999997  1.0000
  C   C267      1.0  0.71178  0.59966  0.8765699999999997  1.0000
  C   C268      1.0  0.73409  0.57719  0.84815  1.0000
  C   C269      1.0  0.75205  0.5425  0.8619199999999998  1.0000
  C   C270      1.0  0.74595  0.5306  0.9046799999999998  1.0000
  F   F97       1.0  0.76714  0.50086  0.9216599999999998  1.0000
  F   F98       1.0  0.7132900000000001  0.53763  0.9718699999999998  1.0000
  F   F99       1.0  0.7381200000000002  0.58948  0.8070199999999997  1.0000
  F   F100      1.0  0.69619  0.63358  0.8626199999999998  1.0000
  C   C271      1.0  0.25905  0.4044  0.8983699999999998  1.0000
  C   C272      1.0  0.30071  0.41029  0.9068599999999998  1.0000
  C   C273      1.0  0.32161  0.43801  0.8821599999999998  1.0000
  C   C274      1.0  0.30141  0.45899000000000006  0.8502  1.0000
  C   C275      1.0  0.25963  0.45415  0.8434099999999998  1.0000
  C   C276      1.0  0.23879  0.4265  0.8676699999999998  1.0000
  F   F101      1.0  0.19818  0.42178  0.8627899999999997  1.0000
  F   F102      1.0  0.23696  0.37871  0.9213199999999998  1.0000
  F   F103      1.0  0.32287  0.4838100000000001  0.8255499999999998  1.0000
  F   F104      1.0  0.36193  0.44411  0.8877499999999998  1.0000
  C   C277      1.0  0.3141  0.56049  0.11129999999999997  1.0000
  C   C278      1.0  0.29522  0.58856  0.08513999999999997  1.0000
  C   C279      1.0  0.25300000000000006  0.5941  0.08932999999999998  1.0000
  C   C280      1.0  0.23045  0.57161  0.11753999999999998  1.0000
  C   C281      1.0  0.24933  0.54388  0.14357999999999996  1.0000
  C   C282      1.0  0.2915  0.53912  0.14084999999999995  1.0000
  F   F105      1.0  0.31102000000000013  0.51428  0.16741  1.0000
  F   F106      1.0  0.3547  0.55457  0.10966999999999998  1.0000
  F   F107      1.0  0.18963  0.57627  0.11848999999999997  1.0000
  F   F108      1.0  0.23272  0.61994  0.06457999999999998  1.0000
  C   C283      1.0  0.67962  0.44318  0.11321  1.0000
  C   C284      1.0  0.70035  0.41625  0.08756999999999997  1.0000
  C   C285      1.0  0.74251  0.41181  0.09400999999999997  1.0000
  C   C286      1.0  0.76316  0.43392  0.12441999999999998  1.0000
  C   C287      1.0  0.74228  0.45996000000000004  0.15056  1.0000
  C   C288      1.0  0.70021  0.4638999999999999  0.14511  1.0000
  F   F109      1.0  0.67864  0.48662  0.17183  1.0000
  F   F110      1.0  0.63894  0.44796  0.10936999999999997  1.0000
  F   F111      1.0  0.80398  0.43016  0.12791999999999995  1.0000
  F   F112      1.0  0.7644900000000001  0.3873  0.06958999999999997  1.0000
  C   C289      1.0  0.91242  0.75082  0.6070899999999998  1.0000
  C   C290      1.0  0.91665  0.71155  0.59673  1.0000
  C   C291      1.0  0.8905700000000002  0.69574  0.56522  1.0000
  C   C292      1.0  0.86211  0.71873  0.5440699999999998  1.0000
  C   C293      1.0  0.8604900000000001  0.75838  0.55197  1.0000
  C   C294      1.0  0.88527  0.77401  0.5843499999999998  1.0000
  F   F113      1.0  0.88474  0.81229  0.5925399999999997  1.0000
  F   F114      1.0  0.9366000000000001  0.76774  0.6369999999999998  1.0000
  F   F115      1.0  0.83628  0.70224  0.51547  1.0000
  F   F116      1.0  0.8917  0.65776  0.5554699999999998  1.0000
  C   C295      1.0  0.88289  0.27762  0.3947299999999999  1.0000
  C   C296      1.0  0.92166  0.28586  0.41121999999999986  1.0000
  C   C297      1.0  0.9341  0.26822  0.4496999999999999  1.0000
  C   C298      1.0  0.90873  0.24205999999999997  0.4705499999999999  1.0000
  C   C299      1.0  0.86839  0.23674  0.45666  1.0000
  C   C300      1.0  0.85591  0.2548  0.4181999999999999  1.0000
  F   F117      1.0  0.8172600000000002  0.25111  0.4036799999999999  1.0000
  F   F118      1.0  0.86987  0.29423  0.3576799999999999  1.0000
  F   F119      1.0  0.92423  0.22103  0.50341  1.0000
  F   F120      1.0  0.9723100000000001  0.27351  0.46494999999999986  1.0000
  C   C301      1.0  0.11342  0.27711  0.6072899999999998  1.0000
  C   C302      1.0  0.07498  0.28598  0.59035  1.0000
  C   C303      1.0  0.062110000000000005  0.26787  0.55237  1.0000
  C   C304      1.0  0.08676  0.24072  0.5324  1.0000
  C   C305      1.0  0.12687  0.23475  0.5466299999999997  1.0000
  C   C306      1.0  0.13975000000000004  0.25317  0.5846499999999998  1.0000
  F   F121      1.0  0.17822  0.24879  0.59946  1.0000
  F   F122      1.0  0.12682  0.29414  0.6439  1.0000
  F   F123      1.0  0.07082  0.21948  0.4999999999999999  1.0000
  F   F124      1.0  0.02412  0.27377  0.5368099999999998  1.0000
  C   C307      1.0  0.0906  0.74836  0.3905299999999999  1.0000
  C   C308      1.0  0.08586  0.7095  0.4027299999999999  1.0000
  C   C309      1.0  0.11174  0.69455  0.4349499999999999  1.0000
  C   C310      1.0  0.14039  0.71805  0.4551399999999999  1.0000
  C   C311      1.0  0.14233  0.75743  0.44554  1.0000
  C   C312      1.0  0.11791  0.77211  0.4123  1.0000
  F   F125      1.0  0.11879  0.8101  0.4024299999999999  1.0000
  F   F126      1.0  0.06672  0.76447  0.35976999999999987  1.0000
  F   F127      1.0  0.1659  0.70238  0.4846399999999999  1.0000
  F   F128      1.0  0.11015  0.65693  0.4464399999999999  1.0000
  C   C313      1.0  0.57878  0.88296  0.6840499999999998  1.0000
  C   C314      1.0  0.58926  0.9163  0.7069399999999998  1.0000
  C   C315      1.0  0.57799  0.91966  0.75016  1.0000
  C   C316      1.0  0.55586  0.89041  0.7699699999999998  1.0000
  C   C317      1.0  0.54558  0.85705  0.7471699999999998  1.0000
  C   C318      1.0  0.55773  0.85316  0.7043399999999997  1.0000
  F   F129      1.0  0.54945  0.82046  0.6823599999999997  1.0000
  F   F130      1.0  0.59003  0.87879  0.6425099999999998  1.0000
  F   F131      1.0  0.54442  0.89454  0.81147  1.0000
  F   F132      1.0  0.5876  0.95169  0.7728299999999998  1.0000
  C   C319      1.0  0.41234  0.9225100000000002  0.24379999999999993  1.0000
  C   C320      1.0  0.41193  0.9229800000000001  0.2889699999999999  1.0000
  C   C321      1.0  0.4333  0.89446  0.3117399999999999  1.0000
  C   C322      1.0  0.4544  0.8659  0.2897099999999999  1.0000
  C   C323      1.0  0.4552  0.86588  0.24467999999999995  1.0000
  C   C324      1.0  0.43394  0.89429  0.2219  1.0000
  F   F133      1.0  0.4346  0.89493  0.17836  1.0000
  F   F134      1.0  0.39258  0.9499200000000001  0.22078999999999993  1.0000
  F   F135      1.0  0.47321  0.8377  0.31231  1.0000
  F   F136      1.0  0.43267  0.89346  0.35526999999999986  1.0000
  C   C325      1.0  0.57073  0.10963  0.31394  1.0000
  C   C326      1.0  0.5928000000000002  0.0827  0.28995  1.0000
  C   C327      1.0  0.59233  0.08526  0.24488999999999997  1.0000
  C   C328      1.0  0.56965  0.11378  0.22424999999999995  1.0000
  C   C329      1.0  0.54741  0.14043  0.24825999999999995  1.0000
  C   C330      1.0  0.5486  0.1385  0.2932399999999999  1.0000
  F   F137      1.0  0.52901  0.16508  0.3171199999999999  1.0000
  F   F138      1.0  0.57143  0.10865  0.35748999999999986  1.0000
  F   F139      1.0  0.56871  0.11496  0.18070999999999995  1.0000
  F   F140      1.0  0.61279  0.059430000000000004  0.22072999999999995  1.0000
  C   C331      1.0  0.41608999999999996  0.11476000000000001  0.6924699999999998  1.0000
  C   C332      1.0  0.40895  0.07894  0.7117999999999998  1.0000
  C   C333      1.0  0.42458  0.07141  0.7529599999999997  1.0000
  C   C334      1.0  0.44768000000000013  0.09918  0.7742599999999997  1.0000
  C   C335      1.0  0.4545800000000001  0.13506  0.7550799999999998  1.0000
  C   C336      1.0  0.43814000000000003  0.14297  0.7143899999999997  1.0000
  F   F141      1.0  0.44354  0.17795  0.6959899999999998  1.0000
  F   F142      1.0  0.40078  0.12270000000000002  0.65291  1.0000
  F   F143      1.0  0.4631  0.09126  0.81378  1.0000
  F   F144      1.0  0.4182  0.03685  0.7720299999999998  1.0000
  C   C337      1.0  0.59311  0.75092  0.08378999999999998  1.0000
  C   C338      1.0  0.5882  0.71077  0.08477999999999997  1.0000
  C   C339      1.0  0.56179  0.69443  0.11509  1.0000
  C   C340      1.0  0.54062  0.71785  0.14365999999999995  1.0000
  C   C341      1.0  0.5448600000000001  0.75798  0.14183999999999994  1.0000
  C   C342      1.0  0.57155  0.77424  0.11192999999999997  1.0000
  F   F145      1.0  0.57573  0.81296  0.10901999999999998  1.0000
  F   F146      1.0  0.61768  0.76782  0.054499999999999986  1.0000
  F   F147      1.0  0.51629  0.70133  0.17341999999999994  1.0000
  F   F148      1.0  0.55701  0.65577  0.11762999999999997  1.0000
  C   C343      1.0  0.43504  0.31077  0.11945999999999997  1.0000
  C   C344      1.0  0.40844  0.29349  0.08971  1.0000
  C   C345      1.0  0.40309  0.25339  0.09088999999999997  1.0000
  C   C346      1.0  0.42479  0.23097  0.12020999999999997  1.0000
  C   C347      1.0  0.45209  0.24811  0.14915999999999993  1.0000
  C   C348      1.0  0.45637  0.28827  0.14921999999999994  1.0000
  F   F149      1.0  0.48133000000000004  0.30567  0.17799999999999994  1.0000
  F   F150      1.0  0.4402  0.34945  0.11997999999999998  1.0000
  F   F151      1.0  0.42054  0.1922  0.11894999999999997  1.0000
  F   F152      1.0  0.3783  0.23552  0.062289999999999984  1.0000
  C   C349      1.0  0.59293  0.25006  0.9180299999999998  1.0000
  C   C350      1.0  0.5884700000000003  0.29023  0.9158099999999998  1.0000
  C   C351      1.0  0.56282  0.3061  0.8842099999999998  1.0000
  C   C352      1.0  0.54191  0.28222  0.85559  1.0000
  C   C353      1.0  0.54566  0.24211  0.8586399999999997  1.0000
  C   C354      1.0  0.57165  0.22628  0.8897799999999998  1.0000
  F   F153      1.0  0.57533  0.18761  0.8938399999999997  1.0000
  F   F154      1.0  0.61671  0.23359999999999997  0.9486099999999997  1.0000
  F   F155      1.0  0.51824  0.29825  0.82466  1.0000
  F   F156      1.0  0.55849  0.34472  0.8805099999999998  1.0000
  C   C355      1.0  0.4095500000000001  0.74659  0.9117599999999998  1.0000
  C   C356      1.0  0.41175  0.70626  0.9107599999999998  1.0000
  C   C357      1.0  0.43497  0.6884  0.8788499999999998  1.0000
  C   C358      1.0  0.45558  0.71055  0.84845  1.0000
  C   C359      1.0  0.45418  0.75086  0.85024  1.0000
  C   C360      1.0  0.43079  0.76865  0.8819599999999997  1.0000
  F   F157      1.0  0.42944000000000004  0.80754  0.8848099999999998  1.0000
  F   F158      1.0  0.38794  0.76477  0.94256  1.0000
  F   F159      1.0  0.4764  0.69267  0.8168899999999998  1.0000
  F   F160      1.0  0.43688  0.64952  0.87644  1.0000
  C   C361      1.0  0.75836  0.91548  0.4002099999999999  1.0000
  C   C362      1.0  0.71625  0.9183500000000001  0.4060799999999999  1.0000
  C   C363      1.0  0.69679  0.89202  0.4333899999999999  1.0000
  C   C364      1.0  0.71915  0.86388  0.45506999999999986  1.0000
  C   C365      1.0  0.76144  0.86215  0.4506199999999999  1.0000
  C   C366      1.0  0.78074  0.88772  0.42237999999999987  1.0000
  F   F161      1.0  0.8216  0.8870299999999999  0.41788  1.0000
  F   F162      1.0  0.77823  0.9406500000000001  0.37447999999999987  1.0000
  F   F163      1.0  0.6995300000000002  0.83839  0.48059  1.0000
  F   F164      1.0  0.65603  0.8932  0.4387299999999999  1.0000
  C   C367      1.0  0.30265  0.89169  0.56705  1.0000
  C   C368      1.0  0.28296  0.91951  0.5920099999999998  1.0000
  C   C369      1.0  0.24042  0.91945  0.59397  1.0000
  C   C370      1.0  0.21794999999999998  0.89262  0.5704799999999998  1.0000
  C   C371      1.0  0.23767  0.86522  0.5450599999999998  1.0000
  C   C372      1.0  0.28018  0.86448  0.54422  1.0000
  F   F165      1.0  0.29993  0.83701  0.52174  1.0000
  F   F166      1.0  0.3437100000000002  0.89035  0.5654699999999998  1.0000
  F   F167      1.0  0.17689  0.894  0.5715999999999998  1.0000
  F   F168      1.0  0.22053  0.94628  0.6173  1.0000
  C   C373      1.0  0.30193  0.10437  0.44182  1.0000
  C   C374      1.0  0.28441  0.0796  0.4111899999999999  1.0000
  C   C375      1.0  0.24254  0.08218  0.40282  1.0000
  C   C376      1.0  0.21869  0.10851  0.42494999999999994  1.0000
  C   C377      1.0  0.2361  0.1329  0.45579999999999987  1.0000
  C   C378      1.0  0.278  0.13104  0.4636399999999999  1.0000
  F   F169      1.0  0.2958  0.15534  0.4920699999999999  1.0000
  F   F170      1.0  0.34233000000000013  0.10335  0.4500699999999999  1.0000
  F   F171      1.0  0.17819  0.10946  0.4171499999999999  1.0000
  F   F172      1.0  0.22429  0.05837  0.3741599999999999  1.0000
  C   C379      1.0  0.75656  0.07029  0.58116  1.0000
  C   C380      1.0  0.71773  0.07898  0.5963799999999998  1.0000
  C   C381      1.0  0.70198  0.11601999999999998  0.59027  1.0000
  C   C382      1.0  0.7247  0.14392  0.56872  1.0000
  C   C383      1.0  0.76221  0.13429  0.55066  1.0000
  C   C384      1.0  0.77826  0.09749  0.5575499999999998  1.0000
  F   F173      1.0  0.8151500000000003  0.08811  0.54173  1.0000
  F   F174      1.0  0.7731  0.03526  0.58848  1.0000
  F   F175      1.0  0.70969  0.18001  0.56443  1.0000
  F   F176      1.0  0.66491  0.12524  0.60576  1.0000
  C   C385      1.0  0.91492  0.57599  0.2578099999999999  1.0000
  C   C386      1.0  0.91248  0.58576  0.30144  1.0000
  C   C387      1.0  0.87864  0.574  0.3253  1.0000
  C   C388      1.0  0.84727  0.5534  0.3054599999999999  1.0000
  C   C389      1.0  0.85008  0.54338  0.26199999999999996  1.0000
  C   C390      1.0  0.88409  0.55469  0.23835999999999993  1.0000
  F   F177      1.0  0.88722  0.5452  0.19627999999999995  1.0000
  F   F178      1.0  0.94753  0.58656  0.23419999999999994  1.0000
  F   F179      1.0  0.81383  0.54403  0.32829999999999987  1.0000
  F   F180      1.0  0.8752400000000002  0.58379  0.36725999999999986  1.0000
  C   C391      1.0  0.92856  0.43272  0.74726  1.0000
  C   C392      1.0  0.92052  0.4187  0.7058499999999998  1.0000
  C   C393      1.0  0.8828  0.42623  0.6864599999999997  1.0000
  C   C394      1.0  0.8532  0.44682  0.7086599999999997  1.0000
  C   C395      1.0  0.86161  0.4613300000000001  0.7497499999999998  1.0000
  C   C396      1.0  0.8995000000000002  0.4543  0.7688099999999998  1.0000
  F   F181      1.0  0.9079300000000002  0.46770999999999996  0.8087599999999998  1.0000
  F   F182      1.0  0.96471  0.42575  0.7666799999999998  1.0000
  F   F183      1.0  0.81631  0.45244  0.6902699999999998  1.0000
  F   F184      1.0  0.8740900000000003  0.41226  0.64682  1.0000
  C   C397      1.0  0.11924000000000003  0.57111  0.6754499999999998  1.0000
  C   C398      1.0  0.09011  0.58963  0.70085  1.0000
  C   C399      1.0  0.09227000000000003  0.58594  0.7457599999999998  1.0000
  C   C400      1.0  0.12274000000000002  0.56393  0.76486  1.0000
  C   C401      1.0  0.15182  0.54555  0.7395099999999998  1.0000
  C   C402      1.0  0.15013  0.54955  0.69472  1.0000
  F   F185      1.0  0.17895  0.53339  0.66978  1.0000
  F   F186      1.0  0.11853  0.57482  0.63208  1.0000
  F   F187      1.0  0.12358000000000001  0.56005  0.8082199999999998  1.0000
  F   F188      1.0  0.0642  0.60278  0.7711999999999998  1.0000
  C   C403      1.0  0.117  0.42134  0.31211  1.0000
  C   C404      1.0  0.07984  0.41305  0.29187  1.0000
  C   C405      1.0  0.07292  0.42598  0.24971999999999994  1.0000
  C   C406      1.0  0.10245  0.44744  0.22838999999999995  1.0000
  C   C407      1.0  0.13962  0.45551  0.24853999999999996  1.0000
  C   C408      1.0  0.14698  0.44188  0.29026  1.0000
  F   F189      1.0  0.18329  0.44825  0.3096399999999999  1.0000
  F   F190      1.0  0.12473  0.40842  0.3524599999999999  1.0000
  F   F191      1.0  0.09494  0.46031000000000005  0.18797999999999995  1.0000
  F   F192      1.0  0.0372  0.4184999999999999  0.22956999999999994  1.0000
