data_image0
_chemical_formula_structural       O8Cu2C4O8Cu2C4O8Cu2C4O8Cu2C4O8Cu2C4O8Cu2C4O8Cu2C4O8Cu2C4O8Cu2C4O8Cu2C4O8Cu2C4O8Cu2C10H2C6H2C6H2C6H2C6H2C6H2C6H2C6H2C6H2C6H2C6H2C6H2C6Br4C6Br4C6Br4C6Br4C6Br4C6Br4C6Br4C6Br4C6Br4C6Br4C6Br4C6Br4C6Br4C6Br4C6Br4C6Br4C6Br4C6Br4C6Br4C6Br4C6Br4C6Br4C6Br4C6Br4C6Br4C6Br4C6Br4C6Br4C6Br4C6Br4C6Br4C6Br4C6Br4C6Br4C6Br4C6Br4C6Br4C6Br4C6Br4C6Br4C6Br4C6Br4C6Br4C6Br4C6Br4C6Br4C6Br4C6Br4
_chemical_formula_sum              "O96 Cu24 C408 H24 Br192"
_cell_length_a       32.5278
_cell_length_b       31.877699999999997
_cell_length_c       35.0448
_cell_angle_alpha    89.90740000000001
_cell_angle_beta     90.1881
_cell_angle_gamma    89.39229999999999

_space_group_name_H-M_alt    "P 1"
_space_group_IT_number       1

loop_
  _space_group_symop_operation_xyz
  'x, y, z'

loop_
  _atom_site_type_symbol
  _atom_site_label
  _atom_site_symmetry_multiplicity
  _atom_site_fract_x
  _atom_site_fract_y
  _atom_site_fract_z
  _atom_site_occupancy
  O   O1        1.0  0.39634  0.33972000000000013  0.96263  1.0000
  O   O2        1.0  0.33529  0.39828000000000013  0.03442  1.0000
  O   O3        1.0  0.39576  0.34351  0.03662  1.0000
  O   O4        1.0  0.33949  0.39772  0.9599500000000001  1.0000
  O   O5        1.0  0.29495  0.34701  0.9583600000000001  1.0000
  O   O6        1.0  0.34684  0.29705  0.03954  1.0000
  O   O7        1.0  0.28712  0.34997  0.031580000000000004  1.0000
  O   O8        1.0  0.35123  0.28851  0.96526  1.0000
  Cu  Cu1       1.0  0.37134999999999996  0.3749000000000001  0.9984300000000002  1.0000
  Cu  Cu2       1.0  0.31557  0.31548  0.99852  1.0000
  C   C1        1.0  0.38419  0.30374  0.9521  1.0000
  C   C2        1.0  0.30059000000000013  0.38418000000000013  0.04481  1.0000
  C   C3        1.0  0.38058  0.31124  0.05196  1.0000
  C   C4        1.0  0.30766  0.38165  0.9454000000000001  1.0000
  O   O9        1.0  0.6653500000000002  0.60348  0.04492  1.0000
  O   O10       1.0  0.60368  0.65088  0.9664599999999999  1.0000
  O   O11       1.0  0.66558  0.59588  0.97144  1.0000
  O   O12       1.0  0.6030600000000003  0.6553400000000003  0.04077  1.0000
  O   O13       1.0  0.6501500000000001  0.7038500000000002  0.04233  1.0000
  O   O14       1.0  0.7051  0.6509600000000002  0.9642  1.0000
  O   O15       1.0  0.64463  0.70565  0.9678300000000001  1.0000
  O   O16       1.0  0.71193  0.65289  0.03816  1.0000
  Cu  Cu3       1.0  0.6299500000000002  0.62114  0.00593  1.0000
  Cu  Cu4       1.0  0.68217  0.68369  0.00254  1.0000
  C   C5        1.0  0.69955  0.6196400000000002  0.05419  1.0000
  C   C6        1.0  0.6130800000000002  0.68735  0.9548100000000002  1.0000
  C   C7        1.0  0.69589  0.61351  0.95557  1.0000
  C   C8        1.0  0.61664  0.68918  0.05474  1.0000
  O   O17       1.0  0.58959  0.35804  0.03597000000000006  1.0000
  O   O18       1.0  0.6476199999999999  0.4108500000000001  0.9590700000000001  1.0000
  O   O19       1.0  0.59248  0.35174  0.96162  1.0000
  O   O20       1.0  0.65004  0.41265000000000013  0.034110000000000085  1.0000
  O   O21       1.0  0.69748  0.36312  0.03438999999999992  1.0000
  O   O22       1.0  0.6394800000000003  0.30156  0.96535  1.0000
  O   O23       1.0  0.6923600000000002  0.35942  0.9606800000000001  1.0000
  O   O24       1.0  0.63765  0.30865  0.038960000000000106  1.0000
  Cu  Cu5       1.0  0.61518  0.38841  0.99764  1.0000
  Cu  Cu6       1.0  0.67152  0.3284  0.00048000000000003595  1.0000
  C   C9        1.0  0.60368  0.32416  0.05018999999999996  1.0000
  C   C10       1.0  0.6798300000000002  0.39348  0.9458599999999999  1.0000
  C   C11       1.0  0.6065100000000002  0.31614  0.9511  1.0000
  C   C12       1.0  0.6844900000000003  0.39844  0.046049999999999924  1.0000
  O   O25       1.0  0.4038  0.64594  0.03875000000000006  1.0000
  O   O26       1.0  0.34956  0.58965  0.96167  1.0000
  O   O27       1.0  0.40508  0.64924  0.96467  1.0000
  O   O28       1.0  0.34618000000000004  0.5896400000000003  0.03661000000000025  1.0000
  O   O29       1.0  0.2988  0.63908  0.035530000000000284  1.0000
  O   O30       1.0  0.3548800000000001  0.69589  0.9622700000000001  1.0000
  O   O31       1.0  0.30028  0.63794  0.9617800000000001  1.0000
  O   O32       1.0  0.3559500000000001  0.6956700000000002  0.036720000000000086  1.0000
  Cu  Cu7       1.0  0.3809500000000001  0.61355  0.00038999999999989043  1.0000
  Cu  Cu8       1.0  0.32275  0.67204  0.9991099999999999  1.0000
  C   C13       1.0  0.38917  0.68061  0.050529999999999964  1.0000
  C   C14       1.0  0.31567  0.6041  0.94885  1.0000
  C   C15       1.0  0.3898200000000001  0.68308  0.9512199999999998  1.0000
  C   C16       1.0  0.31201000000000007  0.60433  0.04841999999999991  1.0000
  O   O33       1.0  0.9544400000000001  0.39916  0.34068  1.0000
  O   O34       1.0  0.03749  0.3663  0.40746  1.0000
  O   O35       1.0  0.03303000000000001  0.4126100000000001  0.34468  1.0000
  O   O36       1.0  0.9581300000000001  0.35316  0.40241  1.0000
  O   O37       1.0  0.9691200000000001  0.29842  0.36629  1.0000
  O   O38       1.0  0.04418  0.35607  0.30984  1.0000
  O   O39       1.0  0.04772000000000001  0.30989  0.37209  1.0000
  O   O40       1.0  0.9664900000000001  0.34352  0.30472  1.0000
  Cu  Cu9       1.0  0.9947600000000001  0.38844  0.37745  1.0000
  Cu  Cu10      1.0  0.008240000000000006  0.32133  0.33494  1.0000
  C   C17       1.0  0.9469  0.3774  0.31114  1.0000
  C   C18       1.0  0.056250000000000015  0.33182  0.40125  1.0000
  C   C19       1.0  0.050730000000000004  0.39444  0.31685  1.0000
  C   C20       1.0  0.9506100000000001  0.3152000000000001  0.39419  1.0000
  O   O41       1.0  0.03722  0.64829  0.59795  1.0000
  O   O42       1.0  0.9630600000000001  0.59414  0.66073  1.0000
  O   O43       1.0  0.95653  0.64327  0.60107  1.0000
  O   O44       1.0  0.04254  0.59614  0.6559300000000001  1.0000
  O   O45       1.0  0.04529  0.6526  0.69138  1.0000
  O   O46       1.0  0.9552000000000002  0.6947100000000003  0.64196  1.0000
  O   O47       1.0  0.96655  0.64707  0.70125  1.0000
  O   O48       1.0  0.033950000000000015  0.70387  0.63548  1.0000
  Cu  Cu11      1.0  0.99992  0.61501  0.62482  1.0000
  Cu  Cu12      1.0  0.00010000000000000033  0.67997  0.67132  1.0000
  C   C21       1.0  0.04778  0.6855700000000002  0.60603  1.0000
  C   C22       1.0  0.95298  0.61128  0.69213  1.0000
  C   C23       1.0  0.94039  0.67735  0.6126000000000001  1.0000
  C   C24       1.0  0.05888  0.61644  0.6830600000000001  1.0000
  O   O49       1.0  0.04576000000000002  0.59183  0.34857  1.0000
  O   O50       1.0  0.96005  0.63584  0.4059  1.0000
  O   O51       1.0  0.96668  0.5813100000000002  0.34815  1.0000
  O   O52       1.0  0.03946000000000027  0.6475  0.40206  1.0000
  O   O53       1.0  0.0294500000000002  0.69877  0.36122  1.0000
  O   O54       1.0  0.9587200000000002  0.63302  0.30686  1.0000
  O   O55       1.0  0.95134  0.68661  0.36358  1.0000
  O   O56       1.0  0.03783000000000026  0.6440200000000001  0.30861  1.0000
  Cu  Cu13      1.0  0.0033000000000000793  0.60897  0.38057  1.0000
  Cu  Cu14      1.0  0.99304  0.6704300000000002  0.3308  1.0000
  C   C25       1.0  0.05716999999999994  0.61112  0.31879  1.0000
  C   C26       1.0  0.94191  0.66926  0.3948900000000001  1.0000
  C   C27       1.0  0.9513600000000002  0.59575  0.31732  1.0000
  C   C28       1.0  0.04736000000000029  0.6844800000000002  0.39071  1.0000
  O   O57       1.0  0.9595100000000002  0.34742  0.59855  1.0000
  O   O58       1.0  0.03699999999999992  0.40852  0.65216  1.0000
  O   O59       1.0  0.04095000000000005  0.35236  0.59997  1.0000
  O   O60       1.0  0.95817  0.40561000000000014  0.65395  1.0000
  O   O61       1.0  0.9587400000000003  0.35322  0.69481  1.0000
  O   O62       1.0  0.0440400000000003  0.30320000000000014  0.64351  1.0000
  O   O63       1.0  0.038570000000000215  0.35864  0.69611  1.0000
  O   O64       1.0  0.96465  0.29614  0.64076  1.0000
  Cu  Cu15      1.0  0.9977800000000001  0.38312  0.62131  1.0000
  Cu  Cu16      1.0  0.0012600000000000382  0.3227700000000001  0.67302  1.0000
  C   C29       1.0  0.9497500000000002  0.31099  0.61003  1.0000
  C   C30       1.0  0.050950000000000044  0.39362  0.68332  1.0000
  C   C31       1.0  0.05811000000000033  0.31944  0.6133300000000002  1.0000
  C   C32       1.0  0.94536  0.38906  0.68462  1.0000
  O   O65       1.0  0.3485400000000001  0.96408  0.39916  1.0000
  O   O66       1.0  0.40425  0.04399  0.34373  1.0000
  O   O67       1.0  0.35  0.04548  0.39908  1.0000
  O   O68       1.0  0.39948  0.96223  0.34129  1.0000
  O   O69       1.0  0.34554  0.9621900000000001  0.30358  1.0000
  O   O70       1.0  0.30247  0.05245  0.35484  1.0000
  O   O71       1.0  0.35514  0.04350000000000001  0.30001  1.0000
  O   O72       1.0  0.29532000000000014  0.97131  0.36022  1.0000
  Cu  Cu17      1.0  0.3808200000000001  0.0036300000000000017  0.37492  1.0000
  Cu  Cu18      1.0  0.3195500000000001  0.00771  0.32553  1.0000
  C   C33       1.0  0.3120600000000001  0.9549300000000001  0.38957  1.0000
  C   C34       1.0  0.38956000000000013  0.05664000000000002  0.31208  1.0000
  C   C35       1.0  0.31776  0.06368  0.38646  1.0000
  C   C36       1.0  0.38042  0.94725  0.31274  1.0000
  O   O73       1.0  0.63939  0.95455  0.59732  1.0000
  O   O74       1.0  0.59314  0.03995  0.65518  1.0000
  O   O75       1.0  0.6405000000000002  0.035490000000000015  0.59424  1.0000
  O   O76       1.0  0.5926600000000002  0.95746  0.65861  1.0000
  O   O77       1.0  0.64625  0.96082  0.69734  1.0000
  O   O78       1.0  0.69637  0.03309  0.6303200000000001  1.0000
  O   O79       1.0  0.64979  0.04249  0.68912  1.0000
  O   O80       1.0  0.6921100000000002  0.95274  0.63695  1.0000
  Cu  Cu19      1.0  0.61062  0.99676  0.62282  1.0000
  Cu  Cu20      1.0  0.6763900000000003  0.9972  0.66726  1.0000
  C   C37       1.0  0.6742300000000002  0.93965  0.60712  1.0000
  C   C38       1.0  0.61401  0.05646  0.68188  1.0000
  C   C39       1.0  0.6772  0.04664  0.60111  1.0000
  C   C40       1.0  0.61113  0.94635  0.6891  1.0000
  O   O81       1.0  0.36287000000000014  0.04107000000000016  0.59262  1.0000
  O   O82       1.0  0.4065000000000001  0.9564  0.65335  1.0000
  O   O83       1.0  0.35143  0.9601  0.5972600000000001  1.0000
  O   O84       1.0  0.41114000000000006  0.03744999999999998  0.65304  1.0000
  O   O85       1.0  0.35808  0.04508000000000001  0.69167  1.0000
  O   O86       1.0  0.30203  0.9649000000000002  0.6393  1.0000
  O   O87       1.0  0.35543  0.9640900000000002  0.69391  1.0000
  O   O88       1.0  0.30986  0.0459400000000001  0.6316200000000001  1.0000
  Cu  Cu21      1.0  0.38809  0.99795  0.61996  1.0000
  Cu  Cu22      1.0  0.32616  0.005779999999999897  0.66788  1.0000
  C   C41       1.0  0.32862000000000013  0.05760000000000032  0.60165  1.0000
  C   C42       1.0  0.3893200000000001  0.94676  0.68463  1.0000
  C   C43       1.0  0.31617  0.94898  0.60901  1.0000
  C   C44       1.0  0.3945200000000001  0.05400000000000005  0.68228  1.0000
  O   O89       1.0  0.64445  0.04320999999999997  0.39725  1.0000
  O   O90       1.0  0.58902  0.95873  0.34737  1.0000
  O   O91       1.0  0.6450500000000001  0.96139  0.40233  1.0000
  O   O92       1.0  0.59529  0.03970999999999991  0.3388  1.0000
  O   O93       1.0  0.6474800000000003  0.03442999999999996  0.29909  1.0000
  O   O94       1.0  0.69404  0.95345  0.35949  1.0000
  O   O95       1.0  0.6391100000000002  0.95379  0.30512  1.0000
  O   O96       1.0  0.69526  0.03461000000000003  0.35756  1.0000
  Cu  Cu23      1.0  0.6132300000000003  0.0010900000000000354  0.37557  1.0000
  Cu  Cu24      1.0  0.67407  0.99319  0.32639  1.0000
  C   C45       1.0  0.67977  0.053870000000000084  0.3858  1.0000
  C   C46       1.0  0.6041000000000002  0.94281  0.31726  1.0000
  C   C47       1.0  0.67857  0.94432  0.39151  1.0000
  C   C48       1.0  0.61338  0.050920000000000305  0.30833  1.0000
  C   C49       1.0  0.8157  0.76113  0.52206  1.0000
  C   C50       1.0  0.8211100000000002  0.76308  0.48173999999999995  1.0000
  C   C51       1.0  0.7966400000000002  0.79106  0.46020000000000005  1.0000
  C   C52       1.0  0.76801  0.81797  0.47753  1.0000
  C   C53       1.0  0.7621  0.81546  0.5174500000000001  1.0000
  C   C54       1.0  0.78427  0.78552  0.53868  1.0000
  H   H1        1.0  0.7796200000000002  0.784  0.5692700000000002  1.0000
  H   H2        1.0  0.80104  0.7930700000000003  0.42959  1.0000
  C   C55       1.0  0.2379  0.19240000000000004  0.47848  1.0000
  C   C56       1.0  0.24237  0.18952000000000005  0.51877  1.0000
  C   C57       1.0  0.21939000000000006  0.21677  0.54201  1.0000
  C   C58       1.0  0.18855  0.24312  0.52669  1.0000
  C   C59       1.0  0.18486000000000005  0.24677000000000004  0.48634  1.0000
  C   C60       1.0  0.2111  0.22287000000000007  0.46304  1.0000
  H   H3        1.0  0.20809  0.22546  0.4323  1.0000
  H   H4        1.0  0.2229  0.21455  0.57272  1.0000
  C   C61       1.0  0.16043  0.7859  0.47557000000000005  1.0000
  C   C62       1.0  0.1617  0.7826900000000002  0.51595  1.0000
  C   C63       1.0  0.18996000000000005  0.80687  0.53632  1.0000
  C   C64       1.0  0.21549000000000004  0.83585  0.51807  1.0000
  C   C65       1.0  0.21424  0.83906  0.4776  1.0000
  C   C66       1.0  0.18704000000000007  0.81359  0.45713  1.0000
  H   H5        1.0  0.18614  0.81581  0.42626  1.0000
  H   H6        1.0  0.19094  0.80432  0.56717  1.0000
  C   C67       1.0  0.83713  0.21040000000000006  0.52074  1.0000
  C   C68       1.0  0.83587  0.21641  0.48067999999999994  1.0000
  C   C69       1.0  0.8064100000000002  0.19501  0.45896999999999993  1.0000
  C   C70       1.0  0.7797500000000003  0.16551  0.47536999999999996  1.0000
  C   C71       1.0  0.7813000000000002  0.15901  0.51569  1.0000
  C   C72       1.0  0.81031  0.18144  0.53748  1.0000
  H   H7        1.0  0.81189  0.17649  0.5680700000000001  1.0000
  H   H8        1.0  0.80518  0.20045  0.4284400000000001  1.0000
  C   C73       1.0  0.52199  0.7829900000000002  0.84105  1.0000
  C   C74       1.0  0.47834  0.78298  0.84006  1.0000
  C   C75       1.0  0.45747  0.80865  0.81348  1.0000
  C   C76       1.0  0.4788000000000001  0.83543  0.7887  1.0000
  C   C77       1.0  0.5225200000000002  0.83529  0.78976  1.0000
  C   C78       1.0  0.54336  0.8091700000000002  0.81595  1.0000
  H   H9        1.0  0.57666  0.8098300000000003  0.8173  1.0000
  H   H10       1.0  0.42415  0.80843  0.81262  1.0000
  C   C79       1.0  0.5253  0.16977  0.21316  1.0000
  C   C80       1.0  0.48208  0.1719  0.21839  1.0000
  C   C81       1.0  0.45891  0.2001  0.1964  1.0000
  C   C82       1.0  0.47681  0.22398  0.16743  1.0000
  C   C83       1.0  0.5201899999999999  0.22246  0.16238  1.0000
  C   C84       1.0  0.54368  0.19554  0.18573  1.0000
  H   H11       1.0  0.57676  0.19416  0.18214  1.0000
  H   H12       1.0  0.4258400000000001  0.20151  0.20024  1.0000
  C   C85       1.0  0.52511  0.17028  0.78233  1.0000
  C   C86       1.0  0.48215000000000013  0.16269  0.78591  1.0000
  C   C87       1.0  0.45992  0.18262  0.81519  1.0000
  C   C88       1.0  0.4787300000000001  0.21059000000000005  0.84033  1.0000
  C   C89       1.0  0.5212600000000002  0.21841  0.83674  1.0000
  C   C90       1.0  0.54352  0.19922  0.80719  1.0000
  H   H13       1.0  0.57609  0.20552000000000006  0.80463  1.0000
  H   H14       1.0  0.42735  0.17661  0.81825  1.0000
  C   C91       1.0  0.51813  0.77811  0.16824  1.0000
  C   C92       1.0  0.47446  0.77649  0.1664  1.0000
  C   C93       1.0  0.4513500000000001  0.80006  0.19265  1.0000
  C   C94       1.0  0.46994  0.82696  0.21915  1.0000
  C   C95       1.0  0.51361  0.82839  0.22096  1.0000
  C   C96       1.0  0.53668  0.80303  0.19621  1.0000
  H   H15       1.0  0.56995  0.80401  0.19768  1.0000
  H   H16       1.0  0.41810000000000014  0.7987  0.19146  1.0000
  C   C97       1.0  0.79188  0.52316  0.84478  1.0000
  C   C98       1.0  0.78277  0.48052  0.83564  1.0000
  C   C99       1.0  0.80396  0.4610300000000001  0.80529  1.0000
  C   C100      1.0  0.8349200000000002  0.4817  0.7850900000000002  1.0000
  C   C101      1.0  0.84287  0.52424  0.79329  1.0000
  C   C102      1.0  0.82245  0.5438  0.82367  1.0000
  H   H17       1.0  0.8300100000000002  0.57598  0.83046  1.0000
  H   H18       1.0  0.79755  0.42861  0.79835  1.0000
  C   C103      1.0  0.15819000000000005  0.48084  0.21098  1.0000
  C   C104      1.0  0.16735000000000005  0.52434  0.21498  1.0000
  C   C105      1.0  0.19623  0.5424  0.19014  1.0000
  C   C106      1.0  0.21470000000000006  0.5192300000000002  0.16065  1.0000
  C   C107      1.0  0.20605  0.4760200000000001  0.15706  1.0000
  C   C108      1.0  0.17745  0.45768  0.18169  1.0000
  H   H19       1.0  0.17055  0.42469  0.17833  1.0000
  H   H20       1.0  0.20354000000000005  0.57534  0.19302  1.0000
  C   C109      1.0  0.7844700000000002  0.47604  0.16113000000000002  1.0000
  C   C110      1.0  0.7891300000000002  0.52014  0.16429  1.0000
  C   C111      1.0  0.8155500000000002  0.53641  0.19212000000000004  1.0000
  C   C112      1.0  0.8388900000000002  0.50996  0.21598  1.0000
  C   C113      1.0  0.83464  0.46586  0.21265  1.0000
  C   C114      1.0  0.80681  0.4495500000000001  0.18593  1.0000
  H   H21       1.0  0.80381  0.4158400000000001  0.18333  1.0000
  H   H22       1.0  0.8192000000000003  0.57011  0.19424  1.0000
  C   C115      1.0  0.17028  0.4797  0.77737  1.0000
  C   C116      1.0  0.17368  0.52412  0.77844  1.0000
  C   C117      1.0  0.20068000000000005  0.5424200000000002  0.80469  1.0000
  C   C118      1.0  0.22285000000000005  0.51839  0.83131  1.0000
  C   C119      1.0  0.22040000000000007  0.47389  0.82947  1.0000
  C   C120      1.0  0.19504  0.4555000000000001  0.80186  1.0000
  H   H23       1.0  0.19333  0.42162  0.80044  1.0000
  H   H24       1.0  0.20321  0.57626  0.8054100000000001  1.0000
  C   C121      1.0  0.23791000000000007  0.4255600000000001  0.06323  1.0000
  C   C122      1.0  0.27588  0.40703  0.07344  1.0000
  C   C123      1.0  0.28833  0.40684  0.11192000000000002  1.0000
  C   C124      1.0  0.2645000000000001  0.42766  0.13957  1.0000
  C   C125      1.0  0.22815  0.44921  0.12884  1.0000
  C   C126      1.0  0.21344  0.44529  0.09115  1.0000
  Br  Br1       1.0  0.15789  0.46168  0.07886  1.0000
  Br  Br2       1.0  0.21963  0.42452  0.01091  1.0000
  Br  Br3       1.0  0.27999000000000007  0.42293  0.19249  1.0000
  Br  Br4       1.0  0.33671  0.37579  0.12729  1.0000
  C   C127      1.0  0.71124  0.5964500000000003  0.12161999999999999  1.0000
  C   C128      1.0  0.7252400000000002  0.59906  0.08369  1.0000
  C   C129      1.0  0.76396  0.58188  0.07419000000000002  1.0000
  C   C130      1.0  0.7853300000000002  0.55673  0.10085000000000002  1.0000
  C   C131      1.0  0.7687  0.54988  0.13742  1.0000
  C   C132      1.0  0.7338500000000002  0.57327  0.14885  1.0000
  Br  Br5       1.0  0.71921  0.57667  0.20213  1.0000
  Br  Br6       1.0  0.66272  0.62707  0.13688  1.0000
  Br  Br7       1.0  0.83908  0.53499  0.08844  1.0000
  Br  Br8       1.0  0.7883800000000002  0.59366  0.025260000000000008  1.0000
  C   C133      1.0  0.7436100000000002  0.39667  0.9041700000000001  1.0000
  C   C134      1.0  0.70383  0.41272  0.9136400000000001  1.0000
  C   C135      1.0  0.6880700000000002  0.44723  0.89189  1.0000
  C   C136      1.0  0.7124200000000003  0.46622000000000013  0.86345  1.0000
  C   C137      1.0  0.75395  0.45442  0.85895  1.0000
  C   C138      1.0  0.7687  0.41829  0.87828  1.0000
  Br  Br9       1.0  0.8250600000000002  0.39969  0.8729200000000001  1.0000
  Br  Br10      1.0  0.7665  0.34517  0.9257999999999998  1.0000
  Br  Br11      1.0  0.6883100000000002  0.50702  0.8289900000000001  1.0000
  Br  Br12      1.0  0.63336  0.4699300000000001  0.89956  1.0000
  C   C139      1.0  0.2637400000000001  0.55161  0.92869  1.0000
  C   C140      1.0  0.29338999999999993  0.5813600000000002  0.9187  1.0000
  C   C141      1.0  0.29901  0.5919  0.88009  1.0000
  C   C142      1.0  0.27738000000000007  0.57041  0.85136  1.0000
  C   C143      1.0  0.24684  0.54094  0.86141  1.0000
  C   C144      1.0  0.23826000000000006  0.53433  0.90048  1.0000
  Br  Br13      1.0  0.18817  0.50768  0.9160700000000002  1.0000
  Br  Br14      1.0  0.2581500000000001  0.53413  0.98103  1.0000
  Br  Br15      1.0  0.29045  0.58186  0.79855  1.0000
  Br  Br16      1.0  0.33528000000000013  0.6369  0.86663  1.0000
  C   C145      1.0  0.12829  0.33042  0.42719  1.0000
  C   C146      1.0  0.08772000000000003  0.3156  0.42831  1.0000
  C   C147      1.0  0.07862000000000002  0.28051  0.45103  1.0000
  C   C148      1.0  0.11026  0.25772  0.4693  1.0000
  C   C149      1.0  0.15128000000000003  0.27157  0.46736  1.0000
  C   C150      1.0  0.16027  0.30764  0.44537  1.0000
  Br  Br17      1.0  0.21653  0.32416  0.43731  1.0000
  Br  Br18      1.0  0.13964000000000004  0.38265  0.40183000000000013  1.0000
  Br  Br19      1.0  0.09758000000000003  0.20424  0.49187  1.0000
  Br  Br20      1.0  0.02232  0.26487  0.45878  1.0000
  C   C151      1.0  0.062490000000000004  0.74363  0.56052  1.0000
  C   C152      1.0  0.07652  0.70842  0.5812  1.0000
  C   C153      1.0  0.11878000000000001  0.69839  0.5817300000000001  1.0000
  C   C154      1.0  0.14671000000000006  0.72237  0.56042  1.0000
  C   C155      1.0  0.13235  0.75653  0.5380500000000001  1.0000
  C   C156      1.0  0.09040000000000002  0.76824  0.53992  1.0000
  Br  Br21      1.0  0.07194  0.82139  0.51969  1.0000
  Br  Br22      1.0  0.004970000000000001  0.7589  0.56144  1.0000
  Br  Br23      1.0  0.20490000000000005  0.71014  0.56479  1.0000
  Br  Br24      1.0  0.13893  0.65407  0.61434  1.0000
  C   C157      1.0  0.92351  0.71727  0.44827  1.0000
  C   C158      1.0  0.91076  0.68979  0.41924  1.0000
  C   C159      1.0  0.8686800000000002  0.6865300000000002  0.41054  1.0000
  C   C160      1.0  0.83933  0.70874  0.4322600000000001  1.0000
  C   C161      1.0  0.8521800000000003  0.73727  0.46078  1.0000
  C   C162      1.0  0.89463  0.74312  0.46688999999999997  1.0000
  Br  Br25      1.0  0.91388  0.79073  0.49534  1.0000
  Br  Br26      1.0  0.9808000000000004  0.72064  0.46181999999999995  1.0000
  Br  Br27      1.0  0.7815200000000002  0.7002  0.42219  1.0000
  Br  Br28      1.0  0.85137  0.65298  0.36786  1.0000
  C   C163      1.0  0.8788  0.29597  0.58584  1.0000
  C   C164      1.0  0.9208300000000003  0.28522  0.58751  1.0000
  C   C165      1.0  0.93448  0.24767  0.57034  1.0000
  C   C166      1.0  0.9064  0.22146  0.55151  1.0000
  C   C167      1.0  0.86542  0.23483  0.54572  1.0000
  C   C168      1.0  0.85124  0.2712100000000001  0.56476  1.0000
  Br  Br29      1.0  0.7935700000000002  0.28536  0.5654  1.0000
  Br  Br30      1.0  0.8583900000000002  0.3429100000000001  0.61469  1.0000
  Br  Br31      1.0  0.9225  0.16474000000000005  0.53985  1.0000
  Br  Br32      1.0  0.99189  0.23252  0.57144  1.0000
  C   C169      1.0  0.41324  0.12939000000000006  0.29725  1.0000
  C   C170      1.0  0.41319  0.0863  0.28857  1.0000
  C   C171      1.0  0.4342100000000001  0.07174  0.25615  1.0000
  C   C172      1.0  0.4560200000000001  0.09979  0.23303000000000001  1.0000
  C   C173      1.0  0.4593  0.14239  0.24350000000000002  1.0000
  C   C174      1.0  0.43626  0.15743  0.27493  1.0000
  Br  Br33      1.0  0.43336  0.21674  0.28603000000000006  1.0000
  Br  Br34      1.0  0.37909  0.15042  0.33783  1.0000
  Br  Br35      1.0  0.4755700000000001  0.08072  0.18418000000000004  1.0000
  Br  Br36      1.0  0.43214  0.013370000000000003  0.24266000000000001  1.0000
  C   C175      1.0  0.56568  0.11882  0.69119  1.0000
  C   C176      1.0  0.59603  0.09085  0.70597  1.0000
  C   C177      1.0  0.60799  0.09517  0.74479  1.0000
  C   C178      1.0  0.5848000000000002  0.12082  0.76949  1.0000
  C   C179      1.0  0.55214  0.14613  0.75528  1.0000
  C   C180      1.0  0.54543  0.14762  0.71552  1.0000
  Br  Br37      1.0  0.51114  0.19140000000000004  0.69402  1.0000
  Br  Br38      1.0  0.5529  0.12016000000000003  0.63731  1.0000
  Br  Br39      1.0  0.5966000000000002  0.11787  0.82351  1.0000
  Br  Br40      1.0  0.65567  0.06619  0.7660400000000002  1.0000
  C   C181      1.0  0.42938  0.87977  0.69784  1.0000
  C   C182      1.0  0.40988  0.91668  0.7114300000000001  1.0000
  C   C183      1.0  0.41094000000000014  0.9253  0.7510500000000001  1.0000
  C   C184      1.0  0.4328100000000001  0.89855  0.77613  1.0000
  C   C185      1.0  0.45448  0.86313  0.76218  1.0000
  C   C186      1.0  0.4507100000000001  0.85278  0.72323  1.0000
  Br  Br41      1.0  0.47079  0.79929  0.70537  1.0000
  Br  Br42      1.0  0.42504  0.8643100000000002  0.64482  1.0000
  Br  Br43      1.0  0.4312300000000001  0.9103900000000003  0.8299  1.0000
  Br  Br44      1.0  0.38424000000000014  0.97488  0.77179  1.0000
  C   C187      1.0  0.58895  0.86972  0.29561  1.0000
  C   C188      1.0  0.5798600000000003  0.91294  0.29466  1.0000
  C   C189      1.0  0.54998  0.92843  0.26911  1.0000
  C   C190      1.0  0.531  0.90129  0.24312  1.0000
  C   C191      1.0  0.53646  0.85746  0.24667  1.0000
  C   C192      1.0  0.56606  0.84175  0.27305  1.0000
  Br  Br45      1.0  0.57613  0.7821300000000002  0.27845  1.0000
  Br  Br46      1.0  0.63358  0.84908  0.3269500000000001  1.0000
  Br  Br47      1.0  0.50404  0.9251000000000003  0.199  1.0000
  Br  Br48      1.0  0.53568  0.9871800000000002  0.26904  1.0000
  C   C193      1.0  0.4224100000000001  0.23870000000000005  0.93195  1.0000
  C   C194      1.0  0.40812  0.27963  0.92357  1.0000
  C   C195      1.0  0.4141200000000001  0.29622  0.88672  1.0000
  C   C196      1.0  0.43615  0.27309  0.85927  1.0000
  C   C197      1.0  0.45277  0.23335  0.86854  1.0000
  C   C198      1.0  0.44298  0.21497000000000005  0.90391  1.0000
  Br  Br49      1.0  0.4525400000000001  0.15593  0.91226  1.0000
  Br  Br50      1.0  0.4154500000000001  0.21552  0.9822400000000001  1.0000
  Br  Br51      1.0  0.4387800000000001  0.29353  0.80755  1.0000
  Br  Br52      1.0  0.38967  0.34932  0.8727300000000001  1.0000
  C   C199      1.0  0.56912  0.74863  0.93567  1.0000
  C   C200      1.0  0.58718  0.70963  0.92621  1.0000
  C   C201      1.0  0.5844  0.6949100000000002  0.88839  1.0000
  C   C202      1.0  0.5656700000000001  0.7201000000000002  0.85995  1.0000
  C   C203      1.0  0.54581  0.75817  0.8699  1.0000
  C   C204      1.0  0.5493000000000002  0.7731  0.9075600000000003  1.0000
  Br  Br53      1.0  0.5321  0.82952  0.91961  1.0000
  Br  Br54      1.0  0.56968  0.76788  0.9876900000000001  1.0000
  Br  Br55      1.0  0.57206  0.7049  0.80705  1.0000
  Br  Br56      1.0  0.6062300000000003  0.64032  0.8754  1.0000
  C   C205      1.0  0.40171  0.69841  0.11907999999999999  1.0000
  C   C206      1.0  0.4112500000000001  0.70414  0.08031  1.0000
  C   C207      1.0  0.44053  0.73407  0.06982000000000001  1.0000
  C   C208      1.0  0.45783  0.76029  0.09758  1.0000
  C   C209      1.0  0.45190000000000013  0.75188  0.13676  1.0000
  C   C210      1.0  0.42316  0.7208100000000002  0.14739000000000002  1.0000
  Br  Br57      1.0  0.41276  0.70819  0.20047  1.0000
  Br  Br58      1.0  0.3588600000000001  0.66023  0.13331  1.0000
  Br  Br59      1.0  0.48346000000000006  0.81134  0.08114  1.0000
  Br  Br60      1.0  0.4582600000000001  0.7383300000000003  0.01763  1.0000
  C   C211      1.0  0.54861  0.27436  0.06819  1.0000
  C   C212      1.0  0.5802500000000003  0.30141  0.07946  1.0000
  C   C213      1.0  0.59261  0.30251  0.11795  1.0000
  C   C214      1.0  0.57219  0.27789  0.14528  1.0000
  C   C215      1.0  0.54197  0.24879  0.13356  1.0000
  C   C216      1.0  0.53273  0.2453  0.09429  1.0000
  Br  Br61      1.0  0.50446  0.1971  0.07475  1.0000
  Br  Br62      1.0  0.5259  0.27784  0.01742  1.0000
  Br  Br63      1.0  0.5856900000000003  0.28497  0.19865000000000002  1.0000
  Br  Br64      1.0  0.63728  0.33816  0.13315  1.0000
  C   C217      1.0  0.27199  0.08193000000000003  0.5584000000000001  1.0000
  C   C218      1.0  0.30948  0.09021  0.57692  1.0000
  C   C219      1.0  0.3263  0.13067  0.57449  1.0000
  C   C220      1.0  0.3036300000000001  0.16361  0.5572  1.0000
  C   C221      1.0  0.26642  0.15515  0.53782  1.0000
  C   C222      1.0  0.25047  0.11413  0.5391300000000001  1.0000
  Br  Br65      1.0  0.19667  0.1026  0.51886  1.0000
  Br  Br66      1.0  0.25084  0.02576  0.55802  1.0000
  Br  Br67      1.0  0.32155  0.22066000000000005  0.56393  1.0000
  Br  Br68      1.0  0.38074000000000013  0.14086  0.59398  1.0000
  C   C223      1.0  0.7443800000000003  0.09311  0.3948  1.0000
  C   C224      1.0  0.7025000000000002  0.08586  0.40463  1.0000
  C   C225      1.0  0.68504  0.11127000000000002  0.4342  1.0000
  C   C226      1.0  0.70947  0.14081  0.45372  1.0000
  C   C227      1.0  0.75245  0.14072000000000007  0.44919  1.0000
  C   C228      1.0  0.7694800000000003  0.11697000000000003  0.41898  1.0000
  Br  Br69      1.0  0.82802  0.11288  0.41171  1.0000
  Br  Br70      1.0  0.76971  0.07264  0.34798000000000007  1.0000
  Br  Br71      1.0  0.68355  0.18441  0.48357  1.0000
  Br  Br72      1.0  0.6277  0.10868  0.44865  1.0000
  C   C229      1.0  0.73771  0.91359  0.57437  1.0000
  C   C230      1.0  0.69563  0.90821  0.58303  1.0000
  C   C231      1.0  0.6752  0.87236  0.56922  1.0000
  C   C232      1.0  0.69786  0.84032  0.55105  1.0000
  C   C233      1.0  0.73833  0.84785  0.53877  1.0000
  C   C234      1.0  0.75774  0.88529  0.54988  1.0000
  Br  Br73      1.0  0.81239  0.89803  0.5329200000000001  1.0000
  Br  Br74      1.0  0.76892  0.95977  0.5953  1.0000
  Br  Br75      1.0  0.67522  0.78482  0.54817  1.0000
  Br  Br76      1.0  0.61658  0.86632  0.57453  1.0000
  C   C235      1.0  0.29179  0.88181  0.40628  1.0000
  C   C236      1.0  0.2884700000000001  0.92521  0.4129  1.0000
  C   C237      1.0  0.26058  0.9404200000000003  0.44025  1.0000
  C   C238      1.0  0.23472  0.91259  0.45963  1.0000
  C   C239      1.0  0.24019000000000001  0.8688200000000003  0.45553  1.0000
  C   C240      1.0  0.26858  0.85354  0.42812  1.0000
  Br  Br77      1.0  0.2754000000000001  0.79396  0.41938  1.0000
  Br  Br78      1.0  0.32708  0.86126  0.36625  1.0000
  Br  Br79      1.0  0.18801  0.93513  0.48655  1.0000
  Br  Br80      1.0  0.25805  0.99947  0.45158000000000004  1.0000
  C   C241      1.0  0.12368000000000001  0.4055600000000001  0.70354  1.0000
  C   C242      1.0  0.08182000000000003  0.41707  0.70534  1.0000
  C   C243      1.0  0.06905  0.4485500000000001  0.73079  1.0000
  C   C244      1.0  0.09734  0.46604  0.75645  1.0000
  C   C245      1.0  0.13986000000000007  0.45757  0.75259  1.0000
  C   C246      1.0  0.15288  0.4266500000000001  0.72605  1.0000
  Br  Br81      1.0  0.21047  0.41236  0.72018  1.0000
  Br  Br82      1.0  0.14102  0.36082  0.67015  1.0000
  Br  Br83      1.0  0.07661  0.49541  0.80045  1.0000
  Br  Br84      1.0  0.01287  0.4682100000000001  0.73028  1.0000
  C   C247      1.0  0.09727  0.60961  0.25676000000000004  1.0000
  C   C248      1.0  0.09177  0.59447  0.29459  1.0000
  C   C249      1.0  0.11889999999999999  0.56221  0.30784  1.0000
  C   C250      1.0  0.14726  0.54316  0.28264000000000006  1.0000
  C   C251      1.0  0.14563000000000006  0.55204  0.24329000000000003  1.0000
  C   C252      1.0  0.12183  0.58691  0.23090999999999998  1.0000
  Br  Br85      1.0  0.11885  0.60241  0.17783  1.0000
  Br  Br86      1.0  0.07294  0.66193  0.2386  1.0000
  Br  Br87      1.0  0.19048  0.50722  0.30232  1.0000
  Br  Br88      1.0  0.11949999999999998  0.54388  0.36042000000000013  1.0000
  C   C253      1.0  0.9286900000000002  0.40459  0.24624  1.0000
  C   C254      1.0  0.9162  0.39288  0.2832100000000001  1.0000
  C   C255      1.0  0.87456  0.39744  0.29351  1.0000
  C   C256      1.0  0.84665  0.4174600000000001  0.26846  1.0000
  C   C257      1.0  0.8612000000000002  0.43641000000000013  0.23483999999999997  1.0000
  C   C258      1.0  0.90144  0.4271  0.2224  1.0000
  Br  Br89      1.0  0.91836  0.44256  0.17176  1.0000
  Br  Br90      1.0  0.9828899999999999  0.38981  0.22800000000000004  1.0000
  Br  Br91      1.0  0.7883900000000003  0.4155100000000001  0.27833  1.0000
  Br  Br92      1.0  0.8554700000000002  0.37443  0.34097  1.0000
  C   C259      1.0  0.88255  0.58815  0.70987  1.0000
  C   C260      1.0  0.9248  0.58971  0.71835  1.0000
  C   C261      1.0  0.93941  0.5737400000000002  0.75341  1.0000
  C   C262      1.0  0.91226  0.55462  0.77911  1.0000
  C   C263      1.0  0.8707200000000003  0.54943  0.7689900000000001  1.0000
  C   C264      1.0  0.85543  0.5689300000000003  0.73556  1.0000
  Br  Br93      1.0  0.7970200000000002  0.57421  0.72722  1.0000
  Br  Br94      1.0  0.86161  0.6140700000000002  0.6639  1.0000
  Br  Br95      1.0  0.93104  0.54033  0.82968  1.0000
  Br  Br96      1.0  0.99674  0.57729  0.76613  1.0000
  C   C265      1.0  0.72974  0.6107  0.8934300000000001  1.0000
  C   C266      1.0  0.71962  0.59165  0.9286  1.0000
  C   C267      1.0  0.73552  0.55109  0.9368100000000001  1.0000
  C   C268      1.0  0.7646700000000002  0.53279  0.9121600000000001  1.0000
  C   C269      1.0  0.7688700000000003  0.54793  0.87452  1.0000
  C   C270      1.0  0.75028  0.58715  0.86522  1.0000
  Br  Br97      1.0  0.74922  0.60811  0.81348  1.0000
  Br  Br98      1.0  0.7120300000000003  0.66747  0.88156  1.0000
  Br  Br99      1.0  0.80358  0.49266  0.93268  1.0000
  Br  Br100     1.0  0.72094  0.5212300000000002  0.9828499999999999  1.0000
  C   C271      1.0  0.30651  0.4327000000000001  0.89207  1.0000
  C   C272      1.0  0.2865100000000001  0.40205  0.9150499999999999  1.0000
  C   C273      1.0  0.24469000000000002  0.39222  0.90631  1.0000
  C   C274      1.0  0.22277  0.4161300000000001  0.87903  1.0000
  C   C275      1.0  0.2434  0.44595  0.85639  1.0000
  C   C276      1.0  0.2860600000000001  0.4502  0.8604600000000002  1.0000
  Br  Br101     1.0  0.31736  0.47593000000000013  0.82014  1.0000
  Br  Br102     1.0  0.36188  0.4524100000000001  0.90139  1.0000
  Br  Br103     1.0  0.16364000000000006  0.40926  0.87484  1.0000
  Br  Br104     1.0  0.21423  0.34877  0.9326  1.0000
  C   C277      1.0  0.24467000000000008  0.58629  0.07536  1.0000
  C   C278      1.0  0.28838  0.58256  0.0757  1.0000
  C   C279      1.0  0.30741  0.55807  0.10494  1.0000
  C   C280      1.0  0.28341  0.54115  0.13454  1.0000
  C   C281      1.0  0.24026000000000006  0.54164  0.13198  1.0000
  C   C282      1.0  0.22110000000000005  0.56423  0.10216  1.0000
  Br  Br105     1.0  0.16205  0.56566  0.09775  1.0000
  Br  Br106     1.0  0.21503  0.61804  0.0364  1.0000
  Br  Br107     1.0  0.30961  0.52324  0.1812  1.0000
  Br  Br108     1.0  0.36645  0.55002  0.10786  1.0000
  C   C283      1.0  0.75219  0.41767  0.07117  1.0000
  C   C284      1.0  0.7086000000000002  0.4208900000000001  0.0726  1.0000
  C   C285      1.0  0.69029  0.44382  0.10294  1.0000
  C   C286      1.0  0.71502  0.4593600000000001  0.13284  1.0000
  C   C287      1.0  0.75825  0.45677  0.13087  1.0000
  C   C288      1.0  0.77663  0.43496  0.10028000000000001  1.0000
  Br  Br109     1.0  0.8355  0.42637000000000014  0.09889  1.0000
  Br  Br110     1.0  0.77974  0.39476  0.02674  1.0000
  Br  Br111     1.0  0.68939  0.47725  0.17959  1.0000
  Br  Br112     1.0  0.63127  0.45104  0.10675  1.0000
  C   C289      1.0  0.88245  0.67394  0.5660400000000001  1.0000
  C   C290      1.0  0.9068700000000002  0.69666  0.5927900000000002  1.0000
  C   C291      1.0  0.8968500000000003  0.73987  0.59908  1.0000
  C   C292      1.0  0.86735  0.76032  0.57602  1.0000
  C   C293      1.0  0.8449  0.73806  0.54811  1.0000
  C   C294      1.0  0.8505400000000002  0.69436  0.54549  1.0000
  Br  Br113     1.0  0.81151  0.66176  0.51679  1.0000
  Br  Br114     1.0  0.8889700000000003  0.6140200000000002  0.55842  1.0000
  Br  Br115     1.0  0.86027  0.8202600000000002  0.58195  1.0000
  Br  Br116     1.0  0.9239600000000002  0.77443  0.63737  1.0000
  C   C295      1.0  0.8907700000000002  0.3109  0.438  1.0000
  C   C296      1.0  0.92242  0.29126  0.41599  1.0000
  C   C297      1.0  0.92481  0.24644000000000005  0.41615  1.0000
  C   C298      1.0  0.89895  0.22307  0.44007  1.0000
  C   C299      1.0  0.86645  0.2426  0.45994  1.0000
  C   C300      1.0  0.86114  0.28628  0.45672000000000007  1.0000
  Br  Br117     1.0  0.81039  0.31193  0.4732100000000001  1.0000
  Br  Br118     1.0  0.8841700000000002  0.3712800000000001  0.44131000000000004  1.0000
  Br  Br119     1.0  0.90868  0.16365  0.4453  1.0000
  Br  Br120     1.0  0.9643100000000002  0.21453  0.38588  1.0000
  C   C301      1.0  0.11886000000000002  0.32578  0.5714600000000001  1.0000
  C   C302      1.0  0.09272  0.30109  0.59493  1.0000
  C   C303      1.0  0.10337000000000003  0.25791  0.60053  1.0000
  C   C304      1.0  0.1344  0.23897  0.57824  1.0000
  C   C305      1.0  0.15839  0.26343  0.55321  1.0000
  C   C306      1.0  0.15297  0.3072000000000001  0.55321  1.0000
  Br  Br121     1.0  0.19579  0.34206  0.53294  1.0000
  Br  Br122     1.0  0.11253  0.38619  0.5669900000000001  1.0000
  Br  Br123     1.0  0.14239  0.17867  0.5815700000000001  1.0000
  Br  Br124     1.0  0.07572  0.22214  0.63715  1.0000
  C   C307      1.0  0.07292  0.75441  0.40923  1.0000
  C   C308      1.0  0.07587  0.7097  0.41063  1.0000
  C   C309      1.0  0.10905  0.69103  0.43137  1.0000
  C   C310      1.0  0.13778  0.71634  0.45033  1.0000
  C   C311      1.0  0.13227  0.76009  0.45186  1.0000
  C   C312      1.0  0.10115000000000003  0.7792  0.42952  1.0000
  Br  Br125     1.0  0.09758000000000003  0.8398  0.42551  1.0000
  Br  Br126     1.0  0.02803  0.78357  0.38346  1.0000
  Br  Br127     1.0  0.18844000000000005  0.69173  0.4689900000000001  1.0000
  Br  Br128     1.0  0.11944000000000002  0.6310600000000002  0.43114  1.0000
  C   C313      1.0  0.57164  0.9331500000000003  0.7488300000000001  1.0000
  C   C314      1.0  0.59092  0.9173000000000002  0.7159600000000002  1.0000
  C   C315      1.0  0.59248  0.87364  0.71011  1.0000
  C   C316      1.0  0.57045  0.84658  0.73426  1.0000
  C   C317      1.0  0.54737  0.86319  0.7649300000000002  1.0000
  C   C318      1.0  0.55109  0.9060600000000002  0.7738700000000001  1.0000
  Br  Br129     1.0  0.53385  0.92655  0.82295  1.0000
  Br  Br130     1.0  0.57514  0.99173  0.76055  1.0000
  Br  Br131     1.0  0.57477  0.78672  0.72692  1.0000
  Br  Br132     1.0  0.6280600000000002  0.8507900000000002  0.67155  1.0000
  C   C319      1.0  0.39123  0.91018  0.24949000000000002  1.0000
  C   C320      1.0  0.39939000000000013  0.91299  0.28932  1.0000
  C   C321      1.0  0.42638  0.88298  0.30623  1.0000
  C   C322      1.0  0.4458300000000001  0.85228  0.28353  1.0000
  C   C323      1.0  0.44294  0.85417  0.24346  1.0000
  C   C324      1.0  0.41422  0.88232  0.22658  1.0000
  Br  Br133     1.0  0.40735  0.88503  0.17157  1.0000
  Br  Br134     1.0  0.34951  0.94456  0.22455  1.0000
  Br  Br135     1.0  0.47282  0.80498  0.30762  1.0000
  Br  Br136     1.0  0.43648  0.88185  0.36066000000000004  1.0000
  C   C325      1.0  0.59474  0.07862  0.24307000000000004  1.0000
  C   C326      1.0  0.59438  0.08326  0.28329000000000004  1.0000
  C   C327      1.0  0.57636  0.11958  0.29944  1.0000
  C   C328      1.0  0.55609  0.14905  0.27602  1.0000
  C   C329      1.0  0.55191  0.14162  0.23663  1.0000
  C   C330      1.0  0.5738900000000002  0.108  0.21982  1.0000
  Br  Br137     1.0  0.57687  0.10246  0.1649  1.0000
  Br  Br138     1.0  0.6220900000000003  0.03139  0.21904  1.0000
  Br  Br139     1.0  0.53873  0.20215  0.29706  1.0000
  Br  Br140     1.0  0.58158  0.13097  0.35332000000000013  1.0000
  C   C331      1.0  0.45186  0.06706  0.72799  1.0000
  C   C332      1.0  0.418  0.08261  0.70692  1.0000
  C   C333      1.0  0.40369  0.12385000000000003  0.7133600000000002  1.0000
  C   C334      1.0  0.4258400000000001  0.15068  0.73751  1.0000
  C   C335      1.0  0.4592000000000001  0.13473  0.75943  1.0000
  C   C336      1.0  0.4695  0.09182000000000003  0.75671  1.0000
  Br  Br141     1.0  0.50163  0.0653  0.79632  1.0000
  Br  Br142     1.0  0.4733  0.01142  0.71882  1.0000
  Br  Br143     1.0  0.41027  0.20928000000000005  0.73962  1.0000
  Br  Br144     1.0  0.3531700000000001  0.14351  0.69012  1.0000
  C   C337      1.0  0.5657700000000002  0.68971  0.10965000000000001  1.0000
  C   C338      1.0  0.59329  0.71173  0.08547  1.0000
  C   C339      1.0  0.59854  0.75554  0.09155  1.0000
  C   C340      1.0  0.5737600000000003  0.77715  0.11811  1.0000
  C   C341      1.0  0.54547  0.7550900000000003  0.14101  1.0000
  C   C342      1.0  0.54424  0.7110900000000002  0.13862  1.0000
  Br  Br145     1.0  0.51698  0.67951  0.17800000000000002  1.0000
  Br  Br146     1.0  0.55707  0.62988  0.10527  1.0000
  Br  Br147     1.0  0.57831  0.83772  0.12195  1.0000
  Br  Br148     1.0  0.63902  0.78802  0.06411  1.0000
  C   C343      1.0  0.3951  0.24671  0.09227  1.0000
  C   C344      1.0  0.4023700000000001  0.28979  0.08423  1.0000
  C   C345      1.0  0.43083  0.31189  0.10752  1.0000
  C   C346      1.0  0.45161  0.2910600000000001  0.13738  1.0000
  C   C347      1.0  0.44878  0.24734000000000006  0.1412  1.0000
  C   C348      1.0  0.4193800000000001  0.22538  0.11944000000000002  1.0000
  Br  Br149     1.0  0.41382  0.16501  0.12455  1.0000
  Br  Br150     1.0  0.35294  0.21462  0.06651  1.0000
  Br  Br151     1.0  0.4812700000000001  0.32284  0.17517  1.0000
  Br  Br152     1.0  0.4425100000000001  0.37083  0.10026000000000002  1.0000
  C   C349      1.0  0.5715000000000002  0.3103  0.8873100000000002  1.0000
  C   C350      1.0  0.58474  0.29126  0.92175  1.0000
  C   C351      1.0  0.58003  0.2475  0.9266000000000001  1.0000
  C   C352      1.0  0.55936  0.22398  0.8987500000000002  1.0000
  C   C353      1.0  0.54393  0.24354  0.8654700000000002  1.0000
  C   C354      1.0  0.5524600000000002  0.28613  0.85879  1.0000
  Br  Br153     1.0  0.54259  0.31016  0.80906  1.0000
  Br  Br154     1.0  0.5825  0.36864  0.87733  1.0000
  Br  Br155     1.0  0.55573  0.16411  0.90499  1.0000
  Br  Br156     1.0  0.60208  0.21864  0.971  1.0000
  C   C355      1.0  0.40981  0.7529  0.92366  1.0000
  C   C356      1.0  0.41256  0.70845  0.9227  1.0000
  C   C357      1.0  0.43519  0.68892  0.89305  1.0000
  C   C358      1.0  0.45301  0.71348  0.8642  1.0000
  C   C359      1.0  0.4539400000000001  0.7574700000000002  0.86746  1.0000
  C   C360      1.0  0.4313500000000001  0.77705  0.8968800000000002  1.0000
  Br  Br157     1.0  0.42843  0.83724  0.90052  1.0000
  Br  Br158     1.0  0.3778300000000001  0.7822300000000002  0.9621600000000001  1.0000
  Br  Br159     1.0  0.47001  0.68722  0.81736  1.0000
  Br  Br160     1.0  0.44154  0.6286300000000002  0.89039  1.0000
  C   C361      1.0  0.68027  0.87776  0.42986  1.0000
  C   C362      1.0  0.70058  0.91344  0.41583  1.0000
  C   C363      1.0  0.7436000000000003  0.91675  0.42058000000000006  1.0000
  C   C364      1.0  0.76615  0.88433  0.43843  1.0000
  C   C365      1.0  0.7455300000000002  0.8494500000000003  0.45375000000000004  1.0000
  C   C366      1.0  0.7031500000000003  0.84493  0.44672  1.0000
  Br  Br161     1.0  0.6784300000000004  0.79072  0.45247  1.0000
  Br  Br162     1.0  0.6213300000000003  0.87293  0.42566  1.0000
  Br  Br163     1.0  0.82552  0.88598  0.43771  1.0000
  Br  Br164     1.0  0.77175  0.96694  0.40477  1.0000
  C   C367      1.0  0.30912  0.88899  0.56163  1.0000
  C   C368      1.0  0.29062  0.91818  0.5871500000000001  1.0000
  C   C369      1.0  0.2470400000000001  0.91728  0.59183  1.0000
  C   C370      1.0  0.22285999999999997  0.8905900000000002  0.5692100000000001  1.0000
  C   C371      1.0  0.24150999999999997  0.8633000000000002  0.54251  1.0000
  C   C372      1.0  0.28468  0.8607700000000003  0.54079  1.0000
  Br  Br165     1.0  0.3105400000000001  0.81516  0.51348  1.0000
  Br  Br166     1.0  0.36809  0.88495  0.5555  1.0000
  Br  Br167     1.0  0.16345000000000007  0.892  0.57502  1.0000
  Br  Br168     1.0  0.2181  0.9522400000000002  0.62855  1.0000
  C   C373      1.0  0.32089  0.12620000000000006  0.43078  1.0000
  C   C374      1.0  0.29736  0.09789000000000003  0.4087  1.0000
  C   C375      1.0  0.25393  0.10336  0.4072200000000001  1.0000
  C   C376      1.0  0.23456  0.13469  0.4293  1.0000
  C   C377      1.0  0.25827  0.1619  0.45213  1.0000
  C   C378      1.0  0.3014  0.15958  0.44999  1.0000
  Br  Br169     1.0  0.33373  0.20572  0.46811  1.0000
  Br  Br170     1.0  0.3799900000000001  0.1208  0.43538  1.0000
  Br  Br171     1.0  0.17515000000000006  0.14001  0.42746  1.0000
  Br  Br172     1.0  0.21929000000000007  0.067  0.37694  1.0000
  C   C379      1.0  0.70117  0.11863  0.58627  1.0000
  C   C380      1.0  0.69838  0.07630000000000003  0.57573  1.0000
  C   C381      1.0  0.72112  0.06138  0.54443  1.0000
  C   C382      1.0  0.75092  0.08697  0.52738  1.0000
  C   C383      1.0  0.75259  0.13019  0.5363100000000001  1.0000
  C   C384      1.0  0.72654  0.14593  0.56558  1.0000
  Br  Br173     1.0  0.72406  0.20485000000000006  0.57754  1.0000
  Br  Br174     1.0  0.66971  0.13913  0.62913  1.0000
  Br  Br175     1.0  0.79301  0.060550000000000014  0.497  1.0000
  Br  Br176     1.0  0.7100100000000003  0.006790000000000001  0.52355  1.0000
  C   C385      1.0  0.8903  0.54897  0.30722000000000005  1.0000
  C   C386      1.0  0.9250799999999999  0.56942  0.29251  1.0000
  C   C387      1.0  0.93252  0.5683200000000002  0.25281  1.0000
  C   C388      1.0  0.90463  0.5487000000000002  0.22799  1.0000
  C   C389      1.0  0.8690500000000002  0.5295100000000003  0.24257  1.0000
  C   C390      1.0  0.86126  0.53139  0.28213  1.0000
  Br  Br177     1.0  0.8079100000000002  0.51709  0.3014  1.0000
  Br  Br178     1.0  0.88146  0.54559  0.36155  1.0000
  Br  Br179     1.0  0.91388  0.5515100000000002  0.17364  1.0000
  Br  Br180     1.0  0.9820400000000001  0.59218  0.23216000000000003  1.0000
  C   C391      1.0  0.9219099999999999  0.4108500000000001  0.75009  1.0000
  C   C392      1.0  0.91621  0.4122  0.70995  1.0000
  C   C393      1.0  0.88298  0.43618  0.6949  1.0000
  C   C394      1.0  0.8541000000000002  0.45489  0.71965  1.0000
  C   C395      1.0  0.86203  0.45686  0.75909  1.0000
  C   C396      1.0  0.89625  0.43477  0.77411  1.0000
  Br  Br181     1.0  0.90841  0.4366000000000001  0.8278800000000001  1.0000
  Br  Br182     1.0  0.96638  0.37862  0.77326  1.0000
  Br  Br183     1.0  0.80166  0.473  0.69979  1.0000
  Br  Br184     1.0  0.87664  0.44542  0.64079  1.0000
  C   C397      1.0  0.11930999999999999  0.56635  0.6905  1.0000
  C   C398      1.0  0.09278000000000002  0.59739  0.7062300000000001  1.0000
  C   C399      1.0  0.09814  0.6088800000000002  0.74516  1.0000
  C   C400      1.0  0.12348  0.5843  0.76908  1.0000
  C   C401      1.0  0.14864000000000005  0.5523  0.75334  1.0000
  C   C402      1.0  0.14952  0.5471300000000002  0.7135  1.0000
  Br  Br185     1.0  0.19469000000000006  0.51741  0.6899400000000001  1.0000
  Br  Br186     1.0  0.11584  0.54901  0.63773  1.0000
  Br  Br187     1.0  0.12084  0.59346  0.8238  1.0000
  Br  Br188     1.0  0.07122  0.65748  0.76765  1.0000
  C   C403      1.0  0.11826000000000003  0.40158  0.28369  1.0000
  C   C404      1.0  0.07869  0.41781  0.29146  1.0000
  C   C405      1.0  0.06455  0.45373  0.27154  1.0000
  C   C406      1.0  0.08865  0.47099  0.24222  1.0000
  C   C407      1.0  0.13006000000000006  0.45816  0.2377  1.0000
  C   C408      1.0  0.14469  0.42321  0.25904  1.0000
  Br  Br189     1.0  0.20132000000000005  0.40507  0.2565  1.0000
  Br  Br190     1.0  0.13681  0.3494800000000001  0.30664  1.0000
  Br  Br191     1.0  0.06273  0.50711  0.20495  1.0000
  Br  Br192     1.0  0.011710000000000005  0.47881  0.28306  1.0000
