data_image0
_chemical_formula_structural       O8Cu2C4O8Cu2C4O8Cu2C4O8Cu2C4O8Cu2C4O8Cu2C4O8Cu2C4O8Cu2C4O8Cu2C4O8Cu2C4O8Cu2C4O8Cu2C10H2C6H2C6H2C6H2C6H2C6H2C6H2C6H2C6H2C6H2C6H2C6H2C7H2CF6C7H2CF6C7H2CF6C7H2CF6C7H2CF6C7H2CF6C7H2CF6C7H2CF6C7H2CF6C7H2CF6C7H2CF6C7H2CF6C7H2CF6C7H2CF6C7H2CF6C7H2CF6C7H2CF6C7H2CF6C7H2CF6C7H2CF6C7H2CF6C7H2CF6C7H2CF6C7H2CF6C7H2CF6C7H2CF6C7H2CF6C7H2CF6C7H2CF6C7H2CF6C7H2CF6C7H2CF6C7H2CF6C7H2CF6C7H2CF6C7H2CF6C7H2CF6C7H2CF6C7H2CF6C7H2CF6C7H2CF6C7H2CF6C7H2CF6C7H2CF6C7H2CF6C7H2CF6C7H2CF6C7H2CF6
_chemical_formula_sum              "O96 Cu24 C504 H120 F288"
_cell_length_a       32.85
_cell_length_b       34.1028
_cell_length_c       32.2227
_cell_angle_alpha    90.09649999999999
_cell_angle_beta     89.97540000000001
_cell_angle_gamma    89.6669

_symmetry_space_group_name_H-M    'P 1'
_symmetry_Int_Tables_number       1

loop_
  _symmetry_equiv_pos_as_xyz
  'x,y,z'

loop_
  _atom_site_type_symbol
  _atom_site_label
  _atom_site_symmetry_multiplicity
  _atom_site_fract_x
  _atom_site_fract_y
  _atom_site_fract_z
  _atom_site_occupancy
  O   O1        1.0  0.3497  0.39982  0.04065000000000001  1.0000
  O   O2        1.0  0.40171  0.34255  0.9589900000000001  1.0000
  O   O3        1.0  0.34938  0.39895  0.9601600000000001  1.0000
  O   O4        1.0  0.40465  0.34344  0.04057  1.0000
  O   O5        1.0  0.35648  0.29864  0.039890000000000016  1.0000
  O   O6        1.0  0.2984799999999999  0.35756000000000004  0.96431  1.0000
  O   O7        1.0  0.35111  0.30072  0.95866  1.0000
  O   O8        1.0  0.30155  0.35488  0.04342  1.0000
  Cu  Cu1       1.0  0.38155  0.37538  0.0003  1.0000
  Cu  Cu2       1.0  0.32224  0.32327  0.0019400000000000003  1.0000
  C   C1        1.0  0.31628  0.38732  0.05520000000000001  1.0000
  C   C2        1.0  0.38468  0.3123300000000001  0.9438600000000001  1.0000
  C   C3        1.0  0.31418  0.38823  0.9487400000000001  1.0000
  C   C4        1.0  0.39035  0.31114  0.05334  1.0000
  O   O9        1.0  0.59877  0.6565600000000003  0.95983  1.0000
  O   O10       1.0  0.65654  0.59776  0.0355  1.0000
  O   O11       1.0  0.60185  0.6538  0.03995000000000001  1.0000
  O   O12       1.0  0.65381  0.60269  0.9541499999999999  1.0000
  O   O13       1.0  0.70387  0.6450700000000001  0.95706  1.0000
  O   O14       1.0  0.65008  0.69831  0.0402  1.0000
  O   O15       1.0  0.70463  0.64283  0.037170000000000016  1.0000
  O   O16       1.0  0.6481  0.70017  0.9596600000000001  1.0000
  Cu  Cu3       1.0  0.62302  0.62302  0.99749  1.0000
  Cu  Cu4       1.0  0.68152  0.67609  0.9985500000000002  1.0000
  C   C5        1.0  0.61363  0.68856  0.9469100000000001  1.0000
  C   C6        1.0  0.69027  0.61035  0.04917  1.0000
  C   C7        1.0  0.61673  0.6852400000000001  0.0544  1.0000
  C   C8        1.0  0.68776  0.61496  0.94075  1.0000
  O   O17       1.0  0.6440299999999998  0.41090000000000004  0.9615800000000002  1.0000
  O   O18       1.0  0.59247  0.3530100000000001  0.04235000000000011  1.0000
  O   O19       1.0  0.64587  0.40932  0.042300000000000004  1.0000
  O   O20       1.0  0.59367  0.35142  0.96105  1.0000
  O   O21       1.0  0.64476  0.30897  0.96066  1.0000
  O   O22       1.0  0.69621  0.36684  0.040939999999999976  1.0000
  O   O23       1.0  0.64293  0.30997000000000013  0.04140000000000011  1.0000
  O   O24       1.0  0.69465  0.36817  0.96133  1.0000
  Cu  Cu5       1.0  0.61382  0.38533000000000006  0.0018100000000003116  1.0000
  Cu  Cu6       1.0  0.67461  0.33417  0.0011099999999999444  1.0000
  C   C9        1.0  0.6784  0.39962  0.94795  1.0000
  C   C10       1.0  0.60893  0.32175  0.055690000000000024  1.0000
  C   C11       1.0  0.68065  0.3983300000000001  0.05516999999999995  1.0000
  C   C12       1.0  0.6105199999999997  0.3204300000000001  0.9470400000000002  1.0000
  O   O25       1.0  0.35186  0.5919000000000001  0.9614000000000003  1.0000
  O   O26       1.0  0.40762  0.64956  0.039940000000000316  1.0000
  O   O27       1.0  0.35242  0.59489  0.04245000000000033  1.0000
  O   O28       1.0  0.40611  0.64835  0.95906  1.0000
  O   O29       1.0  0.35717  0.6931  0.95877  1.0000
  O   O30       1.0  0.30406  0.63942  0.04082000000000008  1.0000
  O   O31       1.0  0.35894  0.6945300000000001  0.03865000000000008  1.0000
  O   O32       1.0  0.30325  0.63695  0.9608400000000002  1.0000
  Cu  Cu7       1.0  0.38442  0.61665  0.000660000000000327  1.0000
  Cu  Cu8       1.0  0.32597  0.67041  0.99971  1.0000
  C   C13       1.0  0.31767  0.60438  0.94843  1.0000
  C   C14       1.0  0.39282  0.682  0.052329999999999995  1.0000
  C   C15       1.0  0.31846  0.60774  0.055709999999999926  1.0000
  C   C16       1.0  0.39093  0.68015  0.94533  1.0000
  O   O33       1.0  0.95726  0.39855  0.35253  1.0000
  O   O34       1.0  0.03475  0.34220000000000006  0.40949000000000013  1.0000
  O   O35       1.0  0.03624999999999999  0.39689  0.35254  1.0000
  O   O36       1.0  0.9547699999999999  0.3400100000000001  0.40382  1.0000
  O   O37       1.0  0.95904  0.29616  0.3541900000000001  1.0000
  O   O38       1.0  0.03805  0.35296  0.30242  1.0000
  O   O39       1.0  0.03831  0.2991  0.3583  1.0000
  O   O40       1.0  0.9595899999999999  0.35494  0.3018  1.0000
  Cu  Cu9       1.0  0.9956100000000001  0.37358  0.3849  1.0000
  Cu  Cu10      1.0  0.99873  0.32128  0.32432  1.0000
  C   C17       1.0  0.94573  0.38669  0.31717  1.0000
  C   C18       1.0  0.05007  0.31152  0.39345  1.0000
  C   C19       1.0  0.05072  0.3847  0.31820000000000004  1.0000
  C   C20       1.0  0.94289  0.30791  0.3876400000000001  1.0000
  O   O41       1.0  0.03872  0.653  0.5877400000000003  1.0000
  O   O42       1.0  0.95948  0.59285  0.6378500000000003  1.0000
  O   O43       1.0  0.9589499999999999  0.65271  0.58689  1.0000
  O   O44       1.0  0.03839  0.59585  0.64155  1.0000
  O   O45       1.0  0.03416  0.6374900000000002  0.69342  1.0000
  O   O46       1.0  0.94847  0.68831  0.6430400000000002  1.0000
  O   O47       1.0  0.95841  0.63294  0.6919000000000002  1.0000
  O   O48       1.0  0.03193  0.69666  0.6375500000000001  1.0000
  Cu  Cu11      1.0  0.99923  0.61961  0.6080600000000003  1.0000
  Cu  Cu12      1.0  0.99432  0.66929  0.67038  1.0000
  C   C21       1.0  0.04908  0.68523  0.60415  1.0000
  C   C22       1.0  0.94617  0.60219  0.6736000000000002  1.0000
  C   C23       1.0  0.93904  0.67919  0.6061  1.0000
  C   C24       1.0  0.04976  0.60679  0.6773500000000002  1.0000
  O   O49       1.0  0.043709999999999916  0.6030400000000001  0.3598500000000001  1.0000
  O   O50       1.0  0.9589499999999999  0.65806  0.40847  1.0000
  O   O51       1.0  0.96505  0.6018600000000001  0.3549600000000001  1.0000
  O   O52       1.0  0.03947999999999996  0.66532  0.40866  1.0000
  O   O53       1.0  0.04512999999999989  0.7012800000000001  0.35221  1.0000
  O   O54       1.0  0.96506  0.6427200000000002  0.3019600000000001  1.0000
  O   O55       1.0  0.95992  0.70014  0.35706  1.0000
  O   O56       1.0  0.03964999999999996  0.64141  0.30485  1.0000
  Cu  Cu13      1.0  0.0022099999999998232  0.62842  0.38876  1.0000
  Cu  Cu14      1.0  0.0018100000000000893  0.67701  0.32543  1.0000
  C   C25       1.0  0.05451000000000005  0.61161  0.3231500000000001  1.0000
  C   C26       1.0  0.94375  0.6877900000000002  0.3904200000000001  1.0000
  C   C27       1.0  0.9522  0.61164  0.3191700000000001  1.0000
  C   C28       1.0  0.05604999999999993  0.6934  0.3890400000000001  1.0000
  O   O57       1.0  0.96316  0.33899  0.59326  1.0000
  O   O58       1.0  0.03692999999999991  0.4002  0.64969  1.0000
  O   O59       1.0  0.042810000000000015  0.34412  0.59584  1.0000
  O   O60       1.0  0.9579  0.39525  0.6486700000000002  1.0000
  O   O61       1.0  0.96029  0.35168  0.69893  1.0000
  O   O62       1.0  0.04214999999999991  0.29919  0.64461  1.0000
  O   O63       1.0  0.03917999999999978  0.35565  0.69944  1.0000
  O   O64       1.0  0.9638  0.29589  0.6444600000000003  1.0000
  Cu  Cu15      1.0  0.99984  0.37399  0.6166600000000002  1.0000
  Cu  Cu16      1.0  0.0016499999999999293  0.32127000000000006  0.67693  1.0000
  C   C29       1.0  0.9508299999999997  0.30726000000000003  0.60943  1.0000
  C   C30       1.0  0.0507200000000001  0.388  0.68411  1.0000
  C   C31       1.0  0.05671000000000004  0.31232000000000004  0.61099  1.0000
  C   C32       1.0  0.94508  0.38256  0.6833800000000002  1.0000
  O   O65       1.0  0.41108  0.03798  0.34838  1.0000
  O   O66       1.0  0.35254  0.96696  0.4095400000000001  1.0000
  O   O67       1.0  0.40439  0.96146  0.34872  1.0000
  O   O68       1.0  0.35397  0.04292  0.4050800000000001  1.0000
  O   O69       1.0  0.30473  0.04279  0.35833  1.0000
  O   O70       1.0  0.35665  0.96427  0.30066  1.0000
  O   O71       1.0  0.30469  0.967  0.3619100000000001  1.0000
  O   O72       1.0  0.36161  0.0407  0.30198  1.0000
  Cu  Cu17      1.0  0.38548  0.00227  0.3825100000000001  1.0000
  Cu  Cu18      1.0  0.32716  0.00377  0.32593  1.0000
  C   C33       1.0  0.39625  0.05163  0.3150400000000001  1.0000
  C   C34       1.0  0.31862  0.95463  0.39639  1.0000
  C   C35       1.0  0.38902  0.9490499999999998  0.31497  1.0000
  C   C36       1.0  0.32017  0.056  0.3915200000000001  1.0000
  O   O73       1.0  0.60511  0.03892  0.65819  1.0000
  O   O74       1.0  0.65534  0.9577200000000001  0.60228  1.0000
  O   O75       1.0  0.5979  0.96208  0.65696  1.0000
  O   O76       1.0  0.6607  0.03379  0.60107  1.0000
  O   O77       1.0  0.70749  0.029999999999999995  0.65023  1.0000
  O   O78       1.0  0.64375  0.95941  0.70707  1.0000
  O   O79       1.0  0.70125  0.95398  0.6520400000000002  1.0000
  O   O80       1.0  0.65181  0.035760000000000014  0.70689  1.0000
  Cu  Cu19      1.0  0.62495  0.99854  0.62477  1.0000
  Cu  Cu20      1.0  0.68065  0.99441  0.68407  1.0000
  C   C37       1.0  0.62019  0.05175  0.6919100000000002  1.0000
  C   C38       1.0  0.687  0.94197  0.61777  1.0000
  C   C39       1.0  0.61032  0.94829  0.69126  1.0000
  C   C40       1.0  0.69466  0.04407  0.61617  1.0000
  O   O81       1.0  0.35345  0.04109999999999992  0.59312  1.0000
  O   O82       1.0  0.40571  0.96287  0.65046  1.0000
  O   O83       1.0  0.34606  0.965  0.59733  1.0000
  O   O84       1.0  0.40936  0.03917999999999999  0.64998  1.0000
  O   O85       1.0  0.36376  0.043080000000000014  0.7003500000000003  1.0000
  O   O86       1.0  0.30007  0.9704300000000001  0.6471500000000002  1.0000
  O   O87       1.0  0.35982  0.96664  0.70013  1.0000
  O   O88       1.0  0.30823  0.0462800000000001  0.64337  1.0000
  Cu  Cu21      1.0  0.38322  0.001500000000000279  0.6177200000000003  1.0000
  Cu  Cu22      1.0  0.32841  0.007009999999999962  0.67779  1.0000
  C   C41       1.0  0.32228  0.05754999999999999  0.6086100000000002  1.0000
  C   C42       1.0  0.39164  0.95092  0.68475  1.0000
  C   C43       1.0  0.31217  0.9553400000000001  0.6133100000000002  1.0000
  C   C44       1.0  0.39704  0.05376000000000003  0.6841  1.0000
  O   O89       1.0  0.59435  0.96271  0.34849000000000013  1.0000
  O   O90       1.0  0.65498  0.03686999999999996  0.4043  1.0000
  O   O91       1.0  0.60012  0.039530000000000065  0.34752  1.0000
  O   O92       1.0  0.64868  0.9601200000000001  0.40761  1.0000
  O   O93       1.0  0.6961  0.9542799999999999  0.35931  1.0000
  O   O94       1.0  0.64909  0.036049999999999915  0.30116  1.0000
  O   O95       1.0  0.70363  0.030440000000000023  0.3582200000000001  1.0000
  O   O96       1.0  0.64194  0.9596899999999999  0.30023  1.0000
  Cu  Cu23      1.0  0.61969  5.0000000000105455e-05  0.38177  1.0000
  Cu  Cu24      1.0  0.67745  0.9944000000000001  0.32501000000000013  1.0000
  C   C45       1.0  0.60777  0.9489900000000001  0.3144200000000001  1.0000
  C   C46       1.0  0.68966  0.047029999999999905  0.39045  1.0000
  C   C47       1.0  0.61682  0.0523100000000003  0.31464  1.0000
  C   C48       1.0  0.68053  0.94359  0.3935300000000001  1.0000
  C   C49       1.0  0.80789  0.76146  0.47813  1.0000
  C   C50       1.0  0.81004  0.7611  0.52259  1.0000
  C   C51       1.0  0.78575  0.78752  0.5451  1.0000
  C   C52       1.0  0.75972  0.81426  0.52549  1.0000
  C   C53       1.0  0.75734  0.8149200000000001  0.4816200000000001  1.0000
  C   C54       1.0  0.7807999999999998  0.78793  0.4587600000000001  1.0000
  H   H1        1.0  0.7801  0.78942  0.42519  1.0000
  H   H2        1.0  0.7891  0.78928  0.57848  1.0000
  C   C55       1.0  0.18011  0.22994  0.47849000000000014  1.0000
  C   C56       1.0  0.18396  0.23282  0.52234  1.0000
  C   C57       1.0  0.21176  0.20832000000000003  0.5429700000000002  1.0000
  C   C58       1.0  0.23408  0.17972  0.52149  1.0000
  C   C59       1.0  0.2319  0.17812  0.4777300000000001  1.0000
  C   C60       1.0  0.20471  0.20296000000000003  0.45677  1.0000
  H   H3        1.0  0.20102  0.19966  0.42354000000000014  1.0000
  H   H4        1.0  0.21393  0.20972  0.5765100000000002  1.0000
  C   C61       1.0  0.16796999999999995  0.78614  0.5234  1.0000
  C   C62       1.0  0.17149  0.78564  0.47923  1.0000
  C   C63       1.0  0.19784999999999994  0.81224  0.46000000000000013  1.0000
  C   C64       1.0  0.22019  0.8395400000000002  0.48311  1.0000
  C   C65       1.0  0.21835  0.83842  0.52701  1.0000
  C   C66       1.0  0.19262  0.81154  0.5465200000000002  1.0000
  H   H5        1.0  0.19063  0.81138  0.58004  1.0000
  H   H6        1.0  0.19955  0.81308  0.4265600000000001  1.0000
  C   C67       1.0  0.77718  0.16465  0.48106  1.0000
  C   C68       1.0  0.78587  0.15822  0.52359  1.0000
  C   C69       1.0  0.8138199999999998  0.18249  0.54386  1.0000
  C   C70       1.0  0.8352499999999998  0.21139  0.5222700000000002  1.0000
  C   C71       1.0  0.82693  0.21789  0.4797000000000001  1.0000
  C   C72       1.0  0.79737  0.19487  0.4600100000000001  1.0000
  H   H7        1.0  0.79156  0.19915  0.42719  1.0000
  H   H8        1.0  0.8202  0.17777000000000004  0.5765  1.0000
  C   C73       1.0  0.51861  0.82858  0.7751900000000003  1.0000
  C   C74       1.0  0.47562  0.83013  0.77829  1.0000
  C   C75       1.0  0.45555  0.80328  0.80396  1.0000
  C   C76       1.0  0.47766  0.77755  0.82938  1.0000
  C   C77       1.0  0.5205699999999999  0.77646  0.82662  1.0000
  C   C78       1.0  0.54052  0.80174  0.79931  1.0000
  H   H9        1.0  0.57352  0.80199  0.79854  1.0000
  H   H10       1.0  0.42261  0.8034100000000002  0.80545  1.0000
  C   C79       1.0  0.528  0.17669  0.23066  1.0000
  C   C80       1.0  0.4848  0.17315  0.22876  1.0000
  C   C81       1.0  0.46288  0.19694  0.20091000000000006  1.0000
  C   C82       1.0  0.48254  0.22408  0.17542000000000005  1.0000
  C   C83       1.0  0.52529  0.22642  0.17615  1.0000
  C   C84       1.0  0.5474  0.20387  0.20460000000000006  1.0000
  H   H11       1.0  0.58033  0.20597  0.20482000000000006  1.0000
  H   H12       1.0  0.43023  0.19359  0.19811000000000006  1.0000
  C   C85       1.0  0.52873  0.17667000000000002  0.77198  1.0000
  C   C86       1.0  0.4857  0.17618  0.7684000000000002  1.0000
  C   C87       1.0  0.4624799999999999  0.20211  0.79279  1.0000
  C   C88       1.0  0.48051  0.22746  0.8218500000000002  1.0000
  C   C89       1.0  0.52336  0.22581  0.82744  1.0000
  C   C90       1.0  0.54671  0.20171  0.8012  1.0000
  H   H13       1.0  0.57954  0.20124  0.8047900000000002  1.0000
  H   H14       1.0  0.42961  0.20154  0.79007  1.0000
  C   C91       1.0  0.52362  0.78138  0.16916  1.0000
  C   C92       1.0  0.48075  0.7827  0.16459000000000004  1.0000
  C   C93       1.0  0.45764  0.80811  0.18964  1.0000
  C   C94       1.0  0.47654  0.8336200000000001  0.21765  1.0000
  C   C95       1.0  0.51914  0.8313  0.22326  1.0000
  C   C96       1.0  0.54206  0.80468  0.19963  1.0000
  H   H15       1.0  0.57475  0.80336  0.20383  1.0000
  H   H16       1.0  0.4248  0.80878  0.18642000000000006  1.0000
  C   C97       1.0  0.82326  0.51677  0.76317  1.0000
  C   C98       1.0  0.82079  0.47535000000000005  0.76606  1.0000
  C   C99       1.0  0.79467  0.45858  0.7955200000000002  1.0000
  C   C100      1.0  0.77318  0.48179  0.8240800000000003  1.0000
  C   C101      1.0  0.77615  0.5232000000000001  0.8216700000000002  1.0000
  C   C102      1.0  0.7999  0.54005  0.79028  1.0000
  H   H17       1.0  0.80226  0.57172  0.78872  1.0000
  H   H18       1.0  0.79274  0.42691  0.79768  1.0000
  C   C103      1.0  0.16179  0.47665  0.21786  1.0000
  C   C104      1.0  0.16217999999999994  0.51806  0.22079  1.0000
  C   C105      1.0  0.19023  0.53946  0.19711  1.0000
  C   C106      1.0  0.21535  0.52112  0.16741  1.0000
  C   C107      1.0  0.21503999999999998  0.47952000000000006  0.1648  1.0000
  C   C108      1.0  0.18955  0.45801  0.19116000000000005  1.0000
  H   H19       1.0  0.19077  0.42628  0.19012  1.0000
  H   H20       1.0  0.19186  0.57084  0.20148  1.0000
  C   C109      1.0  0.83463  0.52248  0.22415000000000004  1.0000
  C   C110      1.0  0.82917  0.48162  0.2284  1.0000
  C   C111      1.0  0.79987  0.46247000000000005  0.20429000000000005  1.0000
  C   C112      1.0  0.77733  0.48285000000000006  0.17422000000000007  1.0000
  C   C113      1.0  0.7810399999999998  0.52416  0.17182  1.0000
  C   C114      1.0  0.80939  0.5434600000000002  0.19698000000000004  1.0000
  H   H21       1.0  0.81285  0.57491  0.19429  1.0000
  H   H22       1.0  0.79618  0.4311  0.20752  1.0000
  C   C115      1.0  0.16383999999999999  0.47813  0.78128  1.0000
  C   C116      1.0  0.16577  0.5196500000000001  0.77945  1.0000
  C   C117      1.0  0.19581  0.5389400000000001  0.8027000000000002  1.0000
  C   C118      1.0  0.22098  0.51832  0.83035  1.0000
  C   C119      1.0  0.21771  0.47705999999999993  0.83334  1.0000
  C   C120      1.0  0.19081  0.45743  0.80693  1.0000
  H   H23       1.0  0.18983999999999995  0.4256800000000001  0.8072900000000002  1.0000
  H   H24       1.0  0.1983  0.57049  0.80084  1.0000
  C   C121      1.0  0.25831  0.43114  0.06743  1.0000
  C   C122      1.0  0.29237  0.41183000000000003  0.0838  1.0000
  C   C123      1.0  0.30126  0.41467  0.12651  1.0000
  C   C124      1.0  0.27516  0.43711  0.1519  1.0000
  C   C125      1.0  0.24115  0.45696  0.13549  1.0000
  C   C126      1.0  0.23199  0.45331  0.09264  1.0000
  C   C127      1.0  0.19545  0.47289  0.07255  1.0000
  H   H25       1.0  0.25229  0.4285500000000001  0.03445  1.0000
  H   H26       1.0  0.28122  0.43968  0.18483  1.0000
  C   C128      1.0  0.33777  0.39359  0.14487000000000005  1.0000
  F   F1        1.0  0.20566999999999996  0.51055  0.061280000000000015  1.0000
  F   F2        1.0  0.16248  0.47405  0.09908000000000003  1.0000
  F   F3        1.0  0.1835  0.45281  0.03724  1.0000
  F   F4        1.0  0.37301999999999996  0.40727  0.12659000000000006  1.0000
  F   F5        1.0  0.33456  0.35374  0.13764  1.0000
  F   F6        1.0  0.3407  0.39948  0.18728000000000006  1.0000
  C   C129      1.0  0.70338  0.59226  0.12176  1.0000
  C   C130      1.0  0.7131  0.5873  0.07978000000000003  1.0000
  C   C131      1.0  0.74525  0.56198  0.06789  1.0000
  C   C132      1.0  0.76735  0.54249  0.09898  1.0000
  C   C133      1.0  0.7577  0.54738  0.14109  1.0000
  C   C134      1.0  0.72516  0.57248  0.15296  1.0000
  C   C135      1.0  0.71339  0.57831  0.19818000000000005  1.0000
  H   H27       1.0  0.67885  0.61219  0.12991  1.0000
  H   H28       1.0  0.79224  0.52302  0.09072  1.0000
  C   C136      1.0  0.75608  0.5559500000000002  0.02257  1.0000
  F   F7        1.0  0.67701  0.59868  0.20208  1.0000
  F   F8        1.0  0.74327  0.5994  0.21832  1.0000
  F   F9        1.0  0.7088399999999998  0.54248  0.21762  1.0000
  F   F10       1.0  0.7689699999999998  0.59104  0.00585  1.0000
  F   F11       1.0  0.72231  0.54298  0.0010300000000000005  1.0000
  F   F12       1.0  0.78692  0.52851  0.01749  1.0000
  C   C137      1.0  0.7433  0.4250000000000001  0.9211  1.0000
  C   C138      1.0  0.70083  0.42305  0.91677  1.0000
  C   C139      1.0  0.68192  0.4414  0.8822500000000002  1.0000
  C   C140      1.0  0.7068599999999999  0.4585  0.85174  1.0000
  C   C141      1.0  0.74913  0.46172000000000013  0.8569200000000002  1.0000
  C   C142      1.0  0.7678  0.44471  0.89224  1.0000
  C   C143      1.0  0.81344  0.44653  0.89918  1.0000
  H   H29       1.0  0.75725  0.41101  0.94774  1.0000
  H   H30       1.0  0.69342  0.46978999999999993  0.82354  1.0000
  C   C144      1.0  0.63592  0.44368  0.87766  1.0000
  F   F13       1.0  0.82456  0.43139  0.9374  1.0000
  F   F14       1.0  0.82619  0.48494000000000004  0.8977800000000002  1.0000
  F   F15       1.0  0.83338  0.42515  0.86887  1.0000
  F   F16       1.0  0.6190099999999998  0.40683  0.88018  1.0000
  F   F17       1.0  0.62447  0.45988  0.84003  1.0000
  F   F18       1.0  0.61998  0.46694  0.90892  1.0000
  C   C145      1.0  0.30679  0.57834  0.87759  1.0000
  C   C146      1.0  0.29383  0.58069  0.91898  1.0000
  C   C147      1.0  0.25739  0.56208  0.9312100000000002  1.0000
  C   C148      1.0  0.23452  0.54227  0.90109  1.0000
  C   C149      1.0  0.24684999999999999  0.54074  0.85949  1.0000
  C   C150      1.0  0.28335  0.5593  0.84713  1.0000
  C   C151      1.0  0.2967  0.56057  0.80199  1.0000
  H   H31       1.0  0.33489  0.59245  0.86906  1.0000
  H   H32       1.0  0.2065  0.52789  0.90971  1.0000
  C   C152      1.0  0.24336  0.5622000000000001  0.9760700000000002  1.0000
  F   F19       1.0  0.27168  0.58601  0.78034  1.0000
  F   F20       1.0  0.29451  0.52382  0.7840100000000002  1.0000
  F   F21       1.0  0.33639  0.5735100000000002  0.7981100000000002  1.0000
  F   F22       1.0  0.23525  0.60015  0.98885  1.0000
  F   F23       1.0  0.2734699999999999  0.54613  0.0008300000000003305  1.0000
  F   F24       1.0  0.20831  0.54046  0.9814400000000002  1.0000
  C   C153      1.0  0.12264999999999998  0.29501  0.40132  1.0000
  C   C154      1.0  0.08267  0.29045  0.41542  1.0000
  C   C155      1.0  0.07456  0.26585  0.44952  1.0000
  C   C156      1.0  0.10707  0.24545  0.4678600000000001  1.0000
  C   C157      1.0  0.14761  0.25147  0.4554900000000001  1.0000
  C   C158      1.0  0.15568  0.27691  0.42155  1.0000
  C   C159      1.0  0.19815  0.28536  0.40529  1.0000
  H   H33       1.0  0.12807  0.31367  0.37469  1.0000
  H   H34       1.0  0.10104  0.22470000000000007  0.49242  1.0000
  C   C160      1.0  0.03167  0.26087  0.4659500000000001  1.0000
  F   F25       1.0  0.20032  0.32345  0.39065  1.0000
  F   F26       1.0  0.20683  0.25999  0.37295  1.0000
  F   F27       1.0  0.22758  0.28138  0.4356100000000001  1.0000
  F   F28       1.0  0.03015  0.23432000000000006  0.49836  1.0000
  F   F29       1.0  0.00684  0.24746  0.43449  1.0000
  F   F30       1.0  0.01694  0.29649  0.4802  1.0000
  C   C161      1.0  0.07678  0.75112  0.5873400000000002  1.0000
  C   C162      1.0  0.08077  0.71019  0.58397  1.0000
  C   C163      1.0  0.11486  0.69446  0.56212  1.0000
  C   C164      1.0  0.1426  0.72027  0.54324  1.0000
  C   C165      1.0  0.13814  0.7610500000000002  0.54609  1.0000
  C   C166      1.0  0.10464  0.77697  0.56863  1.0000
  C   C167      1.0  0.09765999999999998  0.8209500000000001  0.57303  1.0000
  H   H35       1.0  0.05116  0.76292  0.60456  1.0000
  H   H36       1.0  0.16831  0.70879  0.5259  1.0000
  C   C168      1.0  0.12345  0.65076  0.5604100000000002  1.0000
  F   F31       1.0  0.05791000000000001  0.82936  0.58445  1.0000
  F   F32       1.0  0.10505  0.84016  0.53604  1.0000
  F   F33       1.0  0.12316000000000002  0.8356700000000002  0.60329  1.0000
  F   F34       1.0  0.09503  0.6324100000000001  0.53553  1.0000
  F   F35       1.0  0.12196  0.63557  0.60011  1.0000
  F   F36       1.0  0.16169  0.6425400000000001  0.54439  1.0000
  C   C169      1.0  0.88199  0.6842  0.43524  1.0000
  C   C170      1.0  0.90638  0.70693  0.40852  1.0000
  C   C171      1.0  0.89352  0.7460100000000001  0.3997100000000001  1.0000
  C   C172      1.0  0.86076  0.7620600000000002  0.42261  1.0000
  C   C173      1.0  0.83767  0.73974  0.45077  1.0000
  C   C174      1.0  0.84653  0.69914  0.45428  1.0000
  C   C175      1.0  0.81945  0.67018  0.4766700000000001  1.0000
  H   H37       1.0  0.8899499999999999  0.65375  0.4405500000000001  1.0000
  H   H38       1.0  0.85339  0.79286  0.41928  1.0000
  C   C176      1.0  0.9132  0.77096  0.3662300000000001  1.0000
  F   F37       1.0  0.81131  0.63896  0.45053  1.0000
  F   F38       1.0  0.78255  0.68641  0.48839  1.0000
  F   F39       1.0  0.83927  0.6560400000000001  0.5114500000000002  1.0000
  F   F40       1.0  0.909  0.75273  0.32812000000000013  1.0000
  F   F41       1.0  0.95394  0.77646  0.3746600000000001  1.0000
  F   F42       1.0  0.89519  0.80766  0.36322  1.0000
  C   C177      1.0  0.93541  0.25473  0.55943  1.0000
  C   C178      1.0  0.92103  0.28303  0.5874300000000002  1.0000
  C   C179      1.0  0.87897  0.2861600000000001  0.59585  1.0000
  C   C180      1.0  0.85213  0.26133  0.5745900000000003  1.0000
  C   C181      1.0  0.86626  0.234  0.5452600000000001  1.0000
  C   C182      1.0  0.90874  0.22907  0.5390500000000003  1.0000
  C   C183      1.0  0.92765  0.19669  0.5128800000000002  1.0000
  H   H39       1.0  0.96793  0.2519800000000001  0.5543  1.0000
  H   H40       1.0  0.81964  0.26375  0.5798800000000002  1.0000
  C   C184      1.0  0.86268  0.31641  0.62627  1.0000
  F   F43       1.0  0.94569  0.21296  0.47834  1.0000
  F   F44       1.0  0.89991  0.16891000000000006  0.50002  1.0000
  F   F45       1.0  0.95728  0.17753  0.5358  1.0000
  F   F46       1.0  0.87354  0.35349  0.61319  1.0000
  F   F47       1.0  0.87886  0.30965  0.66524  1.0000
  F   F48       1.0  0.82068  0.31523  0.62939  1.0000
  C   C185      1.0  0.40552  0.12029  0.29505  1.0000
  C   C186      1.0  0.41906  0.08141  0.29178  1.0000
  C   C187      1.0  0.45439  0.07269  0.2682  1.0000
  C   C188      1.0  0.47431  0.10343  0.24785000000000004  1.0000
  C   C189      1.0  0.46195  0.14272  0.2523200000000001  1.0000
  C   C190      1.0  0.42706  0.15145  0.27702  1.0000
  C   C191      1.0  0.4114699999999999  0.19275000000000003  0.28575  1.0000
  H   H41       1.0  0.37845  0.12648  0.31326  1.0000
  H   H42       1.0  0.50009  0.0965  0.22813000000000005  1.0000
  C   C192      1.0  0.4731  0.03212000000000001  0.26385  1.0000
  F   F49       1.0  0.39767  0.19549  0.32627  1.0000
  F   F50       1.0  0.37942  0.2011  0.2593600000000001  1.0000
  F   F51       1.0  0.44117  0.22086000000000006  0.28092000000000006  1.0000
  F   F52       1.0  0.449  0.00285  0.2797  1.0000
  F   F53       1.0  0.50991  0.03144  0.2846  1.0000
  F   F54       1.0  0.4799  0.02384  0.22235  1.0000
  C   C193      1.0  0.57525  0.11032  0.68896  1.0000
  C   C194      1.0  0.6006  0.08596  0.71305  1.0000
  C   C195      1.0  0.60663  0.09571  0.7556200000000001  1.0000
  C   C196      1.0  0.58187  0.12497000000000001  0.7734  1.0000
  C   C197      1.0  0.55565  0.14837  0.74943  1.0000
  C   C198      1.0  0.55539  0.1432  0.7058100000000003  1.0000
  C   C199      1.0  0.53717  0.17239  0.67556  1.0000
  H   H43       1.0  0.57244  0.10489  0.65593  1.0000
  H   H44       1.0  0.58289  0.12996  0.80657  1.0000
  C   C200      1.0  0.63922  0.07667  0.78245  1.0000
  F   F55       1.0  0.56541  0.18061  0.64492  1.0000
  F   F56       1.0  0.5269  0.2075  0.69432  1.0000
  F   F57       1.0  0.50315  0.15644  0.6570100000000002  1.0000
  F   F58       1.0  0.67714  0.08303  0.7651300000000002  1.0000
  F   F59       1.0  0.63239  0.03703  0.78568  1.0000
  F   F60       1.0  0.63982  0.092  0.82227  1.0000
  C   C201      1.0  0.41029  0.91923  0.7511300000000002  1.0000
  C   C202      1.0  0.41257  0.91883  0.70757  1.0000
  C   C203      1.0  0.4342  0.8879800000000002  0.6874100000000002  1.0000
  C   C204      1.0  0.45273  0.85893  0.7119  1.0000
  C   C205      1.0  0.4516299999999999  0.8601400000000002  0.75532  1.0000
  C   C206      1.0  0.43009  0.89082  0.7755600000000002  1.0000
  C   C207      1.0  0.42802  0.89413  0.8226100000000001  1.0000
  H   H45       1.0  0.39331  0.94257  0.76614  1.0000
  H   H46       1.0  0.46894  0.83509  0.6972  1.0000
  C   C208      1.0  0.43809  0.8852  0.64046  1.0000
  F   F61       1.0  0.40217  0.86593  0.8381700000000002  1.0000
  F   F62       1.0  0.41353  0.93049  0.8350900000000002  1.0000
  F   F63       1.0  0.46619  0.88918  0.83984  1.0000
  F   F64       1.0  0.46324  0.9146500000000002  0.62623  1.0000
  F   F65       1.0  0.40024  0.88868  0.62209  1.0000
  F   F66       1.0  0.45468  0.84968  0.62795  1.0000
  C   C209      1.0  0.57222  0.8852700000000001  0.31174000000000013  1.0000
  C   C210      1.0  0.58377  0.91974  0.29125  1.0000
  C   C211      1.0  0.57376  0.9247900000000002  0.24886  1.0000
  C   C212      1.0  0.55263  0.89494  0.22832000000000005  1.0000
  C   C213      1.0  0.54112  0.8605  0.24863  1.0000
  C   C214      1.0  0.55175  0.85494  0.29088  1.0000
  C   C215      1.0  0.54383  0.81765  0.31515  1.0000
  H   H47       1.0  0.5806  0.8813900000000001  0.3440400000000001  1.0000
  H   H48       1.0  0.5457099999999998  0.8979  0.19566  1.0000
  C   C216      1.0  0.5853799999999998  0.96138  0.22519  1.0000
  F   F67       1.0  0.58056  0.80236  0.32876  1.0000
  F   F68       1.0  0.52445  0.78904  0.2922  1.0000
  F   F69       1.0  0.52  0.82641  0.3493600000000001  1.0000
  F   F70       1.0  0.62689  0.96111  0.21818  1.0000
  F   F71       1.0  0.57463  0.99429  0.24783000000000005  1.0000
  F   F72       1.0  0.56587  0.9636600000000001  0.18718  1.0000
  C   C217      1.0  0.4349999999999999  0.31087  0.8864400000000002  1.0000
  C   C218      1.0  0.40479  0.2909  0.90893  1.0000
  C   C219      1.0  0.39539  0.25166  0.89731  1.0000
  C   C220      1.0  0.42128  0.23237  0.86908  1.0000
  C   C221      1.0  0.45315  0.25175  0.84864  1.0000
  C   C222      1.0  0.45748  0.2927  0.8546400000000002  1.0000
  C   C223      1.0  0.48302  0.31916000000000005  0.8273400000000002  1.0000
  H   H49       1.0  0.4402999999999999  0.34167  0.8927000000000003  1.0000
  H   H50       1.0  0.41715  0.20139  0.8631700000000002  1.0000
  C   C224      1.0  0.35838  0.22985  0.9134900000000002  1.0000
  F   F73       1.0  0.45867  0.34912000000000004  0.8121800000000002  1.0000
  F   F74       1.0  0.49973  0.29988  0.7935900000000002  1.0000
  F   F75       1.0  0.51387  0.33559  0.85065  1.0000
  F   F76       1.0  0.32341  0.25086  0.90423  1.0000
  F   F77       1.0  0.36124  0.22462  0.95579  1.0000
  F   F78       1.0  0.35453  0.19314  0.89553  1.0000
  C   C225      1.0  0.5708399999999999  0.69174  0.8840500000000002  1.0000
  C   C226      1.0  0.59067  0.71195  0.91613  1.0000
  C   C227      1.0  0.58786  0.75343  0.91801  1.0000
  C   C228      1.0  0.56553  0.77307  0.8872200000000002  1.0000
  C   C229      1.0  0.54551  0.7527600000000001  0.85544  1.0000
  C   C230      1.0  0.54922  0.71145  0.8528200000000002  1.0000
  C   C231      1.0  0.53279  0.68675  0.8174  1.0000
  H   H51       1.0  0.573  0.66007  0.88275  1.0000
  H   H52       1.0  0.56289  0.80473  0.88806  1.0000
  C   C232      1.0  0.60643  0.77689  0.9532700000000002  1.0000
  F   F79       1.0  0.56437  0.66518  0.8001900000000002  1.0000
  F   F80       1.0  0.51534  0.7087100000000002  0.78604  1.0000
  F   F81       1.0  0.50404  0.66104  0.83262  1.0000
  F   F82       1.0  0.64838  0.77647  0.94993  1.0000
  F   F83       1.0  0.59502  0.76091  0.99087  1.0000
  F   F84       1.0  0.59355  0.81563  0.95292  1.0000
  C   C233      1.0  0.42875  0.7433200000000002  0.06754  1.0000
  C   C234      1.0  0.41584  0.70662  0.08159000000000002  1.0000
  C   C235      1.0  0.42431  0.69491  0.12275000000000003  1.0000
  C   C236      1.0  0.44504  0.7210300000000001  0.14896  1.0000
  C   C237      1.0  0.4588999999999999  0.75741  0.13462  1.0000
  C   C238      1.0  0.45044  0.76907  0.09327000000000003  1.0000
  C   C239      1.0  0.46592  0.80699  0.07461  1.0000
  H   H53       1.0  0.42233  0.7515  0.03575000000000001  1.0000
  H   H54       1.0  0.45136  0.71297  0.18083  1.0000
  C   C240      1.0  0.41173  0.6550300000000001  0.13869000000000006  1.0000
  F   F85       1.0  0.50451  0.80069  0.05884  1.0000
  F   F86       1.0  0.46717  0.83682  0.10354  1.0000
  F   F87       1.0  0.44091999999999987  0.8194400000000001  0.042580000000000014  1.0000
  F   F88       1.0  0.4337  0.62638  0.11798  1.0000
  F   F89       1.0  0.37057  0.64949  0.13199  1.0000
  F   F90       1.0  0.41909  0.65102  0.18077  1.0000
  C   C241      1.0  0.5797  0.25879  0.07782  1.0000
  C   C242      1.0  0.58794  0.29804  0.08736  1.0000
  C   C243      1.0  0.57659  0.31333  0.12661  1.0000
  C   C244      1.0  0.55692  0.2886  0.15503000000000006  1.0000
  C   C245      1.0  0.54762  0.2497  0.14499000000000006  1.0000
  C   C246      1.0  0.55943  0.2342  0.10584  1.0000
  C   C247      1.0  0.55169  0.19239  0.09157  1.0000
  H   H55       1.0  0.5887  0.24733000000000002  0.04772  1.0000
  H   H56       1.0  0.54833  0.29951  0.18536000000000005  1.0000
  C   C248      1.0  0.5856299999999998  0.3553700000000001  0.1386  1.0000
  F   F91       1.0  0.58847  0.17467  0.08186  1.0000
  F   F92       1.0  0.52769  0.1932  0.056320000000000016  1.0000
  F   F93       1.0  0.53251  0.16947  0.12085  1.0000
  F   F94       1.0  0.56208  0.3804  0.1148  1.0000
  F   F95       1.0  0.62642  0.36315  0.13211  1.0000
  F   F96       1.0  0.57703  0.36271000000000003  0.17997000000000005  1.0000
  C   C249      1.0  0.25876  0.09213  0.59017  1.0000
  C   C250      1.0  0.30121  0.08959  0.58596  1.0000
  C   C251      1.0  0.32184  0.11763999999999998  0.5611900000000002  1.0000
  C   C252      1.0  0.29886  0.14730000000000001  0.54175  1.0000
  C   C253      1.0  0.25639  0.14923  0.54542  1.0000
  C   C254      1.0  0.23574  0.12085000000000001  0.56955  1.0000
  C   C255      1.0  0.18969  0.12064  0.57445  1.0000
  H   H57       1.0  0.24341  0.07092  0.60951  1.0000
  H   H58       1.0  0.31387  0.16907  0.5229400000000002  1.0000
  C   C256      1.0  0.36774  0.11689  0.5553  1.0000
  F   F97       1.0  0.17596  0.08438  0.58752  1.0000
  F   F98       1.0  0.17048  0.12894  0.53728  1.0000
  F   F99       1.0  0.17843  0.14822  0.60379  1.0000
  F   F100      1.0  0.37866  0.0849  0.53124  1.0000
  F   F101      1.0  0.38702  0.11463  0.59336  1.0000
  F   F102      1.0  0.38156  0.1503  0.53555  1.0000
  C   C257      1.0  0.69176  0.09868  0.4423100000000001  1.0000
  C   C258      1.0  0.71178  0.07717  0.41068  1.0000
  C   C259      1.0  0.75247  0.08817  0.39989  1.0000
  C   C260      1.0  0.7719199999999998  0.11695  0.4239700000000001  1.0000
  C   C261      1.0  0.75207  0.13706  0.45619  1.0000
  C   C262      1.0  0.71036  0.12979  0.46348  1.0000
  C   C263      1.0  0.68317  0.15518  0.49068  1.0000
  H   H59       1.0  0.66018  0.09258  0.4495600000000001  1.0000
  H   H60       1.0  0.80353  0.12389  0.4181700000000001  1.0000
  C   C264      1.0  0.7762  0.07043  0.36364000000000013  1.0000
  F   F103      1.0  0.65085  0.1689  0.4672  1.0000
  F   F104      1.0  0.70289  0.18739000000000003  0.50695  1.0000
  F   F105      1.0  0.66783  0.1329  0.52282  1.0000
  F   F106      1.0  0.75574  0.07756  0.3268800000000001  1.0000
  F   F107      1.0  0.78124  0.030540000000000005  0.36923  1.0000
  F   F108      1.0  0.81465  0.08646  0.35968  1.0000
  C   C265      1.0  0.68118  0.88114  0.57669  1.0000
  C   C266      1.0  0.7066199999999998  0.90869  0.59593  1.0000
  C   C267      1.0  0.74949  0.90359  0.59398  1.0000
  C   C268      1.0  0.76517  0.87148  0.57171  1.0000
  C   C269      1.0  0.73969  0.84448  0.55177  1.0000
  C   C270      1.0  0.69695  0.84822  0.55586  1.0000
  C   C271      1.0  0.66701  0.81817  0.53969  1.0000
  H   H61       1.0  0.64843  0.88479  0.57898  1.0000
  H   H62       1.0  0.7977999999999997  0.86762  0.5687  1.0000
  C   C272      1.0  0.7788299999999998  0.93217  0.61414  1.0000
  F   F109      1.0  0.63693  0.8118400000000001  0.569  1.0000
  F   F110      1.0  0.68529  0.78237  0.53158  1.0000
  F   F111      1.0  0.64898  0.83215  0.5038800000000002  1.0000
  F   F112      1.0  0.77697  0.92841  0.6568200000000002  1.0000
  F   F113      1.0  0.76894  0.97018  0.60312  1.0000
  F   F114      1.0  0.81868  0.92531  0.60198  1.0000
  C   C273      1.0  0.25269  0.92269  0.41149  1.0000
  C   C274      1.0  0.29437  0.9259800000000002  0.42101  1.0000
  C   C275      1.0  0.31081  0.90208  0.45322  1.0000
  C   C276      1.0  0.28624  0.87249  0.4700700000000001  1.0000
  C   C277      1.0  0.24465  0.86965  0.4608600000000001  1.0000
  C   C278      1.0  0.22703  0.89665  0.4325900000000001  1.0000
  C   C279      1.0  0.18145  0.89904  0.42459000000000013  1.0000
  H   H63       1.0  0.23964999999999997  0.94163  0.388  1.0000
  H   H64       1.0  0.29913  0.8519  0.49189  1.0000
  C   C280      1.0  0.35302  0.90814  0.4715100000000001  1.0000
  F   F115      1.0  0.17036  0.93601  0.41073000000000004  1.0000
  F   F116      1.0  0.15958  0.89197  0.4604800000000001  1.0000
  F   F117      1.0  0.17069  0.87204  0.39458  1.0000
  F   F118      1.0  0.35583  0.94573  0.48742000000000013  1.0000
  F   F119      1.0  0.3825099999999999  0.90247  0.4416000000000001  1.0000
  F   F120      1.0  0.36115  0.88237  0.5036800000000002  1.0000
  C   C281      1.0  0.06554  0.43298  0.74159  1.0000
  C   C282      1.0  0.07996  0.41191  0.7073  1.0000
  C   C283      1.0  0.12180999999999999  0.41228  0.69734  1.0000
  C   C284      1.0  0.14824  0.4341  0.7226  1.0000
  C   C285      1.0  0.13383999999999996  0.4551300000000001  0.7572  1.0000
  C   C286      1.0  0.09196  0.4536  0.76776  1.0000
  C   C287      1.0  0.07392  0.47279000000000004  0.8061500000000003  1.0000
  H   H65       1.0  0.03328  0.4328  0.74831  1.0000
  H   H66       1.0  0.18042  0.43527  0.7153700000000002  1.0000
  C   C288      1.0  0.13821  0.38944  0.6604600000000003  1.0000
  F   F121      1.0  0.05732  0.5087  0.79558  1.0000
  F   F122      1.0  0.10254  0.47792000000000007  0.8370100000000003  1.0000
  F   F123      1.0  0.04339  0.44959  0.8224500000000002  1.0000
  F   F124      1.0  0.12013000000000001  0.40293  0.62442  1.0000
  F   F125      1.0  0.12964999999999996  0.35005000000000003  0.66528  1.0000
  F   F126      1.0  0.17993  0.39337  0.65638  1.0000
  C   C289      1.0  0.0685  0.57258  0.26095  1.0000
  C   C290      1.0  0.08227  0.58562  0.29965  1.0000
  C   C291      1.0  0.12162000000000002  0.57477  0.31349  1.0000
  C   C292      1.0  0.14688  0.5529100000000001  0.28657  1.0000
  C   C293      1.0  0.13317  0.54019  0.24753  1.0000
  C   C294      1.0  0.09314  0.5500400000000001  0.23447  1.0000
  C   C295      1.0  0.07447  0.53628  0.19398  1.0000
  H   H67       1.0  0.03776  0.5801  0.25145  1.0000
  H   H68       1.0  0.17754  0.5451500000000001  0.29593000000000014  1.0000
  C   C296      1.0  0.1369  0.58647  0.35608  1.0000
  F   F127      1.0  0.05319  0.50209  0.20105  1.0000
  F   F128      1.0  0.10338999999999998  0.5296200000000002  0.16383  1.0000
  F   F129      1.0  0.04773  0.5642300000000002  0.1786  1.0000
  F   F130      1.0  0.11402  0.56801  0.38622  1.0000
  F   F131      1.0  0.13351  0.62657  0.36104000000000014  1.0000
  F   F132      1.0  0.1773  0.57607  0.36185  1.0000
  C   C297      1.0  0.87775  0.41752  0.31177  1.0000
  C   C298      1.0  0.91597  0.41036  0.2937700000000001  1.0000
  C   C299      1.0  0.92567  0.42737000000000014  0.25502  1.0000
  C   C300      1.0  0.89605  0.4501600000000001  0.23491000000000006  1.0000
  C   C301      1.0  0.85787  0.45743  0.25282  1.0000
  C   C302      1.0  0.84827  0.44094  0.2919500000000001  1.0000
  C   C303      1.0  0.80803  0.44693  0.31435  1.0000
  H   H69       1.0  0.87087  0.40467  0.34172  1.0000
  H   H70       1.0  0.9025299999999998  0.4627  0.20485  1.0000
  C   C304      1.0  0.9678  0.42341  0.23614  1.0000
  F   F133      1.0  0.81539  0.46187  0.35356  1.0000
  F   F134      1.0  0.78883  0.41115  0.31830000000000014  1.0000
  F   F135      1.0  0.78187  0.47243  0.29424  1.0000
  F   F136      1.0  0.9761000000000001  0.38453  0.22718  1.0000
  F   F137      1.0  0.9962099999999999  0.43744  0.26395  1.0000
  F   F138      1.0  0.9715299999999997  0.44463  0.19975  1.0000
  C   C305      1.0  0.87434  0.58591  0.6861500000000003  1.0000
  C   C306      1.0  0.91541  0.5777300000000002  0.6940100000000002  1.0000
  C   C307      1.0  0.92621  0.54837  0.7228500000000002  1.0000
  C   C308      1.0  0.89508  0.52866  0.7440400000000003  1.0000
  C   C309      1.0  0.85371  0.53657  0.7362900000000002  1.0000
  C   C310      1.0  0.84304  0.56549  0.70636  1.0000
  C   C311      1.0  0.7996  0.5767  0.6950700000000002  1.0000
  H   H71       1.0  0.86667  0.60886  0.66418  1.0000
  H   H72       1.0  0.9029  0.50766  0.7679200000000003  1.0000
  C   C312      1.0  0.97046  0.53868  0.7318  1.0000
  F   F139      1.0  0.7903999999999999  0.61278  0.71244  1.0000
  F   F140      1.0  0.77124  0.54977  0.70835  1.0000
  F   F141      1.0  0.79601  0.57956  0.65238  1.0000
  F   F142      1.0  0.9892899999999999  0.5709800000000003  0.74905  1.0000
  F   F143      1.0  0.99003  0.52855  0.69531  1.0000
  F   F144      1.0  0.9743900000000001  0.50759  0.75912  1.0000
  C   C313      1.0  0.75115  0.5974800000000002  0.90704  1.0000
  C   C314      1.0  0.7084  0.59465  0.90875  1.0000
  C   C315      1.0  0.68829  0.57121  0.87847  1.0000
  C   C316      1.0  0.7120399999999998  0.55047  0.8494600000000002  1.0000
  C   C317      1.0  0.75461  0.54943  0.85143  1.0000
  C   C318      1.0  0.77481  0.57425  0.8801300000000002  1.0000
  C   C319      1.0  0.82075  0.57783  0.8846500000000003  1.0000
  H   H73       1.0  0.76684  0.6163700000000001  0.9288200000000002  1.0000
  H   H74       1.0  0.69739  0.5346800000000002  0.8246  1.0000
  C   C320      1.0  0.64217  0.5699600000000001  0.8742700000000002  1.0000
  F   F145      1.0  0.83138  0.57178  0.92572  1.0000
  F   F146      1.0  0.83224  0.61529  0.8734200000000002  1.0000
  F   F147      1.0  0.84271  0.55147  0.8609600000000002  1.0000
  F   F148      1.0  0.63007  0.55232  0.8376  1.0000
  F   F149      1.0  0.62652  0.60765  0.8744600000000002  1.0000
  F   F150      1.0  0.62564  0.5488500000000001  0.9066800000000003  1.0000
  C   C321      1.0  0.24893999999999997  0.40802  0.9209500000000003  1.0000
  C   C322      1.0  0.29176  0.41048000000000007  0.9196100000000003  1.0000
  C   C323      1.0  0.31005999999999995  0.43532  0.8893500000000002  1.0000
  C   C324      1.0  0.28463  0.4557  0.8615200000000002  1.0000
  C   C325      1.0  0.24208999999999997  0.4539  0.8638200000000001  1.0000
  C   C326      1.0  0.22377  0.43058000000000013  0.89495  1.0000
  C   C327      1.0  0.17797  0.42995  0.9019800000000002  1.0000
  H   H75       1.0  0.23483  0.38944  0.94403  1.0000
  H   H76       1.0  0.29793  0.47342999999999996  0.83745  1.0000
  C   C328      1.0  0.35599  0.43894  0.8841400000000003  1.0000
  F   F151      1.0  0.16848  0.4165  0.94132  1.0000
  F   F152      1.0  0.15978  0.40543  0.87339  1.0000
  F   F153      1.0  0.16164  0.46723  0.8983600000000003  1.0000
  F   F154      1.0  0.37365  0.40209  0.88131  1.0000
  F   F155      1.0  0.37215999999999994  0.4590200000000001  0.91755  1.0000
  F   F156      1.0  0.36628  0.45926000000000006  0.8485100000000002  1.0000
  C   C329      1.0  0.25443  0.59862  0.09146000000000003  1.0000
  C   C330      1.0  0.29533  0.58686  0.08566000000000003  1.0000
  C   C331      1.0  0.31001  0.55406  0.10896000000000003  1.0000
  C   C332      1.0  0.2836  0.53611  0.13762  1.0000
  C   C333      1.0  0.24205000000000002  0.54567  0.14017  1.0000
  C   C334      1.0  0.22701  0.5774  0.11599  1.0000
  C   C335      1.0  0.18211  0.58848  0.11349000000000002  1.0000
  H   H77       1.0  0.24273  0.62366  0.07455  1.0000
  H   H78       1.0  0.29507  0.51337  0.15783  1.0000
  C   C336      1.0  0.3528199999999999  0.53727  0.10432  1.0000
  F   F157      1.0  0.17175  0.61279  0.14621  1.0000
  F   F158      1.0  0.15806  0.55551  0.11407  1.0000
  F   F159      1.0  0.17333  0.60812  0.07695  1.0000
  F   F160      1.0  0.38126  0.56605  0.11188  1.0000
  F   F161      1.0  0.35796  0.52243  0.06467  1.0000
  F   F162      1.0  0.36036  0.50694  0.13185  1.0000
  C   C337      1.0  0.74437  0.4105700000000001  0.09056000000000003  1.0000
  C   C338      1.0  0.70294  0.42058  0.08469000000000003  1.0000
  C   C339      1.0  0.68663  0.4526900000000001  0.10815000000000002  1.0000
  C   C340      1.0  0.71112  0.46985000000000005  0.13909  1.0000
  C   C341      1.0  0.75244  0.46029  0.14375  1.0000
  C   C342      1.0  0.76991  0.43142000000000014  0.11749000000000002  1.0000
  C   C343      1.0  0.81546  0.42281000000000013  0.11636  1.0000
  H   H79       1.0  0.75777  0.38706  0.07241  1.0000
  H   H80       1.0  0.69845  0.49212000000000006  0.15926  1.0000
  C   C344      1.0  0.64429  0.46982000000000007  0.10108000000000003  1.0000
  F   F163      1.0  0.82679  0.40582  0.07901  1.0000
  F   F164      1.0  0.82571  0.39717  0.14788  1.0000
  F   F165      1.0  0.83769  0.45693  0.12055  1.0000
  F   F166      1.0  0.6362  0.50138  0.12697  1.0000
  F   F167      1.0  0.61506  0.44181  0.1086  1.0000
  F   F168      1.0  0.641  0.48314  0.06068000000000001  1.0000
  C   C345      1.0  0.86813  0.70005  0.60424  1.0000
  C   C346      1.0  0.90706  0.699  0.5861100000000002  1.0000
  C   C347      1.0  0.9131299999999998  0.7186900000000003  0.54813  1.0000
  C   C348      1.0  0.88174  0.74186  0.53202  1.0000
  C   C349      1.0  0.84183  0.73873  0.54616  1.0000
  C   C350      1.0  0.8345099999999999  0.71661  0.58298  1.0000
  C   C351      1.0  0.79234  0.70896  0.6003700000000002  1.0000
  H   H81       1.0  0.86329  0.6849000000000001  0.63338  1.0000
  H   H82       1.0  0.88794  0.7618  0.50682  1.0000
  C   C352      1.0  0.95266  0.71659  0.52482  1.0000
  F   F169      1.0  0.79055  0.67153  0.61684  1.0000
  F   F170      1.0  0.76254  0.71152  0.57021  1.0000
  F   F171      1.0  0.78396  0.73564  0.6316200000000002  1.0000
  F   F172      1.0  0.95914  0.67852  0.51138  1.0000
  F   F173      1.0  0.98427  0.7284  0.5501700000000003  1.0000
  F   F174      1.0  0.95151  0.7405  0.4902900000000001  1.0000
  C   C353      1.0  0.88829  0.3041400000000001  0.43823  1.0000
  C   C354      1.0  0.91193  0.28568  0.40712  1.0000
  C   C355      1.0  0.90304  0.24574  0.39684000000000014  1.0000
  C   C356      1.0  0.87471  0.22547  0.42142000000000013  1.0000
  C   C357      1.0  0.8528  0.2437  0.4534900000000001  1.0000
  C   C358      1.0  0.85727  0.28452  0.45969  1.0000
  C   C359      1.0  0.82865  0.30949  0.48575  1.0000
  H   H83       1.0  0.89255  0.33506  0.4447100000000001  1.0000
  H   H84       1.0  0.86985  0.19445  0.4163400000000001  1.0000
  C   C360      1.0  0.92337  0.22336  0.3613  1.0000
  F   F175      1.0  0.81146  0.33812  0.4608200000000001  1.0000
  F   F176      1.0  0.85031  0.32774  0.51698  1.0000
  F   F177      1.0  0.79724  0.28832  0.50313  1.0000
  F   F178      1.0  0.96503  0.22173  0.36714000000000013  1.0000
  F   F179      1.0  0.91458  0.24155  0.3240000000000001  1.0000
  F   F180      1.0  0.90974  0.18511000000000002  0.3583  1.0000
  C   C361      1.0  0.11502  0.31385000000000013  0.56496  1.0000
  C   C362      1.0  0.0887  0.29215  0.5906900000000003  1.0000
  C   C363      1.0  0.09594  0.25106  0.59542  1.0000
  C   C364      1.0  0.12841  0.23381000000000007  0.57353  1.0000
  C   C365      1.0  0.15451  0.25561000000000006  0.54817  1.0000
  C   C366      1.0  0.14903  0.2967  0.54549  1.0000
  C   C367      1.0  0.17867  0.32387  0.52401  1.0000
  H   H85       1.0  0.11044  0.34522  0.56171  1.0000
  H   H86       1.0  0.13293  0.2024  0.57474  1.0000
  C   C368      1.0  0.06821  0.22436000000000006  0.62055  1.0000
  F   F181      1.0  0.18777  0.35489  0.5501  1.0000
  F   F182      1.0  0.16106  0.33862  0.48831000000000013  1.0000
  F   F183      1.0  0.21493  0.30544  0.5140300000000002  1.0000
  F   F184      1.0  0.02803  0.23037  0.6092800000000003  1.0000
  F   F185      1.0  0.07304  0.23187000000000005  0.66245  1.0000
  F   F186      1.0  0.07696  0.18504  0.6140900000000002  1.0000
  C   C369      1.0  0.12578  0.7168100000000001  0.3966000000000001  1.0000
  C   C370      1.0  0.08479000000000002  0.71719  0.40914  1.0000
  C   C371      1.0  0.07324  0.74173  0.4424700000000001  1.0000
  C   C372      1.0  0.10197  0.7661000000000001  0.46084  1.0000
  C   C373      1.0  0.14342  0.76208  0.45264  1.0000
  C   C374      1.0  0.15597  0.7365700000000002  0.41991  1.0000
  C   C375      1.0  0.2004  0.72893  0.40966  1.0000
  H   H87       1.0  0.1346  0.69897  0.37025000000000013  1.0000
  H   H88       1.0  0.09231  0.7873800000000002  0.48366  1.0000
  C   C376      1.0  0.030969999999999998  0.74132  0.45978  1.0000
  F   F187      1.0  0.20543  0.6922  0.39192  1.0000
  F   F188      1.0  0.22423  0.73  0.44503  1.0000
  F   F189      1.0  0.21394  0.7567  0.38178  1.0000
  F   F190      1.0  0.025169999999999994  0.70524  0.4780700000000001  1.0000
  F   F191      1.0  0.0031399999999999996  0.7469  0.4283300000000001  1.0000
  F   F192      1.0  0.024889999999999995  0.7703400000000002  0.48934  1.0000
  C   C377      1.0  0.58323  0.881  0.69447  1.0000
  C   C378      1.0  0.58586  0.9183600000000002  0.71255  1.0000
  C   C379      1.0  0.56631  0.9259600000000002  0.75081  1.0000
  C   C380      1.0  0.54388  0.89599  0.7695  1.0000
  C   C381      1.0  0.54158  0.85855  0.75186  1.0000
  C   C382      1.0  0.56223  0.8503300000000001  0.71421  1.0000
  C   C383      1.0  0.56465  0.80908  0.69645  1.0000
  H   H89       1.0  0.59938  0.87558  0.66567  1.0000
  H   H90       1.0  0.52931  0.90109  0.79912  1.0000
  C   C384      1.0  0.57147  0.9645100000000001  0.7733500000000001  1.0000
  F   F193      1.0  0.57933  0.8091  0.6561700000000003  1.0000
  F   F194      1.0  0.5268  0.79167  0.6960300000000003  1.0000
  F   F195      1.0  0.59063  0.78666  0.72053  1.0000
  F   F196      1.0  0.56514  0.9955900000000001  0.7465500000000003  1.0000
  F   F197      1.0  0.61055  0.9658300000000001  0.78903  1.0000
  F   F198      1.0  0.54442  0.96845  0.80608  1.0000
  C   C385      1.0  0.41413  0.92369  0.24783000000000005  1.0000
  C   C386      1.0  0.40985999999999995  0.91792  0.29073  1.0000
  C   C387      1.0  0.42488  0.88289  0.30885  1.0000
  C   C388      1.0  0.44558  0.8557300000000001  0.28358  1.0000
  C   C389      1.0  0.45154  0.86243  0.24116000000000007  1.0000
  C   C390      1.0  0.43486  0.89652  0.22254  1.0000
  C   C391      1.0  0.43798  0.90396  0.1762  1.0000
  H   H91       1.0  0.40141  0.9501000000000001  0.23427000000000006  1.0000
  H   H92       1.0  0.45728  0.82881  0.29676  1.0000
  C   C392      1.0  0.4177  0.8734500000000001  0.35416  1.0000
  F   F199      1.0  0.41324  0.87795  0.15528  1.0000
  F   F200      1.0  0.4776299999999999  0.89917  0.1628  1.0000
  F   F201      1.0  0.42574  0.94163  0.16597  1.0000
  F   F202      1.0  0.37683999999999995  0.87824  0.3633500000000001  1.0000
  F   F203      1.0  0.4407400000000001  0.89806  0.37875  1.0000
  F   F204      1.0  0.4284  0.8351500000000002  0.36356  1.0000
  C   C393      1.0  0.5705999999999998  0.11021  0.31564  1.0000
  C   C394      1.0  0.59821  0.08677  0.2929000000000001  1.0000
  C   C395      1.0  0.6071  0.09759  0.25118  1.0000
  C   C396      1.0  0.5833  0.1271  0.23248  1.0000
  C   C397      1.0  0.55436  0.14909  0.25482  1.0000
  C   C398      1.0  0.55054  0.14264  0.29804000000000014  1.0000
  C   C399      1.0  0.52735  0.16962  0.3272  1.0000
  H   H93       1.0  0.56555  0.10406  0.34824  1.0000
  H   H94       1.0  0.5869  0.13313  0.1997  1.0000
  C   C400      1.0  0.64168  0.07934  0.22624000000000005  1.0000
  F   F205      1.0  0.55177  0.17875  0.36081000000000013  1.0000
  F   F206      1.0  0.49296  0.15087  0.34161  1.0000
  F   F207      1.0  0.51624  0.20451  0.30859  1.0000
  F   F208      1.0  0.63524  0.03977  0.22083  1.0000
  F   F209      1.0  0.67817  0.08512  0.24671  1.0000
  F   F210      1.0  0.6452599999999998  0.09597  0.18724  1.0000
  C   C401      1.0  0.41199  0.12351000000000001  0.6955500000000002  1.0000
  C   C402      1.0  0.42105  0.08435  0.70471  1.0000
  C   C403      1.0  0.45134  0.07526  0.7342  1.0000
  C   C404      1.0  0.47201  0.10617  0.7537100000000002  1.0000
  C   C405      1.0  0.46393  0.14568  0.74389  1.0000
  C   C406      1.0  0.4333  0.15458  0.7140300000000003  1.0000
  C   C407      1.0  0.42149  0.19579000000000005  0.7004500000000002  1.0000
  H   H95       1.0  0.38788  0.12988  0.67356  1.0000
  H   H96       1.0  0.49421  0.0997  0.7775900000000002  1.0000
  C   C408      1.0  0.46078  0.03306  0.74563  1.0000
  F   F211      1.0  0.41704  0.19682  0.65774  1.0000
  F   F212      1.0  0.45002  0.22367  0.71086  1.0000
  F   F213      1.0  0.38471  0.20591  0.71851  1.0000
  F   F214      1.0  0.47374  0.01276  0.71081  1.0000
  F   F215      1.0  0.42617  0.015510000000000001  0.7612000000000002  1.0000
  F   F216      1.0  0.49093  0.03052  0.7754800000000002  1.0000
  C   C409      1.0  0.60067  0.74896  0.0875  1.0000
  C   C410      1.0  0.59442  0.7082100000000002  0.0866  1.0000
  C   C411      1.0  0.56693  0.6913  0.1155  1.0000
  C   C412      1.0  0.54554  0.71625  0.14277  1.0000
  C   C413      1.0  0.54974  0.75712  0.14142000000000005  1.0000
  C   C414      1.0  0.57831  0.77394  0.11376  1.0000
  C   C415      1.0  0.58645  0.81784  0.11183  1.0000
  H   H97       1.0  0.6228399999999997  0.76158  0.06663  1.0000
  H   H98       1.0  0.52493  0.70397  0.1654  1.0000
  C   C416      1.0  0.56021  0.64733  0.11832000000000002  1.0000
  F   F217      1.0  0.55115  0.83952  0.11707000000000002  1.0000
  F   F218      1.0  0.60285  0.8283  0.07385000000000003  1.0000
  F   F219      1.0  0.61387  0.8278900000000002  0.14251  1.0000
  F   F220      1.0  0.59722  0.62782  0.1197  1.0000
  F   F221      1.0  0.5382  0.63475  0.08428  1.0000
  F   F222      1.0  0.53869  0.63726  0.15366  1.0000
  C   C417      1.0  0.4257599999999999  0.30707  0.12091  1.0000
  C   C418      1.0  0.4134  0.28811  0.08443  1.0000
  C   C419      1.0  0.42364  0.24809  0.07832  1.0000
  C   C420      1.0  0.44589  0.22838  0.10917  1.0000
  C   C421      1.0  0.45807  0.24729999999999996  0.14565  1.0000
  C   C422      1.0  0.44718  0.28715  0.15226  1.0000
  C   C423      1.0  0.45599  0.30993  0.19175  1.0000
  H   H99       1.0  0.41773  0.33766  0.12543  1.0000
  H   H100      1.0  0.4540999999999999  0.19781  0.10505  1.0000
  C   C424      1.0  0.41197  0.22649  0.03906  1.0000
  F   F223      1.0  0.41967  0.32344  0.20833  1.0000
  F   F224      1.0  0.48006  0.34185  0.18234  1.0000
  F   F225      1.0  0.47547  0.28794  0.22182  1.0000
  F   F226      1.0  0.42356  0.24810999999999997  0.00484  1.0000
  F   F227      1.0  0.37034  0.22093  0.03858  1.0000
  F   F228      1.0  0.43072  0.1901  0.03631  1.0000
  C   C425      1.0  0.55891  0.27126  0.9299500000000003  1.0000
  C   C426      1.0  0.58942  0.29649  0.91573  1.0000
  C   C427      1.0  0.60003  0.2962  0.87307  1.0000
  C   C428      1.0  0.57668  0.27358  0.84569  1.0000
  C   C429      1.0  0.54547  0.24886  0.8596100000000002  1.0000
  C   C430      1.0  0.53851  0.24552000000000002  0.903  1.0000
  C   C431      1.0  0.51267  0.21404  0.9230600000000002  1.0000
  H   H101      1.0  0.55249  0.27011  0.96297  1.0000
  H   H102      1.0  0.58329  0.27493  0.81273  1.0000
  C   C432      1.0  0.63538  0.31840000000000007  0.85419  1.0000
  F   F229      1.0  0.5351099999999999  0.19548  0.95369  1.0000
  F   F230      1.0  0.5001099999999999  0.18552  0.8954800000000003  1.0000
  F   F231      1.0  0.47894  0.23124000000000006  0.94125  1.0000
  F   F232      1.0  0.65873  0.33787  0.88307  1.0000
  F   F233      1.0  0.62058  0.34536  0.82586  1.0000
  F   F234      1.0  0.66055  0.29221  0.83351  1.0000
  C   C433      1.0  0.43196  0.73813  0.92946  1.0000
  C   C434      1.0  0.41357  0.70381  0.91504  1.0000
  C   C435      1.0  0.41495  0.69448  0.8723700000000002  1.0000
  C   C436      1.0  0.43598  0.71961  0.8453600000000002  1.0000
  C   C437      1.0  0.45535  0.7535  0.85996  1.0000
  C   C438      1.0  0.45239  0.76368  0.90261  1.0000
  C   C439      1.0  0.46861  0.80125  0.9216500000000002  1.0000
  H   H103      1.0  0.42971  0.74544  0.96212  1.0000
  H   H104      1.0  0.43743  0.71304  0.8125  1.0000
  C   C440      1.0  0.39279  0.6591000000000002  0.8555200000000002  1.0000
  F   F235      1.0  0.43699  0.8211  0.94096  1.0000
  F   F236      1.0  0.48571999999999993  0.8263600000000001  0.8931  1.0000
  F   F237      1.0  0.49767  0.792  0.9511500000000003  1.0000
  F   F238      1.0  0.35166  0.66319  0.86372  1.0000
  F   F239      1.0  0.40743  0.62544  0.87432  1.0000
  F   F240      1.0  0.39777  0.65508  0.8130500000000003  1.0000
  C   C441      1.0  0.68862  0.87266  0.40703  1.0000
  C   C442      1.0  0.69949  0.91121  0.4169600000000001  1.0000
  C   C443      1.0  0.72853  0.91818  0.44832  1.0000
  C   C444      1.0  0.74715  0.88591  0.46774  1.0000
  C   C445      1.0  0.73555  0.84708  0.45906  1.0000
  C   C446      1.0  0.7053799999999999  0.84027  0.42825  1.0000
  C   C447      1.0  0.69083  0.79965  0.4160600000000001  1.0000
  H   H105      1.0  0.6665  0.86794  0.38258  1.0000
  H   H106      1.0  0.77145  0.8908500000000001  0.4897200000000001  1.0000
  C   C448      1.0  0.74006  0.95958  0.4607100000000001  1.0000
  F   F241      1.0  0.65008  0.80085  0.40512  1.0000
  F   F242      1.0  0.69474  0.7730200000000002  0.44809  1.0000
  F   F243      1.0  0.71308  0.78649  0.38234  1.0000
  F   F244      1.0  0.76808  0.9599999999999999  0.49281  1.0000
  F   F245      1.0  0.70578  0.9799099999999998  0.47368  1.0000
  F   F246      1.0  0.75691  0.97855  0.4270800000000001  1.0000
  C   C449      1.0  0.29785999999999996  0.8862800000000001  0.5961700000000002  1.0000
  C   C450      1.0  0.28672  0.92584  0.59255  1.0000
  C   C451      1.0  0.25164  0.93646  0.56974  1.0000
  C   C452      1.0  0.22913  0.9068  0.55018  1.0000
  C   C453      1.0  0.24086000000000002  0.86723  0.5527500000000002  1.0000
  C   C454      1.0  0.27543  0.85649  0.57659  1.0000
  C   C455      1.0  0.2888699999999999  0.81398  0.5811200000000002  1.0000
  H   H107      1.0  0.32419  0.87889  0.61477  1.0000
  H   H108      1.0  0.20257  0.91428  0.5318600000000002  1.0000
  C   C456      1.0  0.23862999999999995  0.97902  0.56567  1.0000
  F   F247      1.0  0.32664  0.81091  0.59994  1.0000
  F   F248      1.0  0.29153  0.79605  0.5426800000000003  1.0000
  F   F249      1.0  0.26109  0.79405  0.6052600000000002  1.0000
  F   F250      1.0  0.26993  0.0005500000000000504  0.54851  1.0000
  F   F251      1.0  0.22926  0.99398  0.60443  1.0000
  F   F252      1.0  0.20467  0.98324  0.54062  1.0000
  C   C457      1.0  0.31146  0.1255  0.4115100000000001  1.0000
  C   C458      1.0  0.29806  0.08668  0.4146200000000001  1.0000
  C   C459      1.0  0.26271  0.07797  0.4378200000000001  1.0000
  C   C460      1.0  0.24146  0.10882  0.45712000000000014  1.0000
  C   C461      1.0  0.25468  0.14773  0.4540500000000001  1.0000
  C   C462      1.0  0.29014  0.15648  0.43084  1.0000
  C   C463      1.0  0.3048  0.19831  0.42562  1.0000
  H   H109      1.0  0.33829  0.1314  0.39302  1.0000
  H   H110      1.0  0.21437  0.10282  0.47508  1.0000
  C   C464      1.0  0.24799000000000002  0.03613  0.44259  1.0000
  F   F253      1.0  0.34274  0.19965999999999998  0.40698  1.0000
  F   F254      1.0  0.30761  0.2168  0.46371  1.0000
  F   F255      1.0  0.2776599999999999  0.21869  0.40094  1.0000
  F   F256      1.0  0.27877  0.01323  0.4591900000000001  1.0000
  F   F257      1.0  0.23698  0.02129  0.4043  1.0000
  F   F258      1.0  0.21456  0.03379  0.4686200000000001  1.0000
  C   C465      1.0  0.74712  0.06022000000000001  0.56421  1.0000
  C   C466      1.0  0.71922  0.07326  0.59411  1.0000
  C   C467      1.0  0.7152  0.11373  0.6025900000000002  1.0000
  C   C468      1.0  0.73853  0.14026  0.5794900000000002  1.0000
  C   C469      1.0  0.76542  0.12744  0.5483400000000003  1.0000
  C   C470      1.0  0.77156  0.0866  0.54207  1.0000
  C   C471      1.0  0.80415  0.06902  0.51418  1.0000
  H   H111      1.0  0.75026  0.02905  0.55844  1.0000
  H   H112      1.0  0.73501  0.1715  0.58463  1.0000
  C   C472      1.0  0.68521  0.1287  0.6347800000000002  1.0000
  F   F259      1.0  0.8273599999999999  0.04272  0.53686  1.0000
  F   F260      1.0  0.83027  0.09664  0.49792  1.0000
  F   F261      1.0  0.78585  0.04900000000000001  0.4819400000000001  1.0000
  F   F262      1.0  0.69424  0.11257  0.67305  1.0000
  F   F263      1.0  0.64623  0.11817000000000001  0.62334  1.0000
  F   F264      1.0  0.68629  0.16912000000000005  0.63865  1.0000
  C   C473      1.0  0.9268  0.58423  0.25303  1.0000
  C   C474      1.0  0.92275  0.58658  0.29639  1.0000
  C   C475      1.0  0.89018  0.5665900000000001  0.31604  1.0000
  C   C476      1.0  0.86253  0.54559  0.29124  1.0000
  C   C477      1.0  0.86639  0.5438  0.24794  1.0000
  C   C478      1.0  0.89953  0.56276  0.22838  1.0000
  C   C479      1.0  0.90595  0.56179  0.18164  1.0000
  H   H113      1.0  0.95166  0.59965  0.23828  1.0000
  H   H114      1.0  0.8369699999999999  0.53089  0.30543  1.0000
  C   C480      1.0  0.88336  0.56855  0.36261  1.0000
  F   F265      1.0  0.94613  0.5692800000000001  0.17154000000000005  1.0000
  F   F266      1.0  0.88175  0.59008  0.16319  1.0000
  F   F267      1.0  0.89634  0.52552  0.16529  1.0000
  F   F268      1.0  0.88241  0.60723  0.37547000000000014  1.0000
  F   F269      1.0  0.91438  0.54879  0.38286  1.0000
  F   F270      1.0  0.84688  0.55158  0.37414  1.0000
  C   C481      1.0  0.88333  0.4247  0.6814500000000002  1.0000
  C   C482      1.0  0.91196  0.40398000000000006  0.7055000000000002  1.0000
  C   C483      1.0  0.90821  0.40462  0.7495100000000002  1.0000
  C   C484      1.0  0.8773799999999999  0.42781  0.7674  1.0000
  C   C485      1.0  0.84925  0.44885  0.74331  1.0000
  C   C486      1.0  0.85087  0.44561  0.69953  1.0000
  C   C487      1.0  0.81882  0.46243  0.67069  1.0000
  H   H115      1.0  0.88557  0.42363  0.6479100000000002  1.0000
  H   H116      1.0  0.87534  0.43038  0.8008  1.0000
  C   C488      1.0  0.9365399999999998  0.38171  0.77802  1.0000
  F   F271      1.0  0.80803  0.43443  0.64161  1.0000
  F   F272      1.0  0.8345199999999998  0.49448  0.6501200000000003  1.0000
  F   F273      1.0  0.78376  0.47345000000000004  0.6914300000000002  1.0000
  F   F274      1.0  0.9766200000000002  0.39019  0.76901  1.0000
  F   F275      1.0  0.92996  0.34196  0.77303  1.0000
  F   F276      1.0  0.9301299999999998  0.39072  0.81944  1.0000
  C   C489      1.0  0.08639  0.59473  0.7434500000000002  1.0000
  C   C490      1.0  0.0805  0.58373  0.70171  1.0000
  C   C491      1.0  0.10332  0.5513  0.6858  1.0000
  C   C492      1.0  0.13265  0.53347  0.71158  1.0000
  C   C493      1.0  0.13674  0.5432  0.7537100000000002  1.0000
  C   C494      1.0  0.11252  0.57412  0.77025  1.0000
  C   C495      1.0  0.11302  0.58631  0.81576  1.0000
  H   H117      1.0  0.06924  0.6192600000000003  0.7559400000000002  1.0000
  H   H118      1.0  0.15235  0.51086  0.69912  1.0000
  C   C496      1.0  0.09662  0.53419  0.64269  1.0000
  F   F277      1.0  0.07562  0.60165  0.8275200000000003  1.0000
  F   F278      1.0  0.14218  0.61482  0.82171  1.0000
  F   F279      1.0  0.12098  0.55502  0.84174  1.0000
  F   F280      1.0  0.10452999999999997  0.56196  0.61272  1.0000
  F   F281      1.0  0.05692  0.52142  0.63897  1.0000
  F   F282      1.0  0.12180000000000002  0.5022700000000001  0.63495  1.0000
  C   C497      1.0  0.08048  0.40368  0.25102000000000013  1.0000
  C   C498      1.0  0.0809  0.4080400000000001  0.2943900000000001  1.0000
  C   C499      1.0  0.10943  0.43391  0.3127000000000001  1.0000
  C   C500      1.0  0.13564  0.4551300000000001  0.28651  1.0000
  C   C501      1.0  0.1335  0.4523  0.24303000000000005  1.0000
  C   C502      1.0  0.10545  0.42582  0.22485000000000005  1.0000
  C   C503      1.0  0.1015  0.41937  0.17829  1.0000
  H   H119      1.0  0.05948  0.38308  0.2372  1.0000
  H   H120      1.0  0.15839  0.47411  0.29989  1.0000
  C   C504      1.0  0.11318  0.43861  0.35942000000000013  1.0000
  F   F283      1.0  0.06287  0.4065  0.16803  1.0000
  F   F284      1.0  0.12933999999999998  0.39128  0.16559  1.0000
  F   F285      1.0  0.10797999999999998  0.45346  0.15647000000000005  1.0000
  F   F286      1.0  0.11634  0.40218  0.37804  1.0000
  F   F287      1.0  0.07937  0.45822  0.3746500000000001  1.0000
  F   F288      1.0  0.14731  0.45992  0.37032  1.0000
