data_image0
_chemical_formula_structural       Zn72H96C192O240
_chemical_formula_sum              "Zn72 H96 C192 O240"
_cell_length_a       20.74379
_cell_length_b       20.74379
_cell_length_c       20.74379
_cell_angle_alpha    90.0
_cell_angle_beta     90.0
_cell_angle_gamma    90.0

_space_group_name_H-M_alt    "P 1"
_space_group_IT_number       1

loop_
  _space_group_symop_operation_xyz
  'x, y, z'

loop_
  _atom_site_type_symbol
  _atom_site_label
  _atom_site_symmetry_multiplicity
  _atom_site_fract_x
  _atom_site_fract_y
  _atom_site_fract_z
  _atom_site_occupancy
  Zn  Zn1       1.0  0.61105  0.84802  0.8265700000000001  1.0000
  Zn  Zn2       1.0  0.44004  0.7516  0.9891000000000001  1.0000
  Zn  Zn3       1.0  0.4821  0.8786400000000001  0.8948900000000001  1.0000
  Zn  Zn4       1.0  0.88896  0.15198  0.32657  1.0000
  Zn  Zn5       1.0  0.05996  0.2484  0.48910000000000003  1.0000
  Zn  Zn6       1.0  0.0179  0.12136  0.39489  1.0000
  Zn  Zn7       1.0  0.38896  0.34802000000000005  0.67343  1.0000
  Zn  Zn8       1.0  0.5599600000000001  0.25160000000000005  0.5109  1.0000
  Zn  Zn9       1.0  0.5179  0.37864  0.6051100000000001  1.0000
  Zn  Zn10      1.0  0.11104  0.65198  0.17343  1.0000
  Zn  Zn11      1.0  0.94004  0.7484000000000002  0.0109  1.0000
  Zn  Zn12      1.0  0.9821000000000001  0.62136  0.10511  1.0000
  Zn  Zn13      1.0  0.8265700000000001  0.61105  0.84802  1.0000
  Zn  Zn14      1.0  0.9891000000000001  0.44004  0.7516  1.0000
  Zn  Zn15      1.0  0.8948900000000001  0.4821  0.8786400000000001  1.0000
  Zn  Zn16      1.0  0.32657  0.88896  0.15198  1.0000
  Zn  Zn17      1.0  0.48910000000000003  0.05996  0.2484  1.0000
  Zn  Zn18      1.0  0.39489  0.0179  0.12136  1.0000
  Zn  Zn19      1.0  0.67343  0.38896  0.34802000000000005  1.0000
  Zn  Zn20      1.0  0.5109  0.5599600000000001  0.25160000000000005  1.0000
  Zn  Zn21      1.0  0.6051100000000001  0.5179  0.37864  1.0000
  Zn  Zn22      1.0  0.17343  0.11104  0.65198  1.0000
  Zn  Zn23      1.0  0.0109  0.94004  0.7484000000000002  1.0000
  Zn  Zn24      1.0  0.10511  0.9821000000000001  0.62136  1.0000
  Zn  Zn25      1.0  0.84802  0.8265700000000001  0.61105  1.0000
  Zn  Zn26      1.0  0.7516  0.9891000000000001  0.44004  1.0000
  Zn  Zn27      1.0  0.8786400000000001  0.8948900000000001  0.4821  1.0000
  Zn  Zn28      1.0  0.15198  0.32657  0.88896  1.0000
  Zn  Zn29      1.0  0.2484  0.48910000000000003  0.05996  1.0000
  Zn  Zn30      1.0  0.12136  0.39489  0.0179  1.0000
  Zn  Zn31      1.0  0.34802000000000005  0.67343  0.38896  1.0000
  Zn  Zn32      1.0  0.25160000000000005  0.5109  0.5599600000000001  1.0000
  Zn  Zn33      1.0  0.37864  0.6051100000000001  0.5179  1.0000
  Zn  Zn34      1.0  0.65198  0.17343  0.11104  1.0000
  Zn  Zn35      1.0  0.7484000000000002  0.0109  0.94004  1.0000
  Zn  Zn36      1.0  0.62136  0.10511  0.9821000000000001  1.0000
  Zn  Zn37      1.0  0.38896  0.15198  0.17343  1.0000
  Zn  Zn38      1.0  0.5599600000000001  0.2484  0.0109  1.0000
  Zn  Zn39      1.0  0.5179  0.12136  0.10511  1.0000
  Zn  Zn40      1.0  0.11104  0.84802  0.67343  1.0000
  Zn  Zn41      1.0  0.94004  0.7516  0.5109  1.0000
  Zn  Zn42      1.0  0.9821000000000001  0.8786400000000001  0.6051100000000001  1.0000
  Zn  Zn43      1.0  0.61105  0.65198  0.32657  1.0000
  Zn  Zn44      1.0  0.44004  0.7484000000000002  0.48910000000000003  1.0000
  Zn  Zn45      1.0  0.4821  0.62136  0.39489  1.0000
  Zn  Zn46      1.0  0.88896  0.34802000000000005  0.8265700000000001  1.0000
  Zn  Zn47      1.0  0.05996  0.25160000000000005  0.9891000000000001  1.0000
  Zn  Zn48      1.0  0.0179  0.37864  0.8948900000000001  1.0000
  Zn  Zn49      1.0  0.17343  0.38896  0.15198  1.0000
  Zn  Zn50      1.0  0.0109  0.5599600000000001  0.2484  1.0000
  Zn  Zn51      1.0  0.10511  0.5179  0.12136  1.0000
  Zn  Zn52      1.0  0.67343  0.11104  0.84802  1.0000
  Zn  Zn53      1.0  0.5109  0.94004  0.7516  1.0000
  Zn  Zn54      1.0  0.6051100000000001  0.9821000000000001  0.8786400000000001  1.0000
  Zn  Zn55      1.0  0.32657  0.61105  0.65198  1.0000
  Zn  Zn56      1.0  0.48910000000000003  0.44004  0.7484000000000002  1.0000
  Zn  Zn57      1.0  0.39489  0.4821  0.62136  1.0000
  Zn  Zn58      1.0  0.8265700000000001  0.88896  0.34802000000000005  1.0000
  Zn  Zn59      1.0  0.9891000000000001  0.05996  0.25160000000000005  1.0000
  Zn  Zn60      1.0  0.8948900000000001  0.0179  0.37864  1.0000
  Zn  Zn61      1.0  0.15198  0.17343  0.38896  1.0000
  Zn  Zn62      1.0  0.2484  0.0109  0.5599600000000001  1.0000
  Zn  Zn63      1.0  0.12136  0.10511  0.5179  1.0000
  Zn  Zn64      1.0  0.84802  0.67343  0.11104  1.0000
  Zn  Zn65      1.0  0.7516  0.5109  0.94004  1.0000
  Zn  Zn66      1.0  0.8786400000000001  0.6051100000000001  0.9821000000000001  1.0000
  Zn  Zn67      1.0  0.65198  0.32657  0.61105  1.0000
  Zn  Zn68      1.0  0.7484000000000002  0.48910000000000003  0.44004  1.0000
  Zn  Zn69      1.0  0.62136  0.39489  0.4821  1.0000
  Zn  Zn70      1.0  0.34802000000000005  0.8265700000000001  0.88896  1.0000
  Zn  Zn71      1.0  0.25160000000000005  0.9891000000000001  0.05996  1.0000
  Zn  Zn72      1.0  0.37864  0.8948900000000001  0.0179  1.0000
  H   H1        1.0  0.62214  0.69482  0.8801  1.0000
  H   H2        1.0  0.6572600000000001  0.6897900000000001  0.007380000000000002  1.0000
  H   H3        1.0  0.69469  0.7971  0.01621  1.0000
  H   H4        1.0  0.77278  0.79743  0.89259  1.0000
  H   H5        1.0  0.8778600000000002  0.30518  0.3801  1.0000
  H   H6        1.0  0.8427400000000002  0.31021  0.50738  1.0000
  H   H7        1.0  0.80532  0.20290000000000002  0.51621  1.0000
  H   H8        1.0  0.72722  0.20257  0.39259  1.0000
  H   H9        1.0  0.37786000000000003  0.19482000000000005  0.6199  1.0000
  H   H10       1.0  0.34274  0.18979  0.49262000000000006  1.0000
  H   H11       1.0  0.3053100000000001  0.29710000000000003  0.48379  1.0000
  H   H12       1.0  0.22722000000000006  0.2974300000000001  0.6074100000000001  1.0000
  H   H13       1.0  0.12214000000000001  0.80518  0.1199  1.0000
  H   H14       1.0  0.15726  0.81021  0.9926200000000002  1.0000
  H   H15       1.0  0.19469000000000006  0.7029000000000002  0.9837900000000003  1.0000
  H   H16       1.0  0.2727800000000001  0.70257  0.10741  1.0000
  H   H17       1.0  0.8801  0.62214  0.69482  1.0000
  H   H18       1.0  0.007380000000000002  0.6572600000000001  0.6897900000000001  1.0000
  H   H19       1.0  0.01621  0.69469  0.7971  1.0000
  H   H20       1.0  0.89259  0.77278  0.79743  1.0000
  H   H21       1.0  0.3801  0.8778600000000002  0.30518  1.0000
  H   H22       1.0  0.50738  0.8427400000000002  0.31021  1.0000
  H   H23       1.0  0.51621  0.80532  0.20290000000000002  1.0000
  H   H24       1.0  0.39259  0.72722  0.20257  1.0000
  H   H25       1.0  0.6199  0.37786000000000003  0.19482000000000005  1.0000
  H   H26       1.0  0.49262000000000006  0.34274  0.18979  1.0000
  H   H27       1.0  0.48379  0.3053100000000001  0.29710000000000003  1.0000
  H   H28       1.0  0.6074100000000001  0.22722000000000006  0.2974300000000001  1.0000
  H   H29       1.0  0.1199  0.12214000000000001  0.80518  1.0000
  H   H30       1.0  0.9926200000000002  0.15726  0.81021  1.0000
  H   H31       1.0  0.9837900000000003  0.19469000000000006  0.7029000000000002  1.0000
  H   H32       1.0  0.10741  0.2727800000000001  0.70257  1.0000
  H   H33       1.0  0.69482  0.8801  0.62214  1.0000
  H   H34       1.0  0.6897900000000001  0.007380000000000002  0.6572600000000001  1.0000
  H   H35       1.0  0.7971  0.01621  0.69469  1.0000
  H   H36       1.0  0.79743  0.89259  0.77278  1.0000
  H   H37       1.0  0.30518  0.3801  0.8778600000000002  1.0000
  H   H38       1.0  0.31021  0.50738  0.8427400000000002  1.0000
  H   H39       1.0  0.20290000000000002  0.51621  0.80532  1.0000
  H   H40       1.0  0.20257  0.39259  0.72722  1.0000
  H   H41       1.0  0.19482000000000005  0.6199  0.37786000000000003  1.0000
  H   H42       1.0  0.18979  0.49262000000000006  0.34274  1.0000
  H   H43       1.0  0.29710000000000003  0.48379  0.3053100000000001  1.0000
  H   H44       1.0  0.2974300000000001  0.6074100000000001  0.22722000000000006  1.0000
  H   H45       1.0  0.80518  0.1199  0.12214000000000001  1.0000
  H   H46       1.0  0.81021  0.9926200000000002  0.15726  1.0000
  H   H47       1.0  0.7029000000000002  0.9837900000000003  0.19469000000000006  1.0000
  H   H48       1.0  0.70257  0.10741  0.2727800000000001  1.0000
  H   H49       1.0  0.37786000000000003  0.30518  0.1199  1.0000
  H   H50       1.0  0.34274  0.31021  0.9926200000000002  1.0000
  H   H51       1.0  0.3053100000000001  0.20290000000000002  0.9837900000000003  1.0000
  H   H52       1.0  0.22722000000000006  0.20257  0.10741  1.0000
  H   H53       1.0  0.12214000000000001  0.69482  0.6199  1.0000
  H   H54       1.0  0.15726  0.6897900000000001  0.49262000000000006  1.0000
  H   H55       1.0  0.19469000000000006  0.7971  0.48379  1.0000
  H   H56       1.0  0.2727800000000001  0.79743  0.6074100000000001  1.0000
  H   H57       1.0  0.62214  0.80518  0.3801  1.0000
  H   H58       1.0  0.6572600000000001  0.81021  0.50738  1.0000
  H   H59       1.0  0.69469  0.7029000000000002  0.51621  1.0000
  H   H60       1.0  0.77278  0.70257  0.39259  1.0000
  H   H61       1.0  0.8778600000000002  0.19482000000000005  0.8801  1.0000
  H   H62       1.0  0.8427400000000002  0.18979  0.007380000000000002  1.0000
  H   H63       1.0  0.80532  0.29710000000000003  0.01621  1.0000
  H   H64       1.0  0.72722  0.2974300000000001  0.89259  1.0000
  H   H65       1.0  0.1199  0.37786000000000003  0.30518  1.0000
  H   H66       1.0  0.9926200000000002  0.34274  0.31021  1.0000
  H   H67       1.0  0.9837900000000003  0.3053100000000001  0.20290000000000002  1.0000
  H   H68       1.0  0.10741  0.22722000000000006  0.20257  1.0000
  H   H69       1.0  0.6199  0.12214000000000001  0.69482  1.0000
  H   H70       1.0  0.49262000000000006  0.15726  0.6897900000000001  1.0000
  H   H71       1.0  0.48379  0.19469000000000006  0.7971  1.0000
  H   H72       1.0  0.6074100000000001  0.2727800000000001  0.79743  1.0000
  H   H73       1.0  0.3801  0.62214  0.80518  1.0000
  H   H74       1.0  0.50738  0.6572600000000001  0.81021  1.0000
  H   H75       1.0  0.51621  0.69469  0.7029000000000002  1.0000
  H   H76       1.0  0.39259  0.77278  0.70257  1.0000
  H   H77       1.0  0.8801  0.8778600000000002  0.19482000000000005  1.0000
  H   H78       1.0  0.007380000000000002  0.8427400000000002  0.18979  1.0000
  H   H79       1.0  0.01621  0.80532  0.29710000000000003  1.0000
  H   H80       1.0  0.89259  0.72722  0.2974300000000001  1.0000
  H   H81       1.0  0.30518  0.1199  0.37786000000000003  1.0000
  H   H82       1.0  0.31021  0.9926200000000002  0.34274  1.0000
  H   H83       1.0  0.20290000000000002  0.9837900000000003  0.3053100000000001  1.0000
  H   H84       1.0  0.20257  0.10741  0.22722000000000006  1.0000
  H   H85       1.0  0.69482  0.6199  0.12214000000000001  1.0000
  H   H86       1.0  0.6897900000000001  0.49262000000000006  0.15726  1.0000
  H   H87       1.0  0.7971  0.48379  0.19469000000000006  1.0000
  H   H88       1.0  0.79743  0.6074100000000001  0.2727800000000001  1.0000
  H   H89       1.0  0.80518  0.3801  0.62214  1.0000
  H   H90       1.0  0.81021  0.50738  0.6572600000000001  1.0000
  H   H91       1.0  0.7029000000000002  0.51621  0.69469  1.0000
  H   H92       1.0  0.70257  0.39259  0.77278  1.0000
  H   H93       1.0  0.19482000000000005  0.8801  0.8778600000000002  1.0000
  H   H94       1.0  0.18979  0.007380000000000002  0.8427400000000002  1.0000
  H   H95       1.0  0.29710000000000003  0.01621  0.80532  1.0000
  H   H96       1.0  0.2974300000000001  0.89259  0.72722  1.0000
  C   C1        1.0  0.63756  0.7326900000000002  0.9139800000000001  1.0000
  C   C2        1.0  0.5744400000000001  0.76261  0.93948  1.0000
  C   C3        1.0  0.68385  0.7077200000000001  0.9654900000000002  1.0000
  C   C4        1.0  0.72208  0.6524  0.93526  1.0000
  C   C5        1.0  0.72347  0.76948  0.9812400000000001  1.0000
  C   C6        1.0  0.7877000000000002  0.75506  0.015160000000000002  1.0000
  C   C7        1.0  0.7264700000000001  0.80599  0.91665  1.0000
  C   C8        1.0  0.7156700000000001  0.8788100000000001  0.92339  1.0000
  C   C9        1.0  0.8624400000000002  0.26732  0.41398  1.0000
  C   C10       1.0  0.9255700000000001  0.23739000000000005  0.43948000000000004  1.0000
  C   C11       1.0  0.81615  0.29228  0.46549  1.0000
  C   C12       1.0  0.77792  0.3476  0.4352600000000001  1.0000
  C   C13       1.0  0.77653  0.23052000000000003  0.48124  1.0000
  C   C14       1.0  0.7123  0.24494  0.5151600000000001  1.0000
  C   C15       1.0  0.77353  0.19401000000000002  0.41665  1.0000
  C   C16       1.0  0.7843300000000001  0.12119000000000002  0.42339000000000004  1.0000
  C   C17       1.0  0.36244  0.23269  0.5860200000000001  1.0000
  C   C18       1.0  0.42556000000000005  0.26261  0.56052  1.0000
  C   C19       1.0  0.31615  0.20772000000000004  0.53451  1.0000
  C   C20       1.0  0.27792000000000006  0.1524  0.56474  1.0000
  C   C21       1.0  0.27653  0.26948  0.5187600000000001  1.0000
  C   C22       1.0  0.2123  0.25506  0.48484000000000005  1.0000
  C   C23       1.0  0.27353  0.3059900000000001  0.5833500000000001  1.0000
  C   C24       1.0  0.28433  0.37881000000000004  0.5766100000000001  1.0000
  C   C25       1.0  0.13756  0.7673200000000001  0.08602000000000001  1.0000
  C   C26       1.0  0.07444  0.73739  0.06052  1.0000
  C   C27       1.0  0.18385000000000007  0.7922800000000001  0.034510000000000006  1.0000
  C   C28       1.0  0.22208  0.8476  0.06474000000000002  1.0000
  C   C29       1.0  0.22347000000000003  0.7305200000000001  0.01876  1.0000
  C   C30       1.0  0.28770000000000007  0.7449400000000002  0.9848400000000002  1.0000
  C   C31       1.0  0.22647000000000003  0.6940100000000001  0.08335  1.0000
  C   C32       1.0  0.21567000000000003  0.6211900000000001  0.07661  1.0000
  C   C33       1.0  0.9139800000000001  0.63756  0.7326900000000002  1.0000
  C   C34       1.0  0.93948  0.5744400000000001  0.76261  1.0000
  C   C35       1.0  0.9654900000000002  0.68385  0.7077200000000001  1.0000
  C   C36       1.0  0.93526  0.72208  0.6524  1.0000
  C   C37       1.0  0.9812400000000001  0.72347  0.76948  1.0000
  C   C38       1.0  0.015160000000000002  0.7877000000000002  0.75506  1.0000
  C   C39       1.0  0.91665  0.7264700000000001  0.80599  1.0000
  C   C40       1.0  0.92339  0.7156700000000001  0.8788100000000001  1.0000
  C   C41       1.0  0.41398  0.8624400000000002  0.26732  1.0000
  C   C42       1.0  0.43948000000000004  0.9255700000000001  0.23739000000000005  1.0000
  C   C43       1.0  0.46549  0.81615  0.29228  1.0000
  C   C44       1.0  0.4352600000000001  0.77792  0.3476  1.0000
  C   C45       1.0  0.48124  0.77653  0.23052000000000003  1.0000
  C   C46       1.0  0.5151600000000001  0.7123  0.24494  1.0000
  C   C47       1.0  0.41665  0.77353  0.19401000000000002  1.0000
  C   C48       1.0  0.42339000000000004  0.7843300000000001  0.12119000000000002  1.0000
  C   C49       1.0  0.5860200000000001  0.36244  0.23269  1.0000
  C   C50       1.0  0.56052  0.42556000000000005  0.26261  1.0000
  C   C51       1.0  0.53451  0.31615  0.20772000000000004  1.0000
  C   C52       1.0  0.56474  0.27792000000000006  0.1524  1.0000
  C   C53       1.0  0.5187600000000001  0.27653  0.26948  1.0000
  C   C54       1.0  0.48484000000000005  0.2123  0.25506  1.0000
  C   C55       1.0  0.5833500000000001  0.27353  0.3059900000000001  1.0000
  C   C56       1.0  0.5766100000000001  0.28433  0.37881000000000004  1.0000
  C   C57       1.0  0.08602000000000001  0.13756  0.7673200000000001  1.0000
  C   C58       1.0  0.06052  0.07444  0.73739  1.0000
  C   C59       1.0  0.034510000000000006  0.18385000000000007  0.7922800000000001  1.0000
  C   C60       1.0  0.06474000000000002  0.22208  0.8476  1.0000
  C   C61       1.0  0.01876  0.22347000000000003  0.7305200000000001  1.0000
  C   C62       1.0  0.9848400000000002  0.28770000000000007  0.7449400000000002  1.0000
  C   C63       1.0  0.08335  0.22647000000000003  0.6940100000000001  1.0000
  C   C64       1.0  0.07661  0.21567000000000003  0.6211900000000001  1.0000
  C   C65       1.0  0.7326900000000002  0.9139800000000001  0.63756  1.0000
  C   C66       1.0  0.76261  0.93948  0.5744400000000001  1.0000
  C   C67       1.0  0.7077200000000001  0.9654900000000002  0.68385  1.0000
  C   C68       1.0  0.6524  0.93526  0.72208  1.0000
  C   C69       1.0  0.76948  0.9812400000000001  0.72347  1.0000
  C   C70       1.0  0.75506  0.015160000000000002  0.7877000000000002  1.0000
  C   C71       1.0  0.80599  0.91665  0.7264700000000001  1.0000
  C   C72       1.0  0.8788100000000001  0.92339  0.7156700000000001  1.0000
  C   C73       1.0  0.26732  0.41398  0.8624400000000002  1.0000
  C   C74       1.0  0.23739000000000005  0.43948000000000004  0.9255700000000001  1.0000
  C   C75       1.0  0.29228  0.46549  0.81615  1.0000
  C   C76       1.0  0.3476  0.4352600000000001  0.77792  1.0000
  C   C77       1.0  0.23052000000000003  0.48124  0.77653  1.0000
  C   C78       1.0  0.24494  0.5151600000000001  0.7123  1.0000
  C   C79       1.0  0.19401000000000002  0.41665  0.77353  1.0000
  C   C80       1.0  0.12119000000000002  0.42339000000000004  0.7843300000000001  1.0000
  C   C81       1.0  0.23269  0.5860200000000001  0.36244  1.0000
  C   C82       1.0  0.26261  0.56052  0.42556000000000005  1.0000
  C   C83       1.0  0.20772000000000004  0.53451  0.31615  1.0000
  C   C84       1.0  0.1524  0.56474  0.27792000000000006  1.0000
  C   C85       1.0  0.26948  0.5187600000000001  0.27653  1.0000
  C   C86       1.0  0.25506  0.48484000000000005  0.2123  1.0000
  C   C87       1.0  0.3059900000000001  0.5833500000000001  0.27353  1.0000
  C   C88       1.0  0.37881000000000004  0.5766100000000001  0.28433  1.0000
  C   C89       1.0  0.7673200000000001  0.08602000000000001  0.13756  1.0000
  C   C90       1.0  0.73739  0.06052  0.07444  1.0000
  C   C91       1.0  0.7922800000000001  0.034510000000000006  0.18385000000000007  1.0000
  C   C92       1.0  0.8476  0.06474000000000002  0.22208  1.0000
  C   C93       1.0  0.7305200000000001  0.01876  0.22347000000000003  1.0000
  C   C94       1.0  0.7449400000000002  0.9848400000000002  0.28770000000000007  1.0000
  C   C95       1.0  0.6940100000000001  0.08335  0.22647000000000003  1.0000
  C   C96       1.0  0.6211900000000001  0.07661  0.21567000000000003  1.0000
  C   C97       1.0  0.36244  0.26732  0.08602000000000001  1.0000
  C   C98       1.0  0.42556000000000005  0.23739000000000005  0.06052  1.0000
  C   C99       1.0  0.31615  0.29228  0.034510000000000006  1.0000
  C   C100      1.0  0.27792000000000006  0.3476  0.06474000000000002  1.0000
  C   C101      1.0  0.27653  0.23052000000000003  0.01876  1.0000
  C   C102      1.0  0.2123  0.24494  0.9848400000000002  1.0000
  C   C103      1.0  0.27353  0.19401000000000002  0.08335  1.0000
  C   C104      1.0  0.28433  0.12119000000000002  0.07661  1.0000
  C   C105      1.0  0.13756  0.7326900000000002  0.5860200000000001  1.0000
  C   C106      1.0  0.07444  0.76261  0.56052  1.0000
  C   C107      1.0  0.18385000000000007  0.7077200000000001  0.53451  1.0000
  C   C108      1.0  0.22208  0.6524  0.56474  1.0000
  C   C109      1.0  0.22347000000000003  0.76948  0.5187600000000001  1.0000
  C   C110      1.0  0.28770000000000007  0.75506  0.48484000000000005  1.0000
  C   C111      1.0  0.22647000000000003  0.80599  0.5833500000000001  1.0000
  C   C112      1.0  0.21567000000000003  0.8788100000000001  0.5766100000000001  1.0000
  C   C113      1.0  0.63756  0.7673200000000001  0.41398  1.0000
  C   C114      1.0  0.5744400000000001  0.73739  0.43948000000000004  1.0000
  C   C115      1.0  0.68385  0.7922800000000001  0.46549  1.0000
  C   C116      1.0  0.72208  0.8476  0.4352600000000001  1.0000
  C   C117      1.0  0.72347  0.7305200000000001  0.48124  1.0000
  C   C118      1.0  0.7877000000000002  0.7449400000000002  0.5151600000000001  1.0000
  C   C119      1.0  0.7264700000000001  0.6940100000000001  0.41665  1.0000
  C   C120      1.0  0.7156700000000001  0.6211900000000001  0.42339000000000004  1.0000
  C   C121      1.0  0.8624400000000002  0.23269  0.9139800000000001  1.0000
  C   C122      1.0  0.9255700000000001  0.26261  0.93948  1.0000
  C   C123      1.0  0.81615  0.20772000000000004  0.9654900000000002  1.0000
  C   C124      1.0  0.77792  0.1524  0.93526  1.0000
  C   C125      1.0  0.77653  0.26948  0.9812400000000001  1.0000
  C   C126      1.0  0.7123  0.25506  0.015160000000000002  1.0000
  C   C127      1.0  0.77353  0.3059900000000001  0.91665  1.0000
  C   C128      1.0  0.7843300000000001  0.37881000000000004  0.92339  1.0000
  C   C129      1.0  0.08602000000000001  0.36244  0.26732  1.0000
  C   C130      1.0  0.06052  0.42556000000000005  0.23739000000000005  1.0000
  C   C131      1.0  0.034510000000000006  0.31615  0.29228  1.0000
  C   C132      1.0  0.06474000000000002  0.27792000000000006  0.3476  1.0000
  C   C133      1.0  0.01876  0.27653  0.23052000000000003  1.0000
  C   C134      1.0  0.9848400000000002  0.2123  0.24494  1.0000
  C   C135      1.0  0.08335  0.27353  0.19401000000000002  1.0000
  C   C136      1.0  0.07661  0.28433  0.12119000000000002  1.0000
  C   C137      1.0  0.5860200000000001  0.13756  0.7326900000000002  1.0000
  C   C138      1.0  0.56052  0.07444  0.76261  1.0000
  C   C139      1.0  0.53451  0.18385000000000007  0.7077200000000001  1.0000
  C   C140      1.0  0.56474  0.22208  0.6524  1.0000
  C   C141      1.0  0.5187600000000001  0.22347000000000003  0.76948  1.0000
  C   C142      1.0  0.48484000000000005  0.28770000000000007  0.75506  1.0000
  C   C143      1.0  0.5833500000000001  0.22647000000000003  0.80599  1.0000
  C   C144      1.0  0.5766100000000001  0.21567000000000003  0.8788100000000001  1.0000
  C   C145      1.0  0.41398  0.63756  0.7673200000000001  1.0000
  C   C146      1.0  0.43948000000000004  0.5744400000000001  0.73739  1.0000
  C   C147      1.0  0.46549  0.68385  0.7922800000000001  1.0000
  C   C148      1.0  0.4352600000000001  0.72208  0.8476  1.0000
  C   C149      1.0  0.48124  0.72347  0.7305200000000001  1.0000
  C   C150      1.0  0.5151600000000001  0.7877000000000002  0.7449400000000002  1.0000
  C   C151      1.0  0.41665  0.7264700000000001  0.6940100000000001  1.0000
  C   C152      1.0  0.42339000000000004  0.7156700000000001  0.6211900000000001  1.0000
  C   C153      1.0  0.9139800000000001  0.8624400000000002  0.23269  1.0000
  C   C154      1.0  0.93948  0.9255700000000001  0.26261  1.0000
  C   C155      1.0  0.9654900000000002  0.81615  0.20772000000000004  1.0000
  C   C156      1.0  0.93526  0.77792  0.1524  1.0000
  C   C157      1.0  0.9812400000000001  0.77653  0.26948  1.0000
  C   C158      1.0  0.015160000000000002  0.7123  0.25506  1.0000
  C   C159      1.0  0.91665  0.77353  0.3059900000000001  1.0000
  C   C160      1.0  0.92339  0.7843300000000001  0.37881000000000004  1.0000
  C   C161      1.0  0.26732  0.08602000000000001  0.36244  1.0000
  C   C162      1.0  0.23739000000000005  0.06052  0.42556000000000005  1.0000
  C   C163      1.0  0.29228  0.034510000000000006  0.31615  1.0000
  C   C164      1.0  0.3476  0.06474000000000002  0.27792000000000006  1.0000
  C   C165      1.0  0.23052000000000003  0.01876  0.27653  1.0000
  C   C166      1.0  0.24494  0.9848400000000002  0.2123  1.0000
  C   C167      1.0  0.19401000000000002  0.08335  0.27353  1.0000
  C   C168      1.0  0.12119000000000002  0.07661  0.28433  1.0000
  C   C169      1.0  0.7326900000000002  0.5860200000000001  0.13756  1.0000
  C   C170      1.0  0.76261  0.56052  0.07444  1.0000
  C   C171      1.0  0.7077200000000001  0.53451  0.18385000000000007  1.0000
  C   C172      1.0  0.6524  0.56474  0.22208  1.0000
  C   C173      1.0  0.76948  0.5187600000000001  0.22347000000000003  1.0000
  C   C174      1.0  0.75506  0.48484000000000005  0.28770000000000007  1.0000
  C   C175      1.0  0.80599  0.5833500000000001  0.22647000000000003  1.0000
  C   C176      1.0  0.8788100000000001  0.5766100000000001  0.21567000000000003  1.0000
  C   C177      1.0  0.7673200000000001  0.41398  0.63756  1.0000
  C   C178      1.0  0.73739  0.43948000000000004  0.5744400000000001  1.0000
  C   C179      1.0  0.7922800000000001  0.46549  0.68385  1.0000
  C   C180      1.0  0.8476  0.4352600000000001  0.72208  1.0000
  C   C181      1.0  0.7305200000000001  0.48124  0.72347  1.0000
  C   C182      1.0  0.7449400000000002  0.5151600000000001  0.7877000000000002  1.0000
  C   C183      1.0  0.6940100000000001  0.41665  0.7264700000000001  1.0000
  C   C184      1.0  0.6211900000000001  0.42339000000000004  0.7156700000000001  1.0000
  C   C185      1.0  0.23269  0.9139800000000001  0.8624400000000002  1.0000
  C   C186      1.0  0.26261  0.93948  0.9255700000000001  1.0000
  C   C187      1.0  0.20772000000000004  0.9654900000000002  0.81615  1.0000
  C   C188      1.0  0.1524  0.93526  0.77792  1.0000
  C   C189      1.0  0.26948  0.9812400000000001  0.77653  1.0000
  C   C190      1.0  0.25506  0.015160000000000002  0.7123  1.0000
  C   C191      1.0  0.3059900000000001  0.91665  0.77353  1.0000
  C   C192      1.0  0.37881000000000004  0.92339  0.7843300000000001  1.0000
  O   O1        1.0  0.6757  0.77799  0.87639  1.0000
  O   O2        1.0  0.55476  0.8107400000000001  0.9058300000000001  1.0000
  O   O3        1.0  0.54548  0.7374300000000001  0.98609  1.0000
  O   O4        1.0  0.7014  0.59579  0.9451900000000002  1.0000
  O   O5        1.0  0.76985  0.66895  0.90008  1.0000
  O   O6        1.0  0.7793300000000002  0.72475  0.06844  1.0000
  O   O7        1.0  0.84039  0.7720500000000001  0.99021  1.0000
  O   O8        1.0  0.75945  0.91249  0.94846  1.0000
  O   O9        1.0  0.6613100000000001  0.89986  0.9028700000000001  1.0000
  O   O10       1.0  0.54212  0.9253200000000001  0.8436600000000001  1.0000
  O   O11       1.0  0.8243  0.22201  0.37639  1.0000
  O   O12       1.0  0.9452400000000002  0.18926000000000007  0.40583  1.0000
  O   O13       1.0  0.95452  0.26257  0.48609000000000013  1.0000
  O   O14       1.0  0.7986  0.40421  0.4451900000000001  1.0000
  O   O15       1.0  0.7301500000000001  0.33105000000000007  0.40008000000000005  1.0000
  O   O16       1.0  0.72067  0.27525000000000005  0.5684400000000001  1.0000
  O   O17       1.0  0.65961  0.22795  0.49021  1.0000
  O   O18       1.0  0.74055  0.08751000000000003  0.44846000000000014  1.0000
  O   O19       1.0  0.8386900000000002  0.10014  0.40287  1.0000
  O   O20       1.0  0.9578800000000001  0.07468  0.34366  1.0000
  O   O21       1.0  0.3243  0.27799  0.62361  1.0000
  O   O22       1.0  0.4452400000000001  0.31074  0.5941700000000002  1.0000
  O   O23       1.0  0.45452  0.23743000000000003  0.51391  1.0000
  O   O24       1.0  0.2986  0.09579  0.55481  1.0000
  O   O25       1.0  0.23015  0.16895  0.59992  1.0000
  O   O26       1.0  0.22067000000000003  0.22475  0.43156000000000005  1.0000
  O   O27       1.0  0.15961  0.27205000000000007  0.50979  1.0000
  O   O28       1.0  0.24055  0.41249  0.5515400000000001  1.0000
  O   O29       1.0  0.33869  0.39986000000000005  0.5971300000000002  1.0000
  O   O30       1.0  0.45788  0.4253200000000001  0.6563400000000001  1.0000
  O   O31       1.0  0.17570000000000005  0.72201  0.12361000000000003  1.0000
  O   O32       1.0  0.05476  0.68926  0.09417000000000003  1.0000
  O   O33       1.0  0.04548000000000001  0.76257  0.013910000000000002  1.0000
  O   O34       1.0  0.2014  0.90422  0.05481  1.0000
  O   O35       1.0  0.26985  0.8310500000000002  0.09992000000000002  1.0000
  O   O36       1.0  0.27933  0.7752500000000002  0.93156  1.0000
  O   O37       1.0  0.34039  0.7279500000000001  0.00979  1.0000
  O   O38       1.0  0.25945  0.58751  0.05154  1.0000
  O   O39       1.0  0.16131  0.60014  0.09713000000000001  1.0000
  O   O40       1.0  0.04212  0.57468  0.15634  1.0000
  O   O41       1.0  0.87639  0.6757  0.77799  1.0000
  O   O42       1.0  0.9058300000000001  0.55476  0.8107400000000001  1.0000
  O   O43       1.0  0.98609  0.54548  0.7374300000000001  1.0000
  O   O44       1.0  0.9451900000000002  0.7014  0.59579  1.0000
  O   O45       1.0  0.90008  0.76985  0.66895  1.0000
  O   O46       1.0  0.06844  0.7793300000000002  0.72475  1.0000
  O   O47       1.0  0.99021  0.84039  0.7720500000000001  1.0000
  O   O48       1.0  0.94846  0.75945  0.91249  1.0000
  O   O49       1.0  0.9028700000000001  0.6613100000000001  0.89986  1.0000
  O   O50       1.0  0.8436600000000001  0.54212  0.9253200000000001  1.0000
  O   O51       1.0  0.37639  0.8243  0.22201  1.0000
  O   O52       1.0  0.40583  0.9452400000000002  0.18926000000000007  1.0000
  O   O53       1.0  0.48609000000000013  0.95452  0.26257  1.0000
  O   O54       1.0  0.4451900000000001  0.7986  0.40422  1.0000
  O   O55       1.0  0.40008000000000005  0.7301500000000001  0.33105000000000007  1.0000
  O   O56       1.0  0.5684400000000001  0.72067  0.27525000000000005  1.0000
  O   O57       1.0  0.49021  0.65961  0.22795  1.0000
  O   O58       1.0  0.44846000000000014  0.74055  0.08751000000000003  1.0000
  O   O59       1.0  0.40287  0.8386900000000002  0.10014  1.0000
  O   O60       1.0  0.34366  0.9578800000000001  0.07468  1.0000
  O   O61       1.0  0.62361  0.3243  0.27799  1.0000
  O   O62       1.0  0.5941700000000002  0.4452400000000001  0.31074  1.0000
  O   O63       1.0  0.51391  0.45452  0.23743000000000003  1.0000
  O   O64       1.0  0.55481  0.2986  0.09579  1.0000
  O   O65       1.0  0.59992  0.23015  0.16895  1.0000
  O   O66       1.0  0.43156000000000005  0.22067000000000003  0.22475  1.0000
  O   O67       1.0  0.50979  0.15961  0.27205000000000007  1.0000
  O   O68       1.0  0.5515400000000001  0.24055  0.41249  1.0000
  O   O69       1.0  0.5971300000000002  0.33869  0.39986000000000005  1.0000
  O   O70       1.0  0.6563400000000001  0.45788  0.4253200000000001  1.0000
  O   O71       1.0  0.12361000000000003  0.17570000000000005  0.72201  1.0000
  O   O72       1.0  0.09417000000000003  0.05476  0.68926  1.0000
  O   O73       1.0  0.013910000000000002  0.04548000000000001  0.76257  1.0000
  O   O74       1.0  0.05481  0.2014  0.90422  1.0000
  O   O75       1.0  0.09992000000000002  0.26985  0.8310500000000002  1.0000
  O   O76       1.0  0.93156  0.27933  0.7752500000000002  1.0000
  O   O77       1.0  0.00979  0.34039  0.7279500000000001  1.0000
  O   O78       1.0  0.05154  0.25945  0.58751  1.0000
  O   O79       1.0  0.09713000000000001  0.16131  0.60014  1.0000
  O   O80       1.0  0.15634  0.04212  0.57468  1.0000
  O   O81       1.0  0.77799  0.87639  0.6757  1.0000
  O   O82       1.0  0.8107400000000001  0.9058300000000001  0.55476  1.0000
  O   O83       1.0  0.7374300000000001  0.98609  0.54548  1.0000
  O   O84       1.0  0.59579  0.9451900000000002  0.7014  1.0000
  O   O85       1.0  0.66895  0.90008  0.76985  1.0000
  O   O86       1.0  0.72475  0.06844  0.7793300000000002  1.0000
  O   O87       1.0  0.7720500000000001  0.99021  0.84039  1.0000
  O   O88       1.0  0.91249  0.94846  0.75945  1.0000
  O   O89       1.0  0.89986  0.9028700000000001  0.6613100000000001  1.0000
  O   O90       1.0  0.9253200000000001  0.8436600000000001  0.54212  1.0000
  O   O91       1.0  0.22201  0.37639  0.8243  1.0000
  O   O92       1.0  0.18926000000000007  0.40583  0.9452400000000002  1.0000
  O   O93       1.0  0.26257  0.48609000000000013  0.95452  1.0000
  O   O94       1.0  0.40421  0.4451900000000001  0.7986  1.0000
  O   O95       1.0  0.33105000000000007  0.40008000000000005  0.7301500000000001  1.0000
  O   O96       1.0  0.27525000000000005  0.5684400000000001  0.72067  1.0000
  O   O97       1.0  0.22795  0.49021  0.65961  1.0000
  O   O98       1.0  0.08751000000000003  0.44846000000000014  0.74055  1.0000
  O   O99       1.0  0.10014  0.40287  0.8386900000000002  1.0000
  O   O100      1.0  0.07468  0.34366  0.9578800000000001  1.0000
  O   O101      1.0  0.27799  0.62361  0.3243  1.0000
  O   O102      1.0  0.31074  0.5941700000000002  0.4452400000000001  1.0000
  O   O103      1.0  0.23743000000000003  0.51391  0.45452  1.0000
  O   O104      1.0  0.09579  0.55481  0.2986  1.0000
  O   O105      1.0  0.16895  0.59992  0.23015  1.0000
  O   O106      1.0  0.22475  0.43156000000000005  0.22067000000000003  1.0000
  O   O107      1.0  0.27205000000000007  0.50979  0.15961  1.0000
  O   O108      1.0  0.41249  0.5515400000000001  0.24055  1.0000
  O   O109      1.0  0.39986000000000005  0.5971300000000002  0.33869  1.0000
  O   O110      1.0  0.4253200000000001  0.6563400000000001  0.45788  1.0000
  O   O111      1.0  0.72201  0.12361000000000003  0.17570000000000005  1.0000
  O   O112      1.0  0.68926  0.09417000000000003  0.05476  1.0000
  O   O113      1.0  0.76257  0.013910000000000002  0.04548000000000001  1.0000
  O   O114      1.0  0.90422  0.05481  0.2014  1.0000
  O   O115      1.0  0.8310500000000002  0.09992000000000002  0.26985  1.0000
  O   O116      1.0  0.7752500000000002  0.93156  0.27933  1.0000
  O   O117      1.0  0.7279500000000001  0.00979  0.34039  1.0000
  O   O118      1.0  0.58751  0.05154  0.25945  1.0000
  O   O119      1.0  0.60014  0.09713000000000001  0.16131  1.0000
  O   O120      1.0  0.57468  0.15634  0.04212  1.0000
  O   O121      1.0  0.3243  0.22201  0.12361000000000003  1.0000
  O   O122      1.0  0.4452400000000001  0.18926000000000007  0.09417000000000003  1.0000
  O   O123      1.0  0.45452  0.26257  0.013910000000000002  1.0000
  O   O124      1.0  0.2986  0.40421  0.05481  1.0000
  O   O125      1.0  0.23015  0.33105000000000007  0.09992000000000002  1.0000
  O   O126      1.0  0.22067000000000003  0.27525000000000005  0.93156  1.0000
  O   O127      1.0  0.15961  0.22795  0.00979  1.0000
  O   O128      1.0  0.24055  0.08751000000000003  0.05154  1.0000
  O   O129      1.0  0.33869  0.10014  0.09713000000000001  1.0000
  O   O130      1.0  0.45788  0.07468  0.15634  1.0000
  O   O131      1.0  0.17570000000000005  0.77799  0.62361  1.0000
  O   O132      1.0  0.05476  0.8107400000000001  0.5941700000000002  1.0000
  O   O133      1.0  0.04548000000000001  0.7374300000000001  0.51391  1.0000
  O   O134      1.0  0.2014  0.59579  0.55481  1.0000
  O   O135      1.0  0.26985  0.66895  0.59992  1.0000
  O   O136      1.0  0.27933  0.72475  0.43156000000000005  1.0000
  O   O137      1.0  0.34039  0.7720500000000001  0.50979  1.0000
  O   O138      1.0  0.25945  0.91249  0.5515400000000001  1.0000
  O   O139      1.0  0.16131  0.89986  0.5971300000000002  1.0000
  O   O140      1.0  0.04212  0.9253200000000001  0.6563400000000001  1.0000
  O   O141      1.0  0.6757  0.72201  0.37639  1.0000
  O   O142      1.0  0.55476  0.68926  0.40583  1.0000
  O   O143      1.0  0.54548  0.76257  0.48609000000000013  1.0000
  O   O144      1.0  0.7014  0.90422  0.4451900000000001  1.0000
  O   O145      1.0  0.76985  0.8310500000000002  0.40008000000000005  1.0000
  O   O146      1.0  0.7793300000000002  0.7752500000000002  0.5684400000000001  1.0000
  O   O147      1.0  0.84039  0.7279500000000001  0.49021  1.0000
  O   O148      1.0  0.75945  0.58751  0.44846000000000014  1.0000
  O   O149      1.0  0.6613100000000001  0.60014  0.40287  1.0000
  O   O150      1.0  0.54212  0.57468  0.34366  1.0000
  O   O151      1.0  0.8243  0.27799  0.87639  1.0000
  O   O152      1.0  0.9452400000000002  0.31074  0.9058300000000001  1.0000
  O   O153      1.0  0.95452  0.23743000000000003  0.98609  1.0000
  O   O154      1.0  0.7986  0.09579  0.9451900000000002  1.0000
  O   O155      1.0  0.7301500000000001  0.16895  0.90008  1.0000
  O   O156      1.0  0.72067  0.22475  0.06844  1.0000
  O   O157      1.0  0.65961  0.27205000000000007  0.99021  1.0000
  O   O158      1.0  0.74055  0.41249  0.94846  1.0000
  O   O159      1.0  0.8386900000000002  0.39986000000000005  0.9028700000000001  1.0000
  O   O160      1.0  0.9578800000000001  0.4253200000000001  0.8436600000000001  1.0000
  O   O161      1.0  0.12361000000000003  0.3243  0.22201  1.0000
  O   O162      1.0  0.09417000000000003  0.4452400000000001  0.18926000000000007  1.0000
  O   O163      1.0  0.013910000000000002  0.45452  0.26257  1.0000
  O   O164      1.0  0.05481  0.2986  0.40422  1.0000
  O   O165      1.0  0.09992000000000002  0.23015  0.33105000000000007  1.0000
  O   O166      1.0  0.93156  0.22067000000000003  0.27525000000000005  1.0000
  O   O167      1.0  0.00979  0.15961  0.22795  1.0000
  O   O168      1.0  0.05154  0.24055  0.08751000000000003  1.0000
  O   O169      1.0  0.09713000000000001  0.33869  0.10014  1.0000
  O   O170      1.0  0.15634  0.45788  0.07468  1.0000
  O   O171      1.0  0.62361  0.17570000000000005  0.77799  1.0000
  O   O172      1.0  0.5941700000000002  0.05476  0.8107400000000001  1.0000
  O   O173      1.0  0.51391  0.04548000000000001  0.7374300000000001  1.0000
  O   O174      1.0  0.55481  0.2014  0.59579  1.0000
  O   O175      1.0  0.59992  0.26985  0.66895  1.0000
  O   O176      1.0  0.43156000000000005  0.27933  0.72475  1.0000
  O   O177      1.0  0.50979  0.34039  0.7720500000000001  1.0000
  O   O178      1.0  0.5515400000000001  0.25945  0.91249  1.0000
  O   O179      1.0  0.5971300000000002  0.16131  0.89986  1.0000
  O   O180      1.0  0.6563400000000001  0.04212  0.9253200000000001  1.0000
  O   O181      1.0  0.37639  0.6757  0.72201  1.0000
  O   O182      1.0  0.40583  0.55476  0.68926  1.0000
  O   O183      1.0  0.48609000000000013  0.54548  0.76257  1.0000
  O   O184      1.0  0.4451900000000001  0.7014  0.90422  1.0000
  O   O185      1.0  0.40008000000000005  0.76985  0.8310500000000002  1.0000
  O   O186      1.0  0.5684400000000001  0.7793300000000002  0.7752500000000002  1.0000
  O   O187      1.0  0.49021  0.84039  0.7279500000000001  1.0000
  O   O188      1.0  0.44846000000000014  0.75945  0.58751  1.0000
  O   O189      1.0  0.40287  0.6613100000000001  0.60014  1.0000
  O   O190      1.0  0.34366  0.54212  0.57468  1.0000
  O   O191      1.0  0.87639  0.8243  0.27799  1.0000
  O   O192      1.0  0.9058300000000001  0.9452400000000002  0.31074  1.0000
  O   O193      1.0  0.98609  0.95452  0.23743000000000003  1.0000
  O   O194      1.0  0.9451900000000002  0.7986  0.09579  1.0000
  O   O195      1.0  0.90008  0.7301500000000001  0.16895  1.0000
  O   O196      1.0  0.06844  0.72067  0.22475  1.0000
  O   O197      1.0  0.99021  0.65961  0.27205000000000007  1.0000
  O   O198      1.0  0.94846  0.74055  0.41249  1.0000
  O   O199      1.0  0.9028700000000001  0.8386900000000002  0.39986000000000005  1.0000
  O   O200      1.0  0.8436600000000001  0.9578800000000001  0.4253200000000001  1.0000
  O   O201      1.0  0.22201  0.12361000000000003  0.3243  1.0000
  O   O202      1.0  0.18926000000000007  0.09417000000000003  0.4452400000000001  1.0000
  O   O203      1.0  0.26257  0.013910000000000002  0.45452  1.0000
  O   O204      1.0  0.40421  0.05481  0.2986  1.0000
  O   O205      1.0  0.33105000000000007  0.09992000000000002  0.23015  1.0000
  O   O206      1.0  0.27525000000000005  0.93156  0.22067000000000003  1.0000
  O   O207      1.0  0.22795  0.00979  0.15961  1.0000
  O   O208      1.0  0.08751000000000003  0.05154  0.24055  1.0000
  O   O209      1.0  0.10014  0.09713000000000001  0.33869  1.0000
  O   O210      1.0  0.07468  0.15634  0.45788  1.0000
  O   O211      1.0  0.77799  0.62361  0.17570000000000005  1.0000
  O   O212      1.0  0.8107400000000001  0.5941700000000002  0.05476  1.0000
  O   O213      1.0  0.7374300000000001  0.51391  0.04548000000000001  1.0000
  O   O214      1.0  0.59579  0.55481  0.2014  1.0000
  O   O215      1.0  0.66895  0.59992  0.26985  1.0000
  O   O216      1.0  0.72475  0.43156000000000005  0.27933  1.0000
  O   O217      1.0  0.7720500000000001  0.50979  0.34039  1.0000
  O   O218      1.0  0.91249  0.5515400000000001  0.25945  1.0000
  O   O219      1.0  0.89986  0.5971300000000002  0.16131  1.0000
  O   O220      1.0  0.9253200000000001  0.6563400000000001  0.04212  1.0000
  O   O221      1.0  0.72201  0.37639  0.6757  1.0000
  O   O222      1.0  0.68926  0.40583  0.55476  1.0000
  O   O223      1.0  0.76257  0.48609000000000013  0.54548  1.0000
  O   O224      1.0  0.90422  0.4451900000000001  0.7014  1.0000
  O   O225      1.0  0.8310500000000002  0.40008000000000005  0.76985  1.0000
  O   O226      1.0  0.7752500000000002  0.5684400000000001  0.7793300000000002  1.0000
  O   O227      1.0  0.7279500000000001  0.49021  0.84039  1.0000
  O   O228      1.0  0.58751  0.44846000000000014  0.75945  1.0000
  O   O229      1.0  0.60014  0.40287  0.6613100000000001  1.0000
  O   O230      1.0  0.57468  0.34366  0.54212  1.0000
  O   O231      1.0  0.27799  0.87639  0.8243  1.0000
  O   O232      1.0  0.31074  0.9058300000000001  0.9452400000000002  1.0000
  O   O233      1.0  0.23743000000000003  0.98609  0.95452  1.0000
  O   O234      1.0  0.09579  0.9451900000000002  0.7986  1.0000
  O   O235      1.0  0.16895  0.90008  0.7301500000000001  1.0000
  O   O236      1.0  0.22475  0.06844  0.72067  1.0000
  O   O237      1.0  0.27205000000000007  0.99021  0.65961  1.0000
  O   O238      1.0  0.41249  0.94846  0.74055  1.0000
  O   O239      1.0  0.39986000000000005  0.9028700000000001  0.8386900000000002  1.0000
  O   O240      1.0  0.4253200000000001  0.8436600000000001  0.9578800000000001  1.0000
