data_image0
_chemical_formula_structural       Zn58H684C720N36O160
_chemical_formula_sum              "Zn58 H684 C720 N36 O160"
_cell_length_a       32.57742
_cell_length_b       34.81144
_cell_length_c       34.79768
_cell_angle_alpha    120.03447999999999
_cell_angle_beta     89.97346999999999
_cell_angle_gamma    90.02103

_symmetry_space_group_name_H-M    'P 1'
_symmetry_Int_Tables_number       1

loop_
  _symmetry_equiv_pos_as_xyz
  'x,y,z'

loop_
  _atom_site_type_symbol
  _atom_site_label
  _atom_site_symmetry_multiplicity
  _atom_site_fract_x
  _atom_site_fract_y
  _atom_site_fract_z
  _atom_site_occupancy
  Zn  Zn1       1.0  0.82613  0.48195  0.05535000000000002  1.0000
  Zn  Zn2       1.0  0.7247999999999998  0.0073200000000000105  0.59412  1.0000
  Zn  Zn3       1.0  0.77438  0.005920000000000058  0.4118300000000001  1.0000
  Zn  Zn4       1.0  0.27432  0.99388  0.58807  1.0000
  Zn  Zn5       1.0  0.16367  0.95811  0.44155  1.0000
  Zn  Zn6       1.0  0.98842  0.32171  0.60912  1.0000
  Zn  Zn7       1.0  0.75067  0.9986100000000001  0.4992100000000001  1.0000
  Zn  Zn8       1.0  0.16372  0.48338999999999993  0.041770000000000015  1.0000
  Zn  Zn9       1.0  0.16359  0.55978  0.51783  1.0000
  Zn  Zn10      1.0  0.4883699999999999  0.7126  0.3216700000000001  1.0000
  Zn  Zn11      1.0  0.22592  0.5943100000000001  0.5867700000000002  1.0000
  Zn  Zn12      1.0  0.9884  0.2873300000000001  0.6783300000000002  1.0000
  Zn  Zn13      1.0  0.17388  0.5194899999999999  0.57325  1.0000
  Zn  Zn14      1.0  0.72577  0.5876600000000002  0.9936800000000002  1.0000
  Zn  Zn15      1.0  0.3365899999999999  0.55961  0.04178  1.0000
  Zn  Zn16      1.0  0.33644  0.95838  0.51804  1.0000
  Zn  Zn17      1.0  0.17391999999999994  0.42708999999999997  0.9455700000000002  1.0000
  Zn  Zn18      1.0  0.66345  0.4402800000000001  0.48226000000000013  1.0000
  Zn  Zn19      1.0  0.8364799999999998  0.44151999999999997  0.95965  1.0000
  Zn  Zn20      1.0  0.32609  0.42675  0.4818800000000001  1.0000
  Zn  Zn21      1.0  0.5116399999999998  0.28723  0.60903  1.0000
  Zn  Zn22      1.0  0.2506  0.4994100000000001  0.9987000000000003  1.0000
  Zn  Zn23      1.0  0.22582  0.41342  0.007640000000000002  1.0000
  Zn  Zn24      1.0  0.011509999999999998  0.6089900000000001  0.32162000000000013  1.0000
  Zn  Zn25      1.0  0.7744299999999997  0.4061000000000001  0.99417  1.0000
  Zn  Zn26      1.0  0.74943  0.50001  0.49996  1.0000
  Zn  Zn27      1.0  0.27434999999999987  0.59417  0.00739  1.0000
  Zn  Zn28      1.0  0.011559999999999997  0.67836  0.28741  1.0000
  Zn  Zn29      1.0  0.66375  0.04170000000000013  0.5582800000000002  1.0000
  Zn  Zn30      1.0  0.83811  0.04025000000000004  0.4812400000000001  1.0000
  Zn  Zn31      1.0  0.8261  0.94482  0.42661  1.0000
  Zn  Zn32      1.0  0.27409  0.41312  0.40683  1.0000
  Zn  Zn33      1.0  0.25049  0.50046  0.50066  1.0000
  Zn  Zn34      1.0  0.6738  0.57322  0.054890000000000015  1.0000
  Zn  Zn35      1.0  0.2506  5.000000000009035e-05  0.5006300000000001  1.0000
  Zn  Zn36      1.0  0.51193  0.3908  0.67832  1.0000
  Zn  Zn37      1.0  0.5690599999999998  0.66661  0.33341  1.0000
  Zn  Zn38      1.0  0.17395  0.05354  0.48184  1.0000
  Zn  Zn39      1.0  0.33665  0.48203  0.4409400000000001  1.0000
  Zn  Zn40      1.0  0.32613  0.51842  0.94526  1.0000
  Zn  Zn41      1.0  0.67369  0.48033000000000003  0.42663  1.0000
  Zn  Zn42      1.0  0.4884099999999999  0.6087099999999999  0.28708  1.0000
  Zn  Zn43      1.0  0.06937  0.3332800000000001  0.6666100000000003  1.0000
  Zn  Zn44      1.0  0.43111  0.33329  0.66664  1.0000
  Zn  Zn45      1.0  0.66349  0.5178799999999998  0.95847  1.0000
  Zn  Zn46      1.0  0.9883199999999999  0.39077  0.71246  1.0000
  Zn  Zn47      1.0  0.72573  0.40573000000000004  0.41321000000000013  1.0000
  Zn  Zn48      1.0  0.51154  0.32101  0.71284  1.0000
  Zn  Zn49      1.0  0.83637  0.51661  0.55859  1.0000
  Zn  Zn50      1.0  0.77429  0.58667  0.5942300000000003  1.0000
  Zn  Zn51      1.0  0.74951  0.5007  0.00153  1.0000
  Zn  Zn52      1.0  0.6738299999999998  0.94514  0.51833  1.0000
  Zn  Zn53      1.0  0.3261  0.054910000000000125  0.5732000000000003  1.0000
  Zn  Zn54      1.0  0.93064  0.6666700000000001  0.3334000000000001  1.0000
  Zn  Zn55      1.0  0.2257  0.9924499999999999  0.4058900000000001  1.0000
  Zn  Zn56      1.0  0.82606  0.57177  0.51822  1.0000
  Zn  Zn57      1.0  0.01159  0.71279  0.3911500000000001  1.0000
  Zn  Zn58      1.0  0.4883499999999999  0.67814  0.39099  1.0000
  H   H1        1.0  0.35986  0.96123  0.31104  1.0000
  H   H2        1.0  0.65984  0.7331300000000001  0.11994000000000003  1.0000
  H   H3        1.0  0.5944099999999998  0.6181299999999998  0.67671  1.0000
  H   H4        1.0  0.4376199999999999  0.41990999999999995  0.46327  1.0000
  H   H5        1.0  0.3067  0.38369  0.5638900000000002  1.0000
  H   H6        1.0  0.78006  0.6108500000000001  0.9068300000000002  1.0000
  H   H7        1.0  0.68317  0.12407000000000008  0.4436900000000001  1.0000
  H   H8        1.0  0.8518599999999997  0.7924000000000001  0.4545300000000001  1.0000
  H   H9        1.0  0.00908  0.53477  0.5676  1.0000
  H   H10       1.0  0.18301  0.59589  0.92132  1.0000
  H   H11       1.0  0.17562  0.07075999999999999  0.38726  1.0000
  H   H12       1.0  0.59693  0.55658  0.79928  1.0000
  H   H13       1.0  0.42518  0.56908  0.17352  1.0000
  H   H14       1.0  0.9742  0.47203999999999996  0.08474  1.0000
  H   H15       1.0  0.60586  0.3793999999999999  0.92617  1.0000
  H   H16       1.0  0.7912  0.3966000000000001  0.7782100000000002  1.0000
  H   H17       1.0  0.62776  0.17461000000000013  0.5099900000000003  1.0000
  H   H18       1.0  0.9182099999999997  0.53209  0.03285  1.0000
  H   H19       1.0  0.83241  0.4146699999999999  0.60493  1.0000
  H   H20       1.0  0.89785  0.40681000000000006  0.5177  1.0000
  H   H21       1.0  0.009109999999999998  0.43245000000000006  0.9671300000000003  1.0000
  H   H22       1.0  0.75098  0.89411  0.3003900000000001  1.0000
  H   H23       1.0  0.19616  0.22969000000000012  0.6871300000000002  1.0000
  H   H24       1.0  0.13973  0.3812  0.7807  1.0000
  H   H25       1.0  0.83234  0.18971000000000005  0.58438  1.0000
  H   H26       1.0  0.82418  0.9283799999999999  0.31489  1.0000
  H   H27       1.0  0.12719  0.8244599999999999  0.48844  1.0000
  H   H28       1.0  0.030429999999999995  0.5125400000000001  0.9878700000000002  1.0000
  H   H29       1.0  0.85283  0.11828000000000005  0.3830000000000001  1.0000
  H   H30       1.0  0.70535  0.5657600000000002  0.8356200000000003  1.0000
  H   H31       1.0  0.29098  0.6035600000000001  0.22286000000000006  1.0000
  H   H32       1.0  0.16581  0.70257  0.2068  1.0000
  H   H33       1.0  0.9032899999999998  0.20156  0.44374000000000013  1.0000
  H   H34       1.0  0.40271  0.44247  0.24236000000000002  1.0000
  H   H35       1.0  0.10244999999999997  0.59342  0.11111  1.0000
  H   H36       1.0  0.24592  0.4627500000000001  0.6510700000000003  1.0000
  H   H37       1.0  0.252  0.10582999999999998  0.69901  1.0000
  H   H38       1.0  0.85419  0.22164999999999999  0.80042  1.0000
  H   H39       1.0  0.72739  0.9586000000000001  0.7453100000000003  1.0000
  H   H40       1.0  0.7662799999999997  0.84755  0.24909  1.0000
  H   H41       1.0  0.15521  0.65794  0.21618  1.0000
  H   H42       1.0  0.63337  0.37825  0.06260000000000003  1.0000
  H   H43       1.0  0.80367  0.68742  0.23  1.0000
  H   H44       1.0  0.69863  0.50728  0.80464  1.0000
  H   H45       1.0  0.7181599999999998  0.43749  0.8166200000000002  1.0000
  H   H46       1.0  0.8601799999999998  0.78032  0.38081  1.0000
  H   H47       1.0  0.5091  0.5674299999999999  0.03297  1.0000
  H   H48       1.0  0.85398  0.19963  0.42143000000000014  1.0000
  H   H49       1.0  0.19332999999999995  0.17944000000000002  0.56353  1.0000
  H   H50       1.0  0.8159299999999998  0.9043200000000001  0.19637000000000004  1.0000
  H   H51       1.0  0.7913399999999999  0.38085  0.60338  1.0000
  H   H52       1.0  0.19808999999999993  0.80517  0.29776000000000014  1.0000
  H   H53       1.0  0.18371999999999994  0.70599  0.8021500000000003  1.0000
  H   H54       1.0  0.062439999999999996  0.5368800000000001  0.5797400000000003  1.0000
  H   H55       1.0  0.30683  0.4363100000000001  0.8198200000000002  1.0000
  H   H56       1.0  0.183  0.4447899999999999  0.31992  1.0000
  H   H57       1.0  0.8657699999999998  0.68457  0.06251  1.0000
  H   H58       1.0  0.49097  0.43224  0.4654400000000001  1.0000
  H   H59       1.0  0.20159999999999995  0.46466999999999997  0.13634000000000004  1.0000
  H   H60       1.0  0.4698299999999999  0.012519999999999967  0.48802  1.0000
  H   H61       1.0  0.19630999999999996  0.45734000000000014  0.7702800000000002  1.0000
  H   H62       1.0  0.6494899999999999  0.33908  0.2716400000000001  1.0000
  H   H63       1.0  0.4186299999999999  0.4679500000000001  0.9674500000000003  1.0000
  H   H64       1.0  0.27528  0.25216  0.8824100000000002  1.0000
  H   H65       1.0  0.7329299999999997  0.8484800000000001  0.5986400000000002  1.0000
  H   H66       1.0  0.025819999999999985  0.38758  0.91576  1.0000
  H   H67       1.0  0.27499  0.6294400000000001  0.7478600000000002  1.0000
  H   H68       1.0  0.8729799999999998  0.3357800000000001  0.5114600000000001  1.0000
  H   H69       1.0  0.63822  0.24506  0.4779  1.0000
  H   H70       1.0  0.3871199999999999  0.36691  0.85531  1.0000
  H   H71       1.0  0.72458  0.36895  0.11838000000000003  1.0000
  H   H72       1.0  0.35138999999999987  0.38325  0.26626  1.0000
  H   H73       1.0  0.07491  0.60444  0.17326  1.0000
  H   H74       1.0  0.0302  0.012139999999999995  0.52499  1.0000
  H   H75       1.0  0.2355  0.18927000000000008  0.8856800000000002  1.0000
  H   H76       1.0  0.5218399999999997  0.8351  0.4039200000000001  1.0000
  H   H77       1.0  0.39733  0.88896  0.40714  1.0000
  H   H78       1.0  0.14066  0.34994  0.3112700000000001  1.0000
  H   H79       1.0  0.22546  0.1187500000000001  0.7489200000000003  1.0000
  H   H80       1.0  0.64967  0.72814  0.06752  1.0000
  H   H81       1.0  0.3502699999999999  0.27204999999999996  0.33916  1.0000
  H   H82       1.0  0.12316999999999999  0.5440200000000002  0.8696700000000003  1.0000
  H   H83       1.0  0.07506  0.56871  0.3957500000000001  1.0000
  H   H84       1.0  0.6479  0.79202  0.33832  1.0000
  H   H85       1.0  0.25174  0.30107999999999996  0.40671  1.0000
  H   H86       1.0  0.7171  0.6110099999999999  0.70314  1.0000
  H   H87       1.0  0.9051099999999997  0.05833000000000003  0.67669  1.0000
  H   H88       1.0  0.64805  0.26633  0.38354  1.0000
  H   H89       1.0  0.21922  0.38944  0.2965700000000001  1.0000
  H   H90       1.0  0.28224  0.5622599999999999  0.3785400000000001  1.0000
  H   H91       1.0  0.67439  0.92933  0.6140400000000003  1.0000
  H   H92       1.0  0.21791999999999995  0.70347  0.09249  1.0000
  H   H93       1.0  0.90341  0.24212000000000009  0.7983400000000003  1.0000
  H   H94       1.0  0.69567  0.85445  0.65993  1.0000
  H   H95       1.0  0.8500799999999997  0.34029  0.06846000000000001  1.0000
  H   H96       1.0  0.13420999999999994  0.31578  0.37826  1.0000
  H   H97       1.0  0.09814  0.88248  0.28755  1.0000
  H   H98       1.0  0.4115899999999999  0.77653  0.48467  1.0000
  H   H99       1.0  0.8527799999999998  0.26475  0.88158  1.0000
  H   H100      1.0  0.13419999999999996  0.62229  0.9374800000000001  1.0000
  H   H101      1.0  0.4252599999999999  0.60374  0.43084  1.0000
  H   H102      1.0  0.62281  0.45656  0.13084000000000007  1.0000
  H   H103      1.0  0.64018  0.59926  0.38048000000000004  1.0000
  H   H104      1.0  0.3519  0.73363  0.11749000000000002  1.0000
  H   H105      1.0  0.8944299999999997  0.07352000000000007  0.6199800000000002  1.0000
  H   H106      1.0  0.83564  0.49505999999999994  0.29255  1.0000
  H   H107      1.0  0.26756  0.59794  0.8480100000000002  1.0000
  H   H108      1.0  0.52533  0.47131000000000006  0.38738  1.0000
  H   H109      1.0  0.08758  0.77714  0.29221  1.0000
  H   H110      1.0  0.1377  0.7540900000000001  0.52089  1.0000
  H   H111      1.0  0.54628  0.57744  0.52279  1.0000
  H   H112      1.0  0.81592  0.29235  0.09561  1.0000
  H   H113      1.0  0.67763  0.3519  0.03139  1.0000
  H   H114      1.0  0.72843  0.6787800000000003  0.7597400000000002  1.0000
  H   H115      1.0  0.6684  0.4146699999999999  0.81024  1.0000
  H   H116      1.0  0.90185  0.5951200000000001  0.7126300000000002  1.0000
  H   H117      1.0  0.3032799999999999  0.22919  0.54283  1.0000
  H   H118      1.0  0.97834  0.5683800000000001  0.40383000000000013  1.0000
  H   H119      1.0  0.33204  0.58509  0.39448  1.0000
  H   H120      1.0  0.60546  0.54644  0.62057  1.0000
  H   H121      1.0  0.58864  0.4843  0.77653  1.0000
  H   H122      1.0  0.30462  0.1457800000000001  0.8055200000000002  1.0000
  H   H123      1.0  0.35987  0.68923  0.65039  1.0000
  H   H124      1.0  0.10592999999999997  0.9259699999999998  0.5469200000000001  1.0000
  H   H125      1.0  0.8174599999999997  0.31936  0.4445000000000001  1.0000
  H   H126      1.0  0.08798  0.51552  0.22335  1.0000
  H   H127      1.0  0.6597  0.8798300000000001  0.6135600000000002  1.0000
  H   H128      1.0  0.88708  0.51104  0.3668  1.0000
  H   H129      1.0  0.59709  0.24253000000000008  0.4430800000000001  1.0000
  H   H130      1.0  0.7457499999999998  0.53705  0.3491200000000001  1.0000
  H   H131      1.0  0.4009799999999999  0.88336  0.5949800000000001  1.0000
  H   H132      1.0  0.31598  0.19737  0.29173  1.0000
  H   H133      1.0  0.29435  0.8357799999999999  0.566  1.0000
  H   H134      1.0  0.6482  0.6160699999999999  0.8823200000000002  1.0000
  H   H135      1.0  0.13967  0.6763000000000001  0.5872900000000002  1.0000
  H   H136      1.0  0.11279  0.48887  0.85564  1.0000
  H   H137      1.0  0.06288  0.04312000000000005  0.46382  1.0000
  H   H138      1.0  0.00952  0.032720000000000034  0.4653700000000001  1.0000
  H   H139      1.0  0.76662  0.7494700000000001  0.5978300000000001  1.0000
  H   H140      1.0  0.09807  0.7125600000000001  0.5949900000000002  1.0000
  H   H141      1.0  0.17788999999999994  0.3211800000000001  0.3516400000000001  1.0000
  H   H142      1.0  0.6128  0.6324999999999998  0.48837  1.0000
  H   H143      1.0  0.7643  0.81091  0.69674  1.0000
  H   H144      1.0  0.76432  0.88466  0.18746  1.0000
  H   H145      1.0  0.51022  0.47774  0.58452  1.0000
  H   H146      1.0  0.35369  0.80184  0.57996  1.0000
  H   H147      1.0  0.33189  0.80953  0.4152000000000001  1.0000
  H   H148      1.0  0.7736999999999998  0.78582  0.74475  1.0000
  H   H149      1.0  0.8039899999999998  0.85338  0.19360000000000002  1.0000
  H   H150      1.0  0.39736  0.51792  0.11098  1.0000
  H   H151      1.0  0.6989  0.2969800000000001  0.4923300000000001  1.0000
  H   H152      1.0  0.64082  0.58657  0.9113  1.0000
  H   H153      1.0  0.02045  0.5407300000000002  0.11701000000000003  1.0000
  H   H154      1.0  0.64837  0.66131  0.45412000000000013  1.0000
  H   H155      1.0  0.77245  0.95702  0.21212  1.0000
  H   H156      1.0  0.04722999999999999  0.42254  0.477  1.0000
  H   H157      1.0  0.18301  0.32596  0.40455  1.0000
  H   H158      1.0  0.80213  0.29806  0.80545  1.0000
  H   H159      1.0  0.26683  0.2495  0.40118  1.0000
  H   H160      1.0  0.08787  0.7079600000000001  0.4846500000000001  1.0000
  H   H161      1.0  0.33376  0.79228  0.2971  1.0000
  H   H162      1.0  0.15521  0.7839299999999999  0.4428400000000001  1.0000
  H   H163      1.0  0.17756999999999995  0.0306400000000001  0.6797700000000002  1.0000
  H   H164      1.0  0.40317  0.75749  0.2006  1.0000
  H   H165      1.0  0.6685099999999998  0.18972000000000008  0.6043900000000002  1.0000
  H   H166      1.0  0.6960799999999998  0.76986  0.3131400000000001  1.0000
  H   H167      1.0  0.13402  0.06269  0.68502  1.0000
  H   H168      1.0  0.6124699999999997  0.85516  0.36689  1.0000
  H   H169      1.0  0.15  0.06768999999999997  0.34068  1.0000
  H   H170      1.0  0.09655999999999998  0.7578400000000001  0.55625  1.0000
  H   H171      1.0  0.40161  0.99735  0.3358200000000001  1.0000
  H   H172      1.0  0.80241  0.19455000000000006  0.4928500000000001  1.0000
  H   H173      1.0  0.97107  0.46734  0.5303600000000002  1.0000
  H   H174      1.0  0.22547  0.6295500000000002  0.8808400000000002  1.0000
  H   H175      1.0  0.6477899999999998  0.5462  0.20792000000000005  1.0000
  H   H176      1.0  0.7539599999999997  0.65029  0.46213  1.0000
  H   H177      1.0  0.6594999999999998  0.38654999999999984  0.26668  1.0000
  H   H178      1.0  0.1232  0.32567000000000007  0.4561400000000001  1.0000
  H   H179      1.0  0.2946  0.73019  0.16432  1.0000
  H   H180      1.0  0.40126  0.33805  0.00224  1.0000
  H   H181      1.0  0.77052  0.67945  0.91891  1.0000
  H   H182      1.0  0.8727699999999998  0.17565000000000017  0.6633700000000002  1.0000
  H   H183      1.0  0.64007  0.6502400000000002  0.6889700000000002  1.0000
  H   H184      1.0  0.97002  0.4874  0.4751  1.0000
  H   H185      1.0  0.54636  0.47718999999999995  0.05462  1.0000
  H   H186      1.0  0.21801  0.56196  0.18374  1.0000
  H   H187      1.0  0.36667  0.31568  0.9376000000000002  1.0000
  H   H188      1.0  0.33992  0.267  0.38653  1.0000
  H   H189      1.0  0.83959  0.8791199999999998  0.266  1.0000
  H   H190      1.0  0.65493  0.21473000000000006  0.5567500000000001  1.0000
  H   H191      1.0  0.80664  0.81966  0.38378000000000007  1.0000
  H   H192      1.0  0.09675  0.44380000000000003  0.20126000000000005  1.0000
  H   H193      1.0  0.47072999999999987  0.5324  0.46888  1.0000
  H   H194      1.0  0.14982  0.6589000000000002  0.7266800000000002  1.0000
  H   H195      1.0  0.54642  0.94502  0.4222800000000001  1.0000
  H   H196      1.0  0.32234  0.03077000000000003  0.35163000000000005  1.0000
  H   H197      1.0  0.57475  0.17279000000000003  0.5691000000000002  1.0000
  H   H198      1.0  0.61311  0.6184500000000002  0.5307900000000002  1.0000
  H   H199      1.0  0.16832  0.58485  0.19008  1.0000
  H   H200      1.0  0.59892  0.28836  0.40544000000000013  1.0000
  H   H201      1.0  0.65505  0.34179000000000004  0.7849900000000001  1.0000
  H   H202      1.0  0.09665  0.79855  0.24241000000000004  1.0000
  H   H203      1.0  0.14727  0.8819  0.26541  1.0000
  H   H204      1.0  0.34006  0.11969999999999999  0.73316  1.0000
  H   H205      1.0  0.010689999999999996  0.5213700000000001  0.4155100000000001  1.0000
  H   H206      1.0  0.37689  0.54359  0.67419  1.0000
  H   H207      1.0  0.35931999999999986  0.9113900000000001  0.5867  1.0000
  H   H208      1.0  0.3180699999999999  0.32567000000000007  0.9207900000000002  1.0000
  H   H209      1.0  0.82461  0.68377  0.61301  1.0000
  H   H210      1.0  0.78284  0.37848  0.81707  1.0000
  H   H211      1.0  0.65424  0.4415400000000001  0.6574800000000002  1.0000
  H   H212      1.0  0.87269  0.48771  0.8246000000000002  1.0000
  H   H213      1.0  0.80195  0.5073300000000001  0.7020700000000001  1.0000
  H   H214      1.0  0.40566999999999986  0.67688  0.6184000000000002  1.0000
  H   H215      1.0  0.471  0.53124  0.06324  1.0000
  H   H216      1.0  0.14779  0.33797  0.54542  1.0000
  H   H217      1.0  0.7994199999999998  0.32894  0.86438  1.0000
  H   H218      1.0  0.47835  0.16442  0.56812  1.0000
  H   H219      1.0  0.19645  0.19551000000000002  0.85388  1.0000
  H   H220      1.0  0.68428  0.8029500000000002  0.09533000000000003  1.0000
  H   H221      1.0  0.58131  0.50055  0.03255  1.0000
  H   H222      1.0  0.34046  0.6146  0.8807000000000003  1.0000
  H   H223      1.0  0.41152  0.5147  0.29178  1.0000
  H   H224      1.0  0.34553  0.78405  0.3422  1.0000
  H   H225      1.0  0.34982999999999986  0.6620000000000001  0.93343  1.0000
  H   H226      1.0  0.62782  0.33548999999999995  0.82524  1.0000
  H   H227      1.0  0.01025  0.58452  0.10589000000000003  1.0000
  H   H228      1.0  0.37268  0.66513  0.4888400000000001  1.0000
  H   H229      1.0  0.69318  0.6168200000000001  0.18014000000000005  1.0000
  H   H230      1.0  0.35354999999999986  0.41966999999999993  0.22184  1.0000
  H   H231      1.0  0.7745999999999997  0.74848  0.11873000000000003  1.0000
  H   H232      1.0  0.20903  0.6033099999999999  0.3811500000000001  1.0000
  H   H233      1.0  0.8598599999999997  0.31028  0.3492  1.0000
  H   H234      1.0  0.80344  0.5424799999999999  0.31332  1.0000
  H   H235      1.0  0.02155  0.40439  0.5686800000000002  1.0000
  H   H236      1.0  0.28094  0.90673  0.29592  1.0000
  H   H237      1.0  0.77067  0.08136  0.76009  1.0000
  H   H238      1.0  0.19593  0.31275  0.54248  1.0000
  H   H239      1.0  0.33556  0.29244  0.797  1.0000
  H   H240      1.0  0.47454  0.38724  0.47173  1.0000
  H   H241      1.0  0.21743  0.81631  0.3785600000000001  1.0000
  H   H242      1.0  0.67495  0.68435  0.07038  1.0000
  H   H243      1.0  0.60244  0.40691  0.8892400000000003  1.0000
  H   H244      1.0  0.18360999999999994  0.1980400000000001  0.9045000000000002  1.0000
  H   H245      1.0  0.22687999999999994  0.04205000000000004  0.25585000000000013  1.0000
  H   H246      1.0  0.69347  0.56316  0.3841400000000001  1.0000
  H   H247      1.0  0.9906599999999999  0.5677799999999998  0.53464  1.0000
  H   H248      1.0  0.33387  0.50449  0.20754000000000006  1.0000
  H   H249      1.0  0.025709999999999993  0.52837  0.61248  1.0000
  H   H250      1.0  0.2722  0.042209999999999984  0.78731  1.0000
  H   H251      1.0  0.6965999999999998  0.6864000000000001  0.45723000000000014  1.0000
  H   H252      1.0  0.14023  0.9612300000000001  0.6507500000000003  1.0000
  H   H253      1.0  0.10603999999999997  0.62103  0.07415  1.0000
  H   H254      1.0  0.16398999999999994  0.20287999999999998  0.70775  1.0000
  H   H255      1.0  0.43756  0.53664  0.9568  1.0000
  H   H256      1.0  0.35155  0.45396  0.66141  1.0000
  H   H257      1.0  0.3592899999999999  0.6751599999999999  0.08874000000000003  1.0000
  H   H258      1.0  0.37268  0.82388  0.33514  1.0000
  H   H259      1.0  0.90198  0.28699000000000013  0.8824100000000002  1.0000
  H   H260      1.0  0.13982999999999995  0.21894999999999998  0.60005  1.0000
  H   H261      1.0  0.9797799999999998  0.1168  0.54046  1.0000
  H   H262      1.0  0.24903999999999998  0.5926099999999999  0.69754  1.0000
  H   H263      1.0  0.75341  0.53813  0.18926000000000007  1.0000
  H   H264      1.0  0.25371  0.18884  0.65101  1.0000
  H   H265      1.0  0.24913  0.3022700000000001  0.8952900000000003  1.0000
  H   H266      1.0  0.69512  0.34056  0.19460000000000005  1.0000
  H   H267      1.0  0.52163  0.56833  0.16453  1.0000
  H   H268      1.0  0.2461  0.18814  0.53787  1.0000
  H   H269      1.0  0.60269  0.11111000000000013  0.5179200000000003  1.0000
  H   H270      1.0  0.86048  0.08866  0.41184  1.0000
  H   H271      1.0  0.29838  0.67133  0.13654000000000002  1.0000
  H   H272      1.0  0.09923  0.33825  0.33619  1.0000
  H   H273      1.0  0.6821699999999998  0.92031  0.32522  1.0000
  H   H274      1.0  0.56256  0.9566600000000002  0.5364900000000002  1.0000
  H   H275      1.0  0.6639199999999997  0.79665  0.29245  1.0000
  H   H276      1.0  0.33206  0.6059400000000001  0.19105000000000005  1.0000
  H   H277      1.0  0.6486  0.11684000000000007  0.7335300000000002  1.0000
  H   H278      1.0  0.029279999999999994  0.53101  0.4675100000000001  1.0000
  H   H279      1.0  0.8972799999999997  0.48216  0.8898  1.0000
  H   H280      1.0  0.57526  0.43055999999999994  0.60462  1.0000
  H   H281      1.0  0.22519  0.21422000000000005  0.9585200000000001  1.0000
  H   H282      1.0  0.52014  0.42288999999999993  0.54051  1.0000
  H   H283      1.0  0.6333999999999997  0.68403  0.6219  1.0000
  H   H284      1.0  0.70221  0.13601  0.67124  1.0000
  H   H285      1.0  0.30462  0.65999  0.85451  1.0000
  H   H286      1.0  0.23533999999999997  0.6952799999999999  0.81091  1.0000
  H   H287      1.0  0.14584  0.80053  0.22179000000000004  1.0000
  H   H288      1.0  0.7726  0.24006  0.31997  1.0000
  H   H289      1.0  0.52915  0.06358999999999994  0.53123  1.0000
  H   H290      1.0  0.7095099999999998  0.22175000000000003  0.60224  1.0000
  H   H291      1.0  0.5255499999999997  0.61267  0.08422  1.0000
  H   H292      1.0  0.19845  0.4926  0.19522000000000006  1.0000
  H   H293      1.0  0.71966  0.09249999999999996  0.38852  1.0000
  H   H294      1.0  0.79127  0.2218800000000001  0.6184000000000002  1.0000
  H   H295      1.0  0.48913  0.52194  0.10597  1.0000
  H   H296      1.0  0.58893  0.29166  0.51537  1.0000
  H   H297      1.0  0.14817  0.4544200000000001  0.7926100000000003  1.0000
  H   H298      1.0  0.91198  0.2922  0.7769  1.0000
  H   H299      1.0  0.22841999999999996  0.9192000000000001  0.6795700000000002  1.0000
  H   H300      1.0  0.7510099999999997  0.69832  0.5931  1.0000
  H   H301      1.0  0.06251  0.42039000000000004  0.9570700000000002  1.0000
  H   H302      1.0  0.02606  0.08422000000000002  0.4721600000000001  1.0000
  H   H303      1.0  0.81682  0.6744500000000001  0.07863000000000003  1.0000
  H   H304      1.0  0.39434  0.62062  0.5464500000000002  1.0000
  H   H305      1.0  0.64917  0.93231  0.6608  1.0000
  H   H306      1.0  0.20919  0.61891  0.22254  1.0000
  H   H307      1.0  0.92479  0.4312700000000001  0.8272300000000002  1.0000
  H   H308      1.0  0.90076  0.6617099999999999  0.9977700000000003  1.0000
  H   H309      1.0  0.97084  0.0631600000000001  0.5324900000000002  1.0000
  H   H310      1.0  0.16418  0.50485  0.79714  1.0000
  H   H311      1.0  0.27222  0.21321000000000007  0.2548400000000001  1.0000
  H   H312      1.0  0.3668299999999999  0.62214  0.68439  1.0000
  H   H313      1.0  0.02883  0.9367099999999999  0.4694  1.0000
  H   H314      1.0  0.3336  0.7031300000000001  0.49558000000000013  1.0000
  H   H315      1.0  0.66831  0.39394  0.58466  1.0000
  H   H316      1.0  0.252  0.59299  0.8942900000000003  1.0000
  H   H317      1.0  0.18246  0.87543  0.55564  1.0000
  H   H318      1.0  0.7247799999999998  0.88115  0.25032  1.0000
  H   H319      1.0  0.58124  0.53204  0.49958  1.0000
  H   H320      1.0  0.64646  0.19791000000000009  0.7780200000000003  1.0000
  H   H321      1.0  0.18269  0.68028  0.12541  1.0000
  H   H322      1.0  0.95295  0.94499  0.52292  1.0000
  H   H323      1.0  0.90104  0.33546  0.3374600000000001  1.0000
  H   H324      1.0  0.234  0.25104  0.84862  1.0000
  H   H325      1.0  0.8221  0.67927  0.03047  1.0000
  H   H326      1.0  0.387  0.53084  0.61882  1.0000
  H   H327      1.0  0.75355  0.81075  0.3492  1.0000
  H   H328      1.0  0.73244  0.4022  0.25019  1.0000
  H   H329      1.0  0.09880999999999997  0.66423  0.00209  1.0000
  H   H330      1.0  0.47441  0.52828  0.9155600000000003  1.0000
  H   H331      1.0  0.36163  0.47748999999999997  0.24514000000000005  1.0000
  H   H332      1.0  0.21855  0.9075400000000001  0.6111300000000002  1.0000
  H   H333      1.0  0.16814  0.60516  0.4153400000000001  1.0000
  H   H334      1.0  0.18407999999999994  0.09539000000000002  0.29332000000000014  1.0000
  H   H335      1.0  0.66376  0.4958099999999999  0.20339  1.0000
  H   H336      1.0  0.62727  0.4887600000000001  0.6650900000000002  1.0000
  H   H337      1.0  0.8169  0.12492000000000006  0.68006  1.0000
  H   H338      1.0  0.26455  0.11505000000000011  0.8119200000000002  1.0000
  H   H339      1.0  0.0985  0.40523  0.11737000000000003  1.0000
  H   H340      1.0  0.73137  0.23924999999999996  0.91838  1.0000
  H   H341      1.0  0.40113  0.7113799999999999  0.11660000000000002  1.0000
  H   H342      1.0  0.35404  0.7780599999999999  0.19839000000000007  1.0000
  H   H343      1.0  0.4784299999999999  0.40388  0.83546  1.0000
  H   H344      1.0  0.90521  0.6182099999999999  0.94174  1.0000
  H   H345      1.0  0.3665899999999999  0.06196000000000001  0.37786  1.0000
  H   H346      1.0  0.020209999999999992  0.5765199999999999  0.45931  1.0000
  H   H347      1.0  0.80364  0.34041  0.14647000000000004  1.0000
  H   H348      1.0  0.7479299999999998  0.40697  0.3013900000000001  1.0000
  H   H349      1.0  0.3173699999999999  0.44505000000000006  0.12567  1.0000
  H   H350      1.0  0.96931  0.52475  0.012550000000000004  1.0000
  H   H351      1.0  0.40289  0.7996699999999998  0.5573  1.0000
  H   H352      1.0  0.68206  0.6740099999999999  0.5952300000000003  1.0000
  H   H353      1.0  0.37678  0.32568  0.86927  1.0000
  H   H354      1.0  0.8446  0.21588000000000007  0.6580200000000003  1.0000
  H   H355      1.0  0.88671  0.91194  0.53111  1.0000
  H   H356      1.0  0.19333999999999996  0.43637  0.61572  1.0000
  H   H357      1.0  0.028869999999999993  0.53272  0.06326  1.0000
  H   H358      1.0  0.27519  0.11821999999999999  0.37014  1.0000
  H   H359      1.0  0.6058899999999998  0.07363000000000001  0.45304  1.0000
  H   H360      1.0  0.09895  0.9980200000000001  0.6625300000000002  1.0000
  H   H361      1.0  0.7327799999999998  0.74995  0.15208  1.0000
  H   H362      1.0  0.47454  0.08422000000000004  0.61269  1.0000
  H   H363      1.0  0.4186799999999999  0.032609999999999965  0.5004  1.0000
  H   H364      1.0  0.80677  0.56411  0.18058000000000005  1.0000
  H   H365      1.0  0.7284  0.7874  0.04298  1.0000
  H   H366      1.0  0.20517  0.43413  0.1647  1.0000
  H   H367      1.0  0.26451  0.18843000000000001  0.3028100000000001  1.0000
  H   H368      1.0  0.11325999999999997  0.0878500000000001  0.6191200000000002  1.0000
  H   H369      1.0  0.47968  0.54019  0.42305  1.0000
  H   H370      1.0  0.26817999999999986  0.32134  0.08225  1.0000
  H   H371      1.0  0.816  0.80226  0.70734  1.0000
  H   H372      1.0  0.99079  0.46556000000000003  0.03338  1.0000
  H   H373      1.0  0.7642299999999997  0.30276  0.11490000000000003  1.0000
  H   H374      1.0  0.95281  0.57775  0.055  1.0000
  H   H375      1.0  0.90091  0.0022900000000001066  0.6641300000000002  1.0000
  H   H376      1.0  0.19786999999999993  0.70234  0.50719  1.0000
  H   H377      1.0  0.2461  0.3492200000000001  0.8113600000000002  1.0000
  H   H378      1.0  0.85015  0.72712  0.65979  1.0000
  H   H379      1.0  0.13964  0.91125  0.3239200000000001  1.0000
  H   H380      1.0  0.09454  0.6768899999999999  0.05816000000000002  1.0000
  H   H381      1.0  0.7302  0.08082  0.31988  1.0000
  H   H382      1.0  0.6664999999999998  0.2061400000000001  0.5032200000000001  1.0000
  H   H383      1.0  0.73551  0.8857  0.69711  1.0000
  H   H384      1.0  0.85262  0.61646  0.7346100000000002  1.0000
  H   H385      1.0  0.79478  0.16393000000000002  0.43450000000000005  1.0000
  H   H386      1.0  0.35968  0.34984  0.03879000000000001  1.0000
  H   H387      1.0  0.31595  0.09487000000000008  0.8029900000000002  1.0000
  H   H388      1.0  0.70166  0.53479  0.8635400000000002  1.0000
  H   H389      1.0  0.07483  0.82712  0.43143  1.0000
  H   H390      1.0  0.02037  0.88296  0.42362  1.0000
  H   H391      1.0  0.9896199999999999  0.47863  0.8944100000000003  1.0000
  H   H392      1.0  0.81687  0.40382  0.32553  1.0000
  H   H393      1.0  0.4055  0.9412999999999999  0.32312000000000013  1.0000
  H   H394      1.0  0.88729  0.63329  0.14455  1.0000
  H   H395      1.0  0.83987  0.73273  0.61273  1.0000
  H   H396      1.0  0.70197  0.32849000000000006  0.4650900000000001  1.0000
  H   H397      1.0  0.36192999999999986  0.76731  0.52216  1.0000
  H   H398      1.0  0.50918  0.9668999999999999  0.5344000000000002  1.0000
  H   H399      1.0  0.2692699999999999  0.74441  0.9569100000000003  1.0000
  H   H400      1.0  0.8355799999999998  0.79741  0.50514  1.0000
  H   H401      1.0  0.7091099999999998  0.3963  0.61919  1.0000
  H   H402      1.0  0.86211  0.5208600000000001  0.7538400000000002  1.0000
  H   H403      1.0  0.52187  0.59558  0.4316  1.0000
  H   H404      1.0  0.81653  0.55544  0.8747600000000002  1.0000
  H   H405      1.0  0.17568999999999996  0.6126199999999999  0.6831400000000002  1.0000
  H   H406      1.0  0.64041  0.31105999999999995  0.9615  1.0000
  H   H407      1.0  0.8515699999999999  0.54548  0.33854  1.0000
  H   H408      1.0  0.82426  0.38677  0.07165000000000003  1.0000
  H   H409      1.0  0.45368  0.05480000000000003  0.4771800000000001  1.0000
  H   H410      1.0  0.47944  0.57691  0.11711000000000003  1.0000
  H   H411      1.0  0.12742  0.66346  0.17581  1.0000
  H   H412      1.0  0.28138  0.38936  0.09322  1.0000
  H   H413      1.0  0.14577999999999994  0.77842  0.57887  1.0000
  H   H414      1.0  0.28132  0.70416  0.61135  1.0000
  H   H415      1.0  0.86226  0.24602  0.76684  1.0000
  H   H416      1.0  0.30684  0.18015000000000012  0.6164600000000002  1.0000
  H   H417      1.0  0.14013  0.41298  0.08886  1.0000
  H   H418      1.0  0.77428  0.3702  0.2512900000000001  1.0000
  H   H419      1.0  0.4115799999999999  0.70809  0.22372  1.0000
  H   H420      1.0  0.58852  0.22269  0.70808  1.0000
  H   H421      1.0  0.9019899999999997  0.11749000000000002  0.4044500000000001  1.0000
  H   H422      1.0  0.9372699999999998  0.9564399999999998  0.42015  1.0000
  H   H423      1.0  0.29098  0.61921  0.39674  1.0000
  H   H424      1.0  0.10277  0.51792  0.4073000000000001  1.0000
  H   H425      1.0  0.36015999999999987  0.38028000000000023  0.5998900000000003  1.0000
  H   H426      1.0  0.68343  0.31961000000000006  0.87564  1.0000
  H   H427      1.0  0.71829  0.18321000000000012  0.6206800000000002  1.0000
  H   H428      1.0  0.7356499999999998  0.8116399999999999  0.11558  1.0000
  H   H429      1.0  0.6461  0.22173  0.42006  1.0000
  H   H430      1.0  0.52906  0.4677799999999999  0.93648  1.0000
  H   H431      1.0  0.97972  0.45953  0.57617  1.0000
  H   H432      1.0  0.14591  0.4212  0.19925  1.0000
  H   H433      1.0  0.32484  0.31573000000000007  0.38574000000000014  1.0000
  H   H434      1.0  0.56212  0.46302  0.42030000000000006  1.0000
  H   H435      1.0  0.46979  0.4757900000000001  0.9875500000000003  1.0000
  H   H436      1.0  0.85397  0.5787600000000002  0.7781200000000003  1.0000
  H   H437      1.0  0.77317  0.25515  0.04226000000000001  1.0000
  H   H438      1.0  0.08193999999999997  0.46804  0.50055  1.0000
  H   H439      1.0  0.41858  0.49957000000000007  0.5325000000000002  1.0000
  H   H440      1.0  0.9057399999999998  0.32291  0.3809  1.0000
  H   H441      1.0  0.31483  0.70867  0.90566  1.0000
  H   H442      1.0  0.164  0.29227999999999993  0.49483  1.0000
  H   H443      1.0  0.17789999999999995  0.64901  0.96938  1.0000
  H   H444      1.0  0.83438  0.29675  0.50304  1.0000
  H   H445      1.0  0.28226  0.6218700000000003  0.18420000000000006  1.0000
  H   H446      1.0  0.52552  0.9156100000000001  0.52829  1.0000
  H   H447      1.0  0.36022  0.2195900000000001  0.6194900000000002  1.0000
  H   H448      1.0  0.58143  0.96712  0.46767  1.0000
  H   H449      1.0  0.70939  0.38044  0.77813  1.0000
  H   H450      1.0  0.1678  0.81004  0.39527  1.0000
  H   H451      1.0  0.5983099999999999  0.66163  0.66421  1.0000
  H   H452      1.0  0.3033  0.45707  0.68648  1.0000
  H   H453      1.0  0.84517  0.34102  0.55727  1.0000
  H   H454      1.0  0.16054  0.12020000000000007  0.3878900000000001  1.0000
  H   H455      1.0  0.99061  0.9668  0.43238  1.0000
  H   H456      1.0  0.10613  0.45381999999999995  0.37980000000000014  1.0000
  H   H457      1.0  0.09439  0.9420500000000002  0.6190100000000001  1.0000
  H   H458      1.0  0.9120299999999998  0.22303999999999996  0.51523  1.0000
  H   H459      1.0  0.20078  0.67139  0.5350500000000001  1.0000
  H   H460      1.0  0.92526  0.3956800000000001  0.5687200000000001  1.0000
  H   H461      1.0  0.28201  0.81595  0.43775  1.0000
  H   H462      1.0  0.16574999999999995  0.79406  0.49716  1.0000
  H   H463      1.0  0.22943  0.3211800000000001  0.23974000000000006  1.0000
  H   H464      1.0  0.79483  0.56573  0.73002  1.0000
  H   H465      1.0  0.73554  0.30388  0.18823  1.0000
  H   H466      1.0  0.63802  0.52157  0.7671000000000002  1.0000
  H   H467      1.0  0.57488  0.39537000000000005  0.8264500000000001  1.0000
  H   H468      1.0  0.7995  0.13573000000000005  0.46513  1.0000
  H   H469      1.0  0.51063  0.41581  0.89388  1.0000
  H   H470      1.0  0.71829  0.37799  0.56224  1.0000
  H   H471      1.0  0.64097  0.08814000000000001  0.67508  1.0000
  H   H472      1.0  0.30331  0.31328  0.77044  1.0000
  H   H473      1.0  0.33566  0.50441  0.7074400000000002  1.0000
  H   H474      1.0  0.89375  0.5460400000000001  0.9261500000000003  1.0000
  H   H475      1.0  0.6404599999999998  0.32474  0.41357  1.0000
  H   H476      1.0  0.19581  0.65751  0.8041900000000002  1.0000
  H   H477      1.0  0.52034  0.4596000000000001  0.8826800000000002  1.0000
  H   H478      1.0  0.19618999999999995  0.14608000000000004  0.3417300000000001  1.0000
  H   H479      1.0  0.24911  0.10516  0.40726  1.0000
  H   H480      1.0  0.85185  0.6622100000000001  0.20768  1.0000
  H   H481      1.0  0.89718  0.11056  0.59282  1.0000
  H   H482      1.0  0.29816  0.8635200000000002  0.5349200000000002  1.0000
  H   H483      1.0  0.61241  0.51173  0.14487  1.0000
  H   H484      1.0  0.8344899999999997  0.4969900000000001  0.7942500000000001  1.0000
  H   H485      1.0  0.9741599999999998  0.91539  0.38741  1.0000
  H   H486      1.0  0.80362  0.77025  0.4575100000000001  1.0000
  H   H487      1.0  0.26963  0.76069  0.6797700000000002  1.0000
  H   H488      1.0  0.50872  0.46529  0.4325400000000001  1.0000
  H   H489      1.0  0.7251  0.7485700000000001  0.6303800000000003  1.0000
  H   H490      1.0  0.8653  0.93758  0.62227  1.0000
  H   H491      1.0  0.12313999999999999  0.13037  0.67455  1.0000
  H   H492      1.0  0.59888  0.0018500000000000005  0.33759  1.0000
  H   H493      1.0  0.67769  0.9683899999999999  0.32019000000000003  1.0000
  H   H494      1.0  0.22661  0.7597500000000001  0.08041000000000002  1.0000
  H   H495      1.0  0.93728  0.57977  0.53622  1.0000
  H   H496      1.0  0.10237  0.88915  0.48232  1.0000
  H   H497      1.0  0.13778  0.76695  0.24615000000000006  1.0000
  H   H498      1.0  0.6819399999999998  0.55468  0.67987  1.0000
  H   H499      1.0  0.6384  0.23228000000000007  0.7545600000000002  1.0000
  H   H500      1.0  0.13777  0.47909  0.23317  1.0000
  H   H501      1.0  0.59936  0.11629  0.71151  1.0000
  H   H502      1.0  0.20872  0.77763  0.39683  1.0000
  H   H503      1.0  0.59896  0.59481  0.8833900000000001  1.0000
  H   H504      1.0  0.37685  0.13032  0.45636  1.0000
  H   H505      1.0  0.81664  0.92147  0.59553  1.0000
  H   H506      1.0  0.48952  0.58413  0.4779800000000001  1.0000
  H   H507      1.0  0.35163  0.3382500000000001  0.7923100000000002  1.0000
  H   H508      1.0  0.97093  0.46932000000000007  0.9369300000000003  1.0000
  H   H509      1.0  0.39709  0.59301  0.48189  1.0000
  H   H510      1.0  0.87649  0.86941  0.5439300000000001  1.0000
  H   H511      1.0  0.09478  0.38162  0.32356  1.0000
  H   H512      1.0  0.69595  0.54327  0.23008  1.0000
  H   H513      1.0  0.04638  0.054570000000000125  0.5780800000000003  1.0000
  H   H514      1.0  0.68431  0.29196  0.19694000000000006  1.0000
  H   H515      1.0  0.14765999999999996  0.3837399999999999  0.11806000000000003  1.0000
  H   H516      1.0  0.23366  0.15164000000000005  0.4026200000000001  1.0000
  H   H517      1.0  0.5988499999999998  0.3358200000000001  0.9980000000000002  1.0000
  H   H518      1.0  0.6954699999999998  0.80524  0.14616000000000007  1.0000
  H   H519      1.0  0.4697  0.51205  0.52473  1.0000
  H   H520      1.0  0.78268  0.1832300000000001  0.5614200000000003  1.0000
  H   H521      1.0  0.31728  0.6808500000000001  0.5553800000000002  1.0000
  H   H522      1.0  0.86574  0.37744  0.31498  1.0000
  H   H523      1.0  0.76581  0.40152000000000004  0.15233  1.0000
  H   H524      1.0  0.64044  0.038370000000000064  0.34938000000000013  1.0000
  H   H525      1.0  0.63351  0.93697  0.3152600000000001  1.0000
  H   H526      1.0  0.52917  0.4687900000000002  0.5328200000000002  1.0000
  H   H527      1.0  0.9741799999999998  0.61238  0.52762  1.0000
  H   H528      1.0  0.97824  0.83522  0.43162  1.0000
  H   H529      1.0  0.59459  0.057750000000000024  0.38131000000000004  1.0000
  H   H530      1.0  0.7815  0.09246000000000001  0.70321  1.0000
  H   H531      1.0  0.16052  0.2678900000000001  0.8797000000000003  1.0000
  H   H532      1.0  0.3451599999999999  0.55823  0.21648000000000006  1.0000
  H   H533      1.0  0.40065  0.40459  0.2883500000000001  1.0000
  H   H534      1.0  0.69336  0.8198600000000001  0.43652000000000013  1.0000
  H   H535      1.0  0.56248  0.57971  0.04311  1.0000
  H   H536      1.0  0.8604099999999998  0.32326999999999995  0.9112  1.0000
  H   H537      1.0  0.8444199999999997  0.4425400000000001  0.7838700000000002  1.0000
  H   H538      1.0  0.3515699999999999  0.20738999999999994  0.54599  1.0000
  H   H539      1.0  0.67463  0.38586  0.31548  1.0000
  H   H540      1.0  0.30441  0.19467000000000007  0.34000000000000014  1.0000
  H   H541      1.0  0.4909200000000001  0.5345200000000001  0.9668500000000002  1.0000
  H   H542      1.0  0.63995  0.78034  0.40014000000000005  1.0000
  H   H543      1.0  0.3870999999999999  0.14436000000000004  0.5115800000000003  1.0000
  H   H544      1.0  0.53015  0.48823  0.01247  1.0000
  H   H545      1.0  0.16611  0.5037  0.2975  1.0000
  H   H546      1.0  0.91882  0.49984  0.4675900000000001  1.0000
  H   H547      1.0  0.4015  0.66448  0.66194  1.0000
  H   H548      1.0  0.96912  0.9874699999999998  0.51237  1.0000
  H   H549      1.0  0.9535699999999998  0.47662999999999994  0.42204000000000014  1.0000
  H   H550      1.0  0.3871199999999999  0.4883800000000002  0.6328500000000002  1.0000
  H   H551      1.0  0.8866599999999998  0.46875999999999995  0.38104  1.0000
  H   H552      1.0  0.30131  0.8047  0.50758  1.0000
  H   H553      1.0  0.6643599999999997  0.70706  0.50465  1.0000
  H   H554      1.0  0.7057799999999997  0.26972  0.4339800000000001  1.0000
  H   H555      1.0  0.69903  0.19482999999999992  0.70259  1.0000
  H   H556      1.0  0.1275  0.5119  0.33643  1.0000
  H   H557      1.0  0.8604099999999998  0.5874200000000002  0.6761600000000002  1.0000
  H   H558      1.0  0.6819599999999998  0.40511  0.07956  1.0000
  H   H559      1.0  0.706  0.16395000000000007  0.73009  1.0000
  H   H560      1.0  0.7201699999999998  0.29614  0.9071000000000002  1.0000
  H   H561      1.0  0.85941  0.64999  0.96113  1.0000
  H   H562      1.0  0.47103  0.93633  0.46757  1.0000
  H   H563      1.0  0.8622299999999998  0.23288000000000003  0.4794100000000001  1.0000
  H   H564      1.0  0.90322  0.5563100000000001  0.7577400000000002  1.0000
  H   H565      1.0  0.36205  0.75479  0.23291000000000003  1.0000
  H   H566      1.0  0.021599999999999994  0.16444999999999993  0.59601  1.0000
  H   H567      1.0  0.62293  0.8690700000000001  0.3256600000000001  1.0000
  H   H568      1.0  0.35891  0.4129999999999999  0.32472  1.0000
  H   H569      1.0  0.31813  0.07888000000000003  0.4048500000000001  1.0000
  H   H570      1.0  0.11312  0.381  0.4688600000000001  1.0000
  H   H571      1.0  0.1402  0.6894400000000002  0.03865000000000001  1.0000
  H   H572      1.0  0.3173899999999999  0.8745299999999999  0.31957  1.0000
  H   H573      1.0  0.74804  0.69859  0.10569  1.0000
  H   H574      1.0  0.17567999999999995  0.31665  0.92925  1.0000
  H   H575      1.0  0.8356899999999998  0.7079600000000001  0.20297000000000007  1.0000
  H   H576      1.0  0.26945  0.91819  0.23935000000000006  1.0000
  H   H577      1.0  0.6027299999999998  0.48183999999999994  0.59339  1.0000
  H   H578      1.0  0.80676  0.6159  0.4366200000000001  1.0000
  H   H579      1.0  0.29109999999999997  0.7772699999999999  0.38081  1.0000
  H   H580      1.0  0.86015  0.60074  0.21983000000000005  1.0000
  H   H581      1.0  0.83411  0.20603  0.7024  1.0000
  H   H582      1.0  0.30099  0.49204  0.2971600000000001  1.0000
  H   H583      1.0  0.5202699999999998  0.1173200000000001  0.5770400000000002  1.0000
  H   H584      1.0  0.9374199999999998  0.46352999999999994  0.04346  1.0000
  H   H585      1.0  0.7828299999999998  0.43779000000000007  0.6215300000000001  1.0000
  H   H586      1.0  0.34525  0.65799  0.4420600000000001  1.0000
  H   H587      1.0  0.59734  0.20000000000000007  0.75733  1.0000
  H   H588      1.0  0.7744699999999998  0.8822  0.63062  1.0000
  H   H589      1.0  0.72942  0.25571999999999995  0.21239  1.0000
  H   H590      1.0  0.43763999999999986  0.043089999999999996  0.57982  1.0000
  H   H591      1.0  0.8767899999999997  0.67456  0.13074  1.0000
  H   H592      1.0  0.66645  0.29696999999999996  0.7938  1.0000
  H   H593      1.0  0.29414  0.43361  0.26982  1.0000
  H   H594      1.0  0.30138  0.7029  0.19545  1.0000
  H   H595      1.0  0.32495  0.0700900000000001  0.6844100000000002  1.0000
  H   H596      1.0  0.14804  0.20740000000000008  0.6618600000000002  1.0000
  H   H597      1.0  0.61296  0.9116599999999999  0.38105000000000006  1.0000
  H   H598      1.0  0.22521999999999995  0.2513400000000001  0.3693700000000001  1.0000
  H   H599      1.0  0.37286  0.5119  0.17662  1.0000
  H   H600      1.0  0.11264  0.14436000000000013  0.6334200000000002  1.0000
  H   H601      1.0  0.53011  0.52434  0.51211  1.0000
  H   H602      1.0  0.9893099999999999  0.1057300000000001  0.5844000000000003  1.0000
  H   H603      1.0  0.80381  0.8048800000000002  0.6591400000000001  1.0000
  H   H604      1.0  0.21791  0.62175  0.43818  1.0000
  H   H605      1.0  0.387  0.3810300000000002  0.9118500000000003  1.0000
  H   H606      1.0  0.45358  0.42254000000000014  0.9453800000000002  1.0000
  H   H607      1.0  0.79491  0.27005  0.83588  1.0000
  H   H608      1.0  0.23352  0.59668  0.7484  1.0000
  H   H609      1.0  0.3252  0.6147500000000001  0.9299100000000002  1.0000
  H   H610      1.0  0.9783299999999998  0.5967  0.16504  1.0000
  H   H611      1.0  0.3943499999999999  0.4535899999999999  0.07401  1.0000
  H   H612      1.0  0.01026  0.8941  0.4785800000000001  1.0000
  H   H613      1.0  0.6231  0.6738300000000002  0.5436000000000002  1.0000
  H   H614      1.0  0.08157  0.4998  0.96772  1.0000
  H   H615      1.0  0.031  0.47551999999999994  0.48748000000000014  1.0000
  H   H616      1.0  0.31815  0.59546  0.67446  1.0000
  H   H617      1.0  0.35036  0.06730999999999998  0.72817  1.0000
  H   H618      1.0  0.3603899999999999  0.39969  0.78028  1.0000
  H   H619      1.0  0.11331  0.53111  0.9121400000000002  1.0000
  H   H620      1.0  0.19313  0.3836300000000001  0.8200600000000002  1.0000
  H   H621      1.0  0.64607  0.57936  0.80155  1.0000
  H   H622      1.0  0.6128  0.4693899999999999  0.08830000000000003  1.0000
  H   H623      1.0  0.68396  0.90536  0.70824  1.0000
  H   H624      1.0  0.45358  0.52265  0.5778400000000002  1.0000
  H   H625      1.0  0.89419  0.37893  0.45309  1.0000
  H   H626      1.0  0.11253  0.36698  0.51132  1.0000
  H   H627      1.0  0.13974  0.40016  0.61915  1.0000
  H   H628      1.0  0.47965  0.8826500000000002  0.4596700000000001  1.0000
  H   H629      1.0  0.8500599999999998  0.9317599999999999  0.2716600000000001  1.0000
  H   H630      1.0  0.08132  0.03232999999999999  0.53276  1.0000
  H   H631      1.0  0.75073  0.40634  0.10580000000000003  1.0000
  H   H632      1.0  0.88661  0.61923  0.08805000000000002  1.0000
  H   H633      1.0  0.67751  0.6791000000000001  0.6483700000000002  1.0000
  H   H634      1.0  0.83236  0.39528000000000013  0.8105000000000002  1.0000
  H   H635      1.0  0.92505  0.17308000000000004  0.6041000000000001  1.0000
  H   H636      1.0  0.91811  0.9669499999999999  0.49951  1.0000
  H   H637      1.0  0.35174  0.88281  0.61653  1.0000
  H   H638      1.0  0.1472  0.73474  0.61653  1.0000
  H   H639      1.0  0.97972  0.42361  0.88319  1.0000
  H   H640      1.0  0.2979599999999999  0.46473999999999993  0.3287000000000001  1.0000
  H   H641      1.0  0.16022999999999996  0.61149  0.7316  1.0000
  H   H642      1.0  0.32261  0.64866  0.6796200000000002  1.0000
  H   H643      1.0  0.25366  0.34892  0.5378  1.0000
  H   H644      1.0  0.7818  0.2962  0.38841000000000003  1.0000
  H   H645      1.0  0.98996  0.41568  0.5212900000000001  1.0000
  H   H646      1.0  0.8593199999999998  0.03863  0.68882  1.0000
  H   H647      1.0  0.48943  0.89356  0.41566  1.0000
  H   H648      1.0  0.14972  0.27324000000000004  0.9322100000000001  1.0000
  H   H649      1.0  0.74608  0.8112000000000001  0.4621400000000001  1.0000
  H   H650      1.0  0.5105699999999997  0.10625  0.52206  1.0000
  H   H651      1.0  0.82212  0.35075  0.32035  1.0000
  H   H652      1.0  0.74606  0.65123  0.18902000000000005  1.0000
  H   H653      1.0  0.79908  0.53523  0.67114  1.0000
  H   H654      1.0  0.20522  0.7302399999999999  0.56561  1.0000
  H   H655      1.0  0.15536999999999995  0.5578  0.34201  1.0000
  H   H656      1.0  0.2637799999999999  0.69624  0.8845000000000002  1.0000
  H   H657      1.0  0.25389  0.46225999999999995  0.8112  1.0000
  H   H658      1.0  0.83936  0.38727  0.12104000000000002  1.0000
  H   H659      1.0  0.63982  0.6195800000000001  0.21948  1.0000
  H   H660      1.0  0.8766199999999997  0.45582999999999996  0.3256  1.0000
  H   H661      1.0  0.04689  0.52307  0.94545  1.0000
  H   H662      1.0  0.59455  0.32339000000000007  0.9420000000000002  1.0000
  H   H663      1.0  0.49098999999999976  0.0330100000000001  0.5674500000000002  1.0000
  H   H664      1.0  0.33558  0.20259000000000005  0.4954600000000001  1.0000
  H   H665      1.0  0.39440999999999987  0.9258300000000002  0.37957  1.0000
  H   H666      1.0  0.9121699999999998  0.48475000000000024  0.7078400000000002  1.0000
  H   H667      1.0  0.22662  0.7437999999999999  0.78678  1.0000
  H   H668      1.0  0.23574  0.11485999999999999  0.30397  1.0000
  H   H669      1.0  0.38701  0.08783000000000006  0.4691700000000001  1.0000
  H   H670      1.0  0.20102  0.86401  0.32868  1.0000
  H   H671      1.0  0.8215  0.96958  0.6485700000000002  1.0000
  H   H672      1.0  0.8873  0.8553299999999999  0.48873  1.0000
  H   H673      1.0  0.66645  0.4947900000000001  0.7026900000000001  1.0000
  H   H674      1.0  0.20517  0.83556  0.2697600000000001  1.0000
  H   H675      1.0  0.86008  0.61889  0.40002  1.0000
  H   H676      1.0  0.40559999999999996  0.38164  0.05830000000000001  1.0000
  H   H677      1.0  0.02159  0.4317399999999999  0.83555  1.0000
  H   H678      1.0  0.4784  0.43101  0.59576  1.0000
  H   H679      1.0  0.18298  0.07864000000000008  0.6747700000000002  1.0000
  H   H680      1.0  0.42515  0.8266100000000001  0.3958500000000001  1.0000
  H   H681      1.0  0.74794  0.89473  0.59339  1.0000
  H   H682      1.0  0.32237  0.3205500000000001  0.9688500000000002  1.0000
  H   H683      1.0  0.26736  0.15200000000000016  0.7504800000000003  1.0000
  H   H684      1.0  0.53023  0.9872699999999999  0.47554000000000013  1.0000
  C   C1        1.0  0.7097799999999997  0.44881  0.60324  1.0000
  C   C2        1.0  0.06494  0.36306000000000005  0.6023000000000002  1.0000
  C   C3        1.0  0.46465  0.0779400000000001  0.5475500000000002  1.0000
  C   C4        1.0  0.18994  0.46219999999999994  0.16451  1.0000
  C   C5        1.0  0.63021  0.2483  0.449  1.0000
  C   C6        1.0  0.2904799999999999  0.60341  0.44941  1.0000
  C   C7        1.0  0.8716599999999998  0.87985  0.51919  1.0000
  C   C8        1.0  0.76944  0.72436  0.68296  1.0000
  C   C9        1.0  0.74102  0.6784  0.014350000000000003  1.0000
  C   C10       1.0  0.84228  0.33215000000000006  0.52246  1.0000
  C   C11       1.0  0.6557  0.97733  0.3823600000000001  1.0000
  C   C12       1.0  0.25795  0.30956  0.04834  1.0000
  C   C13       1.0  0.6896899999999998  0.3598500000000001  0.8456400000000002  1.0000
  C   C14       1.0  0.6349  0.59448  0.14884  1.0000
  C   C15       1.0  0.3566299999999999  0.45465  0.29361  1.0000
  C   C16       1.0  0.7068699999999998  0.31864  0.20627000000000006  1.0000
  C   C17       1.0  0.71368  0.34589  0.25686  1.0000
  C   C18       1.0  0.7642899999999998  0.48411  0.40764  1.0000
  C   C19       1.0  0.9501099999999998  0.95751  0.4996700000000001  1.0000
  C   C20       1.0  0.42029  0.39748  0.8040100000000002  1.0000
  C   C21       1.0  0.3749499999999999  0.44321  0.04502000000000001  1.0000
  C   C22       1.0  0.32784  0.6352000000000001  0.9142200000000003  1.0000
  C   C23       1.0  0.17519  0.47551999999999994  0.79822  1.0000
  C   C24       1.0  0.7355  0.48489999999999994  0.07759  1.0000
  C   C25       1.0  0.75465  0.38301999999999997  0.11795  1.0000
  C   C26       1.0  0.3749499999999999  0.60201  0.5568600000000002  1.0000
  C   C27       1.0  0.63243  0.11773999999999997  0.70628  1.0000
  C   C28       1.0  0.24275999999999995  0.69259  0.031110000000000006  1.0000
  C   C29       1.0  0.30645  0.52577  0.60252  1.0000
  C   C30       1.0  0.8715499999999998  0.48052  0.3607800000000001  1.0000
  C   C31       1.0  0.62185  0.50445  0.83694  1.0000
  C   C32       1.0  0.67332  0.6283  0.51086  1.0000
  C   C33       1.0  0.61753  0.10063000000000005  0.5393700000000001  1.0000
  C   C34       1.0  0.35754999999999987  0.4749300000000001  0.03617  1.0000
  C   C35       1.0  0.03549  0.46977  0.54719  1.0000
  C   C36       1.0  0.20725  0.11222  0.31943  1.0000
  C   C37       1.0  0.80629  0.4739  0.3974400000000001  1.0000
  C   C38       1.0  0.45058  0.4994700000000002  0.5420400000000002  1.0000
  C   C39       1.0  0.8887099999999998  0.4141400000000001  0.8691500000000002  1.0000
  C   C40       1.0  0.92067  0.36099  0.79875  1.0000
  C   C41       1.0  0.80641  0.92285  0.52555  1.0000
  C   C42       1.0  0.65829  0.18936  0.5218  1.0000
  C   C43       1.0  0.23827  0.54162  0.42215  1.0000
  C   C44       1.0  0.6174  0.46015000000000017  0.5613600000000002  1.0000
  C   C45       1.0  0.8279799999999998  0.44633000000000006  0.4131300000000001  1.0000
  C   C46       1.0  0.86503  0.55495  0.14926000000000006  1.0000
  C   C47       1.0  0.20119  0.5915  0.18935000000000005  1.0000
  C   C48       1.0  0.26271  0.15685  0.52119  1.0000
  C   C49       1.0  0.23561  0.07719  0.5926  1.0000
  C   C50       1.0  0.00841  0.5484699999999999  0.09220000000000003  1.0000
  C   C51       1.0  0.75915  0.33588  0.01453  1.0000
  C   C52       1.0  0.91279  0.42646  0.5956500000000002  1.0000
  C   C53       1.0  0.10747999999999998  0.11034000000000004  0.53656  1.0000
  C   C54       1.0  0.20103  0.59775  0.4086900000000001  1.0000
  C   C55       1.0  0.14246  0.7067  0.54496  1.0000
  C   C56       1.0  0.4354399999999999  0.39758  0.63714  1.0000
  C   C57       1.0  0.53522  0.5301000000000001  0.45251000000000013  1.0000
  C   C58       1.0  0.44484  0.59231  0.35088000000000014  1.0000
  C   C59       1.0  0.38034  0.19076  0.60403  1.0000
  C   C60       1.0  0.74435  0.5024  0.58828  1.0000
  C   C61       1.0  0.4506499999999999  0.042340000000000044  0.50047  1.0000
  C   C62       1.0  0.33269  0.0028599999999999633  0.4628  1.0000
  C   C63       1.0  0.14279  0.4552499999999999  0.1616  1.0000
  C   C64       1.0  0.24512  0.1173900000000001  0.3840000000000001  1.0000
  C   C65       1.0  0.3678999999999999  0.61965  0.602  1.0000
  C   C66       1.0  0.11738  0.5398  0.4392600000000001  1.0000
  C   C67       1.0  0.13492  0.4059200000000001  0.8513500000000003  1.0000
  C   C68       1.0  0.9043199999999998  0.19699000000000003  0.5225500000000002  1.0000
  C   C69       1.0  0.18946999999999994  0.63995  0.15525  1.0000
  C   C70       1.0  0.75896  0.98525  0.3209800000000001  1.0000
  C   C71       1.0  0.83676  0.38347000000000003  0.3334200000000001  1.0000
  C   C72       1.0  0.6958  0.64586  0.48816  1.0000
  C   C73       1.0  0.03336  0.52063  0.57862  1.0000
  C   C74       1.0  0.24204  0.39095000000000013  0.8825900000000002  1.0000
  C   C75       1.0  0.8222399999999997  0.60318  0.45591  1.0000
  C   C76       1.0  0.75586  0.031529999999999975  0.6926  1.0000
  C   C77       1.0  0.2475  0.9613199999999998  0.76689  1.0000
  C   C78       1.0  0.7379799999999997  0.45797  0.57812  1.0000
  C   C79       1.0  0.92025  0.59335  0.3978000000000001  1.0000
  C   C80       1.0  0.22621999999999995  0.91158  0.5390500000000003  1.0000
  C   C81       1.0  0.6677  0.9967299999999999  0.45926  1.0000
  C   C82       1.0  0.58771  0.40372000000000013  0.5737700000000002  1.0000
  C   C83       1.0  0.7383999999999998  0.11894999999999999  0.54065  1.0000
  C   C84       1.0  0.23258999999999994  0.38391  0.3223100000000001  1.0000
  C   C85       1.0  0.19349  0.3978000000000001  0.4748700000000001  1.0000
  C   C86       1.0  0.8701699999999998  0.5502200000000003  0.7514300000000003  1.0000
  C   C87       1.0  0.30638  0.3975  0.92313  1.0000
  C   C88       1.0  0.76241  0.11903999999999999  0.57724  1.0000
  C   C89       1.0  0.2556099999999999  0.91432  0.4117  1.0000
  C   C90       1.0  0.7356299999999998  0.592  0.5154700000000001  1.0000
  C   C91       1.0  0.17488  0.32262  0.52437  1.0000
  C   C92       1.0  0.24549999999999994  0.23493999999999998  0.04069  1.0000
  C   C93       1.0  0.04934  0.042000000000000016  0.5423  1.0000
  C   C94       1.0  0.17775  0.39634  0.85218  1.0000
  C   C95       1.0  0.64346  0.16095000000000004  0.70619  1.0000
  C   C96       1.0  0.50857  0.09243000000000003  0.5443100000000001  1.0000
  C   C97       1.0  0.92015  0.6030699999999998  0.19615  1.0000
  C   C98       1.0  0.6556699999999999  0.40516  0.022480000000000007  1.0000
  C   C99       1.0  0.93491  0.60199  0.36271  1.0000
  C   C100      1.0  0.75489  0.88182  0.26485  1.0000
  C   C101      1.0  0.8018  0.34784000000000004  0.4712000000000001  1.0000
  C   C102      1.0  0.13495  0.14833  0.55456  1.0000
  C   C103      1.0  0.17262  0.08651  0.36689  1.0000
  C   C104      1.0  0.39256  0.11097  0.57473  1.0000
  C   C105      1.0  0.1155  0.9703  0.6351700000000002  1.0000
  C   C106      1.0  0.052909999999999985  0.41664  0.57513  1.0000
  C   C107      1.0  0.74851  0.02175000000000001  0.75687  1.0000
  C   C108      1.0  0.35744  0.9635999999999999  0.43879  1.0000
  C   C109      1.0  0.17331  0.11783000000000016  0.6290400000000003  1.0000
  C   C110      1.0  0.67311  0.88172  0.3711100000000001  1.0000
  C   C111      1.0  0.46667  0.52048  0.9416100000000001  1.0000
  C   C112      1.0  0.8784899999999999  0.50474  0.66763  1.0000
  C   C113      1.0  0.6301499999999998  0.37741  0.50637  1.0000
  C   C114      1.0  0.65836  0.33236000000000004  0.8104500000000002  1.0000
  C   C115      1.0  0.8329399999999998  0.99623  0.5366800000000003  1.0000
  C   C116      1.0  0.74392  0.030940000000000006  0.33775  1.0000
  C   C117      1.0  0.9507599999999998  0.49988999999999995  0.45784  1.0000
  C   C118      1.0  0.19549  0.35359  0.51185  1.0000
  C   C119      1.0  0.29058  0.5509999999999999  0.15425  1.0000
  C   C120      1.0  0.26434  0.51579  0.5926  1.0000
  C   C121      1.0  0.85748  0.5449500000000002  0.7064100000000002  1.0000
  C   C122      1.0  0.8280999999999997  0.9661800000000001  0.5529100000000002  1.0000
  C   C123      1.0  0.15794  0.80994  0.4776300000000001  1.0000
  C   C124      1.0  0.8926299999999998  0.53673  0.11136  1.0000
  C   C125      1.0  0.26216  0.8801400000000001  0.4219700000000001  1.0000
  C   C126      1.0  0.9665199999999998  0.57861  0.52017  1.0000
  C   C127      1.0  0.7505  0.03982999999999997  0.80569  1.0000
  C   C128      1.0  0.6673  0.46281999999999995  0.00328  1.0000
  C   C129      1.0  0.42038  0.40614  0.60219  1.0000
  C   C130      1.0  0.14238  0.9640499999999999  0.5256600000000002  1.0000
  C   C131      1.0  0.24494999999999995  0.61559  0.7330900000000002  1.0000
  C   C132      1.0  0.91254  0.40434000000000014  0.8312200000000002  1.0000
  C   C133      1.0  0.38038  0.3957  0.5865800000000002  1.0000
  C   C134      1.0  0.75069  0.2437  0.26375  1.0000
  C   C135      1.0  0.79022  0.4495000000000001  0.8466100000000002  1.0000
  C   C136      1.0  0.71354  0.9114700000000001  0.6545000000000002  1.0000
  C   C137      1.0  0.32212  0.39627  0.54443  1.0000
  C   C138      1.0  0.73329  0.32194  0.93852  1.0000
  C   C139      1.0  0.33742  0.050130000000000036  0.38416000000000006  1.0000
  C   C140      1.0  0.15588  0.022180000000000123  0.6176500000000003  1.0000
  C   C141      1.0  0.42053  0.63938  0.20202000000000006  1.0000
  C   C142      1.0  0.7596999999999998  0.047670000000000004  0.73835  1.0000
  C   C143      1.0  0.82667  0.88197  0.51088  1.0000
  C   C144      1.0  0.6989099999999999  0.34817  0.87745  1.0000
  C   C145      1.0  0.8803  0.60366  0.41349000000000014  1.0000
  C   C146      1.0  0.63201  0.29351  0.41187  1.0000
  C   C147      1.0  0.83668  0.66635  0.05025000000000002  1.0000
  C   C148      1.0  0.62521  0.3981500000000001  0.95518  1.0000
  C   C149      1.0  0.76279  0.8424499999999998  0.47871  1.0000
  C   C150      1.0  0.38473  0.6647300000000002  0.6346500000000003  1.0000
  C   C151      1.0  0.25908  0.6640000000000001  0.9858400000000003  1.0000
  C   C152      1.0  0.67181  0.44714  0.03387  1.0000
  C   C153      1.0  0.8247699999999998  0.79816  0.47557  1.0000
  C   C154      1.0  0.35687999999999986  0.83864  0.5450700000000002  1.0000
  C   C155      1.0  0.13121999999999995  0.8813400000000001  0.2929100000000001  1.0000
  C   C156      1.0  0.94692  0.84103  0.42507  1.0000
  C   C157      1.0  0.24358  0.33873  0.3072800000000001  1.0000
  C   C158      1.0  0.32462  0.47521  0.67689  1.0000
  C   C159      1.0  0.24206999999999995  0.11691000000000003  0.5084900000000001  1.0000
  C   C160      1.0  0.12816  0.3608600000000001  0.4808100000000001  1.0000
  C   C161      1.0  0.32463  0.32292  0.7981700000000003  1.0000
  C   C162      1.0  0.2384  0.5782  0.11974000000000003  1.0000
  C   C163      1.0  0.3095  0.4618399999999999  0.29782  1.0000
  C   C164      1.0  0.1284  0.51935  0.8801  1.0000
  C   C165      1.0  0.05513999999999999  0.5930100000000001  0.24144000000000004  1.0000
  C   C166      1.0  0.36785  0.9821899999999999  0.38057  1.0000
  C   C167      1.0  0.56515  0.56629  0.11730000000000003  1.0000
  C   C168      1.0  0.7555  0.41129  0.49706  1.0000
  C   C169      1.0  0.25764  0.39123  0.50903  1.0000
  C   C170      1.0  0.81066  0.16387  0.4623  1.0000
  C   C171      1.0  0.26261  0.47925999999999996  0.63633  1.0000
  C   C172      1.0  0.38471  0.9698399999999999  0.3355  1.0000
  C   C173      1.0  0.32220999999999994  0.45568000000000014  0.8519100000000002  1.0000
  C   C174      1.0  0.37173  0.11978000000000008  0.48098000000000013  1.0000
  C   C175      1.0  0.81083  0.15464000000000008  0.6394900000000002  1.0000
  C   C176      1.0  0.5963399999999998  0.3251  0.52284  1.0000
  C   C177      1.0  0.302  0.47175  0.12370000000000003  1.0000
  C   C178      1.0  0.30645  0.07653  0.47448  1.0000
  C   C179      1.0  0.69033  0.29766  0.46216  1.0000
  C   C180      1.0  0.12507  0.95516  0.55739  1.0000
  C   C181      1.0  0.17207  0.033540000000000084  0.5870500000000001  1.0000
  C   C182      1.0  0.5085399999999998  0.45185999999999993  0.9076100000000001  1.0000
  C   C183      1.0  0.58745  0.42614  0.83043  1.0000
  C   C184      1.0  0.12524  0.60225  0.045  1.0000
  C   C185      1.0  0.32669  0.11746000000000008  0.4891000000000001  1.0000
  C   C186      1.0  0.24522  0.2667400000000001  0.8829700000000003  1.0000
  C   C187      1.0  0.25601  0.9681400000000001  0.3072100000000001  1.0000
  C   C188      1.0  0.25772  0.11764000000000009  0.6088600000000002  1.0000
  C   C189      1.0  0.6748999999999998  0.7977199999999999  0.32287  1.0000
  C   C190      1.0  0.42029  0.19596999999999995  0.59353  1.0000
  C   C191      1.0  0.69534  0.51217  0.15857  1.0000
  C   C192      1.0  0.2860299999999999  0.25699  0.34547  1.0000
  C   C193      1.0  0.82459  0.52433  0.3230200000000001  1.0000
  C   C194      1.0  0.9644399999999997  0.92203  0.45268  1.0000
  C   C195      1.0  0.6279299999999998  0.4812199999999999  0.12034000000000003  1.0000
  C   C196      1.0  0.2858099999999999  0.6544500000000002  0.9112400000000003  1.0000
  C   C197      1.0  0.24764  0.9782799999999999  0.24322000000000005  1.0000
  C   C198      1.0  0.25883  0.32186  0.33598  1.0000
  C   C199      1.0  0.24586  0.26539  0.02231  1.0000
  C   C200      1.0  0.5961699999999998  0.19685  0.6746  1.0000
  C   C201      1.0  0.5493499999999998  0.50055  0.04227  1.0000
  C   C202      1.0  0.53304  0.47920000000000007  0.4212800000000001  1.0000
  C   C203      1.0  0.74438  0.30698000000000014  0.9687100000000002  1.0000
  C   C204      1.0  0.26236  0.5782399999999999  0.45857  1.0000
  C   C205      1.0  0.49133999999999994  0.54426  0.09226000000000002  1.0000
  C   C206      1.0  0.74061  0.33613  0.3217200000000001  1.0000
  C   C207      1.0  0.7856999999999997  0.34577  0.08937000000000003  1.0000
  C   C208      1.0  0.21007  0.55074  0.39705  1.0000
  C   C209      1.0  0.2686099999999999  0.6835200000000001  0.9581900000000002  1.0000
  C   C210      1.0  0.69352  0.60199  0.52548  1.0000
  C   C211      1.0  0.3277599999999999  0.27959000000000006  0.3655000000000001  1.0000
  C   C212      1.0  0.17202  0.41376  0.4473800000000001  1.0000
  C   C213      1.0  0.88298  0.43868  0.53935  1.0000
  C   C214      1.0  0.74436  0.7341  0.11786  1.0000
  C   C215      1.0  0.39254  0.42519999999999997  0.53626  1.0000
  C   C216      1.0  0.36508  0.4454500000000001  0.8510700000000002  1.0000
  C   C217      1.0  0.8419099999999998  0.4772900000000002  0.8100200000000002  1.0000
  C   C218      1.0  0.22642999999999994  0.46131000000000005  0.3729300000000001  1.0000
  C   C219      1.0  0.53333  0.57877  0.05825000000000002  1.0000
  C   C220      1.0  0.74211  0.60922  0.11775000000000002  1.0000
  C   C221      1.0  0.23995  0.30917  0.26155  1.0000
  C   C222      1.0  0.56524  0.5504199999999999  0.43366  1.0000
  C   C223      1.0  0.08752  0.59575  0.42644  1.0000
  C   C224      1.0  0.87033  0.24837999999999996  0.7986  1.0000
  C   C225      1.0  0.25632  0.49733  0.08543  1.0000
  C   C226      1.0  0.67168  0.91358  0.63443  1.0000
  C   C227      1.0  0.26739  0.93778  0.32187  1.0000
  C   C228      1.0  0.37002  0.6225  0.12895  1.0000
  C   C229      1.0  0.62528  0.044630000000000045  0.4426500000000001  1.0000
  C   C230      1.0  0.81056  0.29807999999999996  0.83603  1.0000
  C   C231      1.0  0.0797  0.40669  0.80435  1.0000
  C   C232      1.0  0.79043  0.39643  0.55052  1.0000
  C   C233      1.0  0.7306  0.31670000000000004  0.2746500000000001  1.0000
  C   C234      1.0  0.85788  0.03536999999999998  0.56062  1.0000
  C   C235      1.0  0.23812999999999995  0.88029  0.45864  1.0000
  C   C236      1.0  0.43475999999999987  0.36221  0.76029  1.0000
  C   C237      1.0  0.37173  0.36088  0.87987  1.0000
  C   C238      1.0  0.6323499999999997  0.017030000000000003  0.39757  1.0000
  C   C239      1.0  0.86499  0.8509100000000002  0.40566000000000013  1.0000
  C   C240      1.0  0.2343  0.02279  0.2717  1.0000
  C   C241      1.0  0.7626999999999998  0.6365  0.15772  1.0000
  C   C242      1.0  0.68891  0.48442999999999997  0.6398700000000003  1.0000
  C   C243      1.0  0.00835  0.90779  0.45622  1.0000
  C   C244      1.0  0.12158999999999998  0.83711  0.3324300000000001  1.0000
  C   C245      1.0  0.8439999999999998  0.97783  0.59501  1.0000
  C   C246      1.0  0.3886  0.58597  0.13185  1.0000
  C   C247      1.0  0.76684  0.6163500000000001  0.9381500000000003  1.0000
  C   C248      1.0  0.00862  0.54379  0.45157  1.0000
  C   C249      1.0  0.25571  0.1178100000000001  0.7345100000000002  1.0000
  C   C250      1.0  0.13115  0.70729  0.58845  1.0000
  C   C251      1.0  0.12983  0.44984  0.20123  1.0000
  C   C252      1.0  0.9665199999999998  0.47975  0.05861  1.0000
  C   C253      1.0  0.23778999999999995  0.73811  0.046750000000000014  1.0000
  C   C254      1.0  0.23035  0.68278  0.7247400000000003  1.0000
  C   C255      1.0  0.11580999999999997  0.36557  0.3358000000000001  1.0000
  C   C256      1.0  0.5652299999999998  0.60184  0.23961000000000005  1.0000
  C   C257      1.0  0.6987599999999998  0.12235000000000008  0.4704300000000001  1.0000
  C   C258      1.0  0.27399  0.62777  0.5388600000000002  1.0000
  C   C259      1.0  0.16321999999999995  0.3341299999999999  0.3843300000000001  1.0000
  C   C260      1.0  0.80407  0.51138  0.35371  1.0000
  C   C261      1.0  0.15601  0.59541  0.97793  1.0000
  C   C262      1.0  0.7368899999999998  0.52154  0.15790000000000007  1.0000
  C   C263      1.0  0.67537  0.67664  0.4753000000000001  1.0000
  C   C264      1.0  0.11159  0.5860100000000001  0.4543600000000001  1.0000
  C   C265      1.0  0.8326699999999998  0.4622700000000001  0.4594100000000001  1.0000
  C   C266      1.0  0.8750499999999998  0.04449999999999999  0.60139  1.0000
  C   C267      1.0  0.46463  0.4695900000000001  0.9220500000000003  1.0000
  C   C268      1.0  0.06496  0.23933999999999997  0.63718  1.0000
  C   C269      1.0  0.34441  0.021849999999999987  0.40496  1.0000
  C   C270      1.0  0.38037  0.4132000000000001  0.8092300000000002  1.0000
  C   C271      1.0  0.74065  0.04698000000000007  0.3080600000000001  1.0000
  C   C272      1.0  0.25577  0.58865  0.50305  1.0000
  C   C273      1.0  0.2931299999999999  0.11208  0.79382  1.0000
  C   C274      1.0  0.79952  0.40816000000000013  0.5975500000000002  1.0000
  C   C275      1.0  0.53339  0.94159  0.52042  1.0000
  C   C276      1.0  0.17504  0.20177000000000006  0.6773300000000001  1.0000
  C   C277      1.0  0.4348  0.11731000000000005  0.56628  1.0000
  C   C278      1.0  0.29923  0.59176  0.4023100000000001  1.0000
  C   C279      1.0  0.34213  0.5232799999999999  0.19099000000000005  1.0000
  C   C280      1.0  0.73439  0.9775  0.7289600000000003  1.0000
  C   C281      1.0  0.10734  0.4255  0.88927  1.0000
  C   C282      1.0  0.64281  0.03594000000000006  0.4743700000000001  1.0000
  C   C283      1.0  0.17317  0.37128999999999995  0.48918  1.0000
  C   C284      1.0  0.44704  0.42456  0.5835400000000002  1.0000
  C   C285      1.0  0.57977  0.5935  0.19594000000000006  1.0000
  C   C286      1.0  0.63045  0.20018  0.75146  1.0000
  C   C287      1.0  0.19561  0.15819  0.64655  1.0000
  C   C288      1.0  0.7312  0.61593  0.67732  1.0000
  C   C289      1.0  0.5795  0.4372  0.7980600000000002  1.0000
  C   C290      1.0  0.7139099999999999  0.74306  0.08903000000000003  1.0000
  C   C291      1.0  0.06519  0.44928000000000007  0.5661200000000002  1.0000
  C   C292      1.0  0.17246  0.6327300000000002  0.7192700000000002  1.0000
  C   C293      1.0  0.19578  0.48839  0.84182  1.0000
  C   C294      1.0  0.28613  0.08881999999999997  0.74328  1.0000
  C   C295      1.0  0.71017  0.39668000000000003  0.8467300000000002  1.0000
  C   C296      1.0  0.14254  0.83849  0.29357  1.0000
  C   C297      1.0  0.76738  0.061600000000000016  0.6776  1.0000
  C   C298      1.0  0.86735  0.6018000000000001  0.9825200000000002  1.0000
  C   C299      1.0  0.3445199999999999  0.59526  0.6173100000000002  1.0000
  C   C300      1.0  0.07939  0.56257  0.20164000000000007  1.0000
  C   C301      1.0  0.78578  0.91043  0.25606  1.0000
  C   C302      1.0  0.20984  0.8461299999999999  0.4496100000000001  1.0000
  C   C303      1.0  0.7859299999999998  0.74244  0.6538  1.0000
  C   C304      1.0  0.26263  0.54182  0.11978000000000003  1.0000
  C   C305      1.0  0.80427  0.8416699999999999  0.48816  1.0000
  C   C306      1.0  0.11728999999999998  0.56153  0.10083  1.0000
  C   C307      1.0  0.79285  0.7930099999999999  0.68121  1.0000
  C   C308      1.0  0.74488  0.08452  0.49621  1.0000
  C   C309      1.0  0.4667199999999999  0.42107  0.4795100000000001  1.0000
  C   C310      1.0  0.2342  0.72802  0.75169  1.0000
  C   C311      1.0  0.84412  0.4043600000000001  0.3824800000000001  1.0000
  C   C312      1.0  0.53542  0.9218699999999999  0.4694800000000001  1.0000
  C   C313      1.0  0.88026  0.8091300000000001  0.3961300000000001  1.0000
  C   C314      1.0  0.17247999999999994  0.28053000000000006  0.91344  1.0000
  C   C315      1.0  0.18924999999999995  0.8451300000000002  0.4853400000000001  1.0000
  C   C316      1.0  0.6073599999999998  0.57478  0.11091  1.0000
  C   C317      1.0  0.46463  0.45239  0.53044  1.0000
  C   C318      1.0  0.8688899999999998  0.29232000000000014  0.8812700000000002  1.0000
  C   C319      1.0  0.77373  0.08833999999999996  0.62683  1.0000
  C   C320      1.0  0.77385  0.37227  0.4611200000000001  1.0000
  C   C321      1.0  0.63232  0.38064  0.9827500000000002  1.0000
  C   C322      1.0  0.15808  0.6671099999999999  0.19048000000000007  1.0000
  C   C323      1.0  0.16743  0.46008  0.46332  1.0000
  C   C324      1.0  0.73698  0.84207  0.36373  1.0000
  C   C325      1.0  0.85744  0.5251800000000001  0.9646100000000002  1.0000
  C   C326      1.0  0.16742  0.0031100000000000064  0.54077  1.0000
  C   C327      1.0  0.1721  0.55341  0.9665100000000002  1.0000
  C   C328      1.0  0.89256  0.57384  0.46350000000000013  1.0000
  C   C329      1.0  0.82659  0.6291699999999999  0.11816000000000003  1.0000
  C   C330      1.0  0.32818999999999987  0.55334  0.5867800000000002  1.0000
  C   C331      1.0  0.7658399999999997  0.27111  0.02311  1.0000
  C   C332      1.0  0.09565  0.67454  0.47715000000000013  1.0000
  C   C333      1.0  0.62999  0.4934900000000001  0.8712900000000002  1.0000
  C   C334      1.0  0.92065  0.2014900000000001  0.5623600000000002  1.0000
  C   C335      1.0  0.75416  0.19519  0.23276000000000005  1.0000
  C   C336      1.0  0.8273299999999998  0.36631999999999987  0.08731000000000003  1.0000
  C   C337      1.0  0.23288  0.24925000000000005  0.9776800000000002  1.0000
  C   C338      1.0  0.87873  0.33223  0.83759  1.0000
  C   C339      1.0  0.67479  0.52509  0.20221000000000006  1.0000
  C   C340      1.0  0.10741999999999997  0.46415000000000006  0.5746200000000002  1.0000
  C   C341      1.0  0.2409  0.013829999999999986  0.33638  1.0000
  C   C342      1.0  0.3374399999999999  0.33369000000000015  0.9494700000000003  1.0000
  C   C343      1.0  0.54926  0.54166  0.49958  1.0000
  C   C344      1.0  0.8687899999999997  0.58849  0.70715  1.0000
  C   C345      1.0  0.31094  0.6403500000000001  0.4850800000000001  1.0000
  C   C346      1.0  0.95016  0.54196  0.042440000000000005  1.0000
  C   C347      1.0  0.7926999999999997  0.31839  0.11251000000000003  1.0000
  C   C348      1.0  0.20707  0.2072900000000001  0.8879100000000002  1.0000
  C   C349      1.0  0.29306  0.20648  0.31805  1.0000
  C   C350      1.0  0.62805  0.8796  0.36083  1.0000
  C   C351      1.0  0.11149999999999997  0.8684299999999999  0.4143000000000001  1.0000
  C   C352      1.0  0.32668  0.37128000000000005  0.8821800000000002  1.0000
  C   C353      1.0  0.79943  0.40247000000000016  0.8113700000000003  1.0000
  C   C354      1.0  0.80113  0.5287400000000002  0.8767500000000003  1.0000
  C   C355      1.0  0.21403  0.65303  0.74218  1.0000
  C   C356      1.0  0.7307  0.72537  0.04195  1.0000
  C   C357      1.0  0.19363  0.07694999999999998  0.60276  1.0000
  C   C358      1.0  0.4038499999999999  0.5222499999999999  0.32523000000000013  1.0000
  C   C359      1.0  0.16742  0.5375300000000001  0.9969100000000002  1.0000
  C   C360      1.0  0.63002  0.5505399999999999  0.79923  1.0000
  C   C361      1.0  0.41255  0.57311  0.40391  1.0000
  C   C362      1.0  0.34211999999999987  0.8092700000000002  0.33244  1.0000
  C   C363      1.0  0.18952  0.51505  0.36024  1.0000
  C   C364      1.0  0.12176999999999998  0.49547  0.16307  1.0000
  C   C365      1.0  0.73604  0.27164  0.24769  1.0000
  C   C366      1.0  0.33271  0.45965999999999996  0.9969400000000002  1.0000
  C   C367      1.0  0.09585  0.5229  0.19731000000000007  1.0000
  C   C368      1.0  0.7013599999999998  0.18872000000000008  0.5967500000000002  1.0000
  C   C369      1.0  0.8886499999999998  0.4541  0.58567  1.0000
  C   C370      1.0  0.5798699999999998  0.60161  0.4061300000000001  1.0000
  C   C371      1.0  0.6197999999999998  0.8091200000000001  0.4135200000000001  1.0000
  C   C372      1.0  0.73732  0.63567  0.4788100000000001  1.0000
  C   C373      1.0  0.93466  0.7603599999999999  0.3984800000000001  1.0000
  C   C374      1.0  0.8924799999999998  0.88886  0.4254100000000001  1.0000
  C   C375      1.0  0.17344  0.51119  0.88219  1.0000
  C   C376      1.0  0.76939  0.9576800000000001  0.2740100000000001  1.0000
  C   C377      1.0  0.63502  0.8510200000000002  0.4457100000000001  1.0000
  C   C378      1.0  0.6905899999999998  0.16400999999999993  0.70205  1.0000
  C   C379      1.0  0.42054  0.56197  0.3604400000000001  1.0000
  C   C380      1.0  0.3575299999999999  0.56141  0.52522  1.0000
  C   C381      1.0  0.25865  0.014460000000000105  0.6786700000000002  1.0000
  C   C382      1.0  0.23569999999999994  0.5154200000000001  0.9228600000000002  1.0000
  C   C383      1.0  0.93487  0.55142  0.11757  1.0000
  C   C384      1.0  0.38858  0.86828  0.4544700000000001  1.0000
  C   C385      1.0  0.60741  0.53549  0.42520000000000013  1.0000
  C   C386      1.0  0.75791  0.60846  0.4915500000000001  1.0000
  C   C387      1.0  0.94487  0.40709  0.6485  1.0000
  C   C388      1.0  0.11721  0.89938  0.46066  1.0000
  C   C389      1.0  0.61521  0.63444  0.6645  1.0000
  C   C390      1.0  0.19844  0.6518199999999998  0.1235  1.0000
  C   C391      1.0  0.17783  0.14738  0.54421  1.0000
  C   C392      1.0  0.05504  0.75854  0.35153  1.0000
  C   C393      1.0  0.31109  0.5153499999999999  0.15549000000000004  1.0000
  C   C394      1.0  0.44703  0.4160400000000002  0.8410900000000002  1.0000
  C   C395      1.0  0.67196  0.96604  0.41296  1.0000
  C   C396      1.0  0.7695499999999997  0.31644  0.04199000000000001  1.0000
  C   C397      1.0  0.88897  0.13098  0.54515  1.0000
  C   C398      1.0  0.37006  0.75159  0.20077  1.0000
  C   C399      1.0  0.8221  0.8516399999999998  0.39622  1.0000
  C   C400      1.0  0.4506  0.4582800000000002  0.9577400000000003  1.0000
  C   C401      1.0  0.07965  0.3980800000000001  0.5936100000000002  1.0000
  C   C402      1.0  0.12156  0.66789  0.50468  1.0000
  C   C403      1.0  0.035369999999999985  0.07746999999999994  0.5307  1.0000
  C   C404      1.0  0.6625799999999997  0.66597  0.6157900000000002  1.0000
  C   C405      1.0  0.61552  0.33556  0.97038  1.0000
  C   C406      1.0  0.2355  0.4079  0.48526  1.0000
  C   C407      1.0  0.67177  0.58629  0.5530600000000002  1.0000
  C   C408      1.0  0.67787  0.54367  0.39657  1.0000
  C   C409      1.0  0.8676999999999998  0.37998  0.39761000000000013  1.0000
  C   C410      1.0  0.30992  0.70219  0.16455000000000006  1.0000
  C   C411      1.0  0.87887  0.16239000000000003  0.49471  1.0000
  C   C412      1.0  0.05511999999999999  0.6484799999999998  0.4068900000000001  1.0000
  C   C413      1.0  0.09547  0.8029  0.3255900000000001  1.0000
  C   C414      1.0  0.43486  0.2397  0.60219  1.0000
  C   C415      1.0  0.23215999999999995  0.93869  0.6165900000000001  1.0000
  C   C416      1.0  0.33272  0.53747  0.54049  1.0000
  C   C417      1.0  0.7448  0.4120100000000001  0.9154200000000002  1.0000
  C   C418      1.0  0.04995  0.45832  0.50027  1.0000
  C   C419      1.0  0.13493  0.44577  0.5941400000000002  1.0000
  C   C420      1.0  0.37812  0.83691  0.50483  1.0000
  C   C421      1.0  0.24786  0.7564300000000002  0.7357600000000002  1.0000
  C   C422      1.0  0.26271  0.72849  0.9763100000000002  1.0000
  C   C423      1.0  0.83639  0.94985  0.616  1.0000
  C   C424      1.0  0.4206099999999999  0.7981300000000001  0.4376600000000001  1.0000
  C   C425      1.0  0.0873  0.8307700000000002  0.40433000000000013  1.0000
  C   C426      1.0  0.13032999999999995  0.6226400000000001  0.4936300000000001  1.0000
  C   C427      1.0  0.24471  0.49718  0.41201  1.0000
  C   C428      1.0  0.27383  0.91091  0.3725  1.0000
  C   C429      1.0  0.25543  0.26564  0.38306  1.0000
  C   C430      1.0  0.75185  0.7345300000000001  0.7563700000000002  1.0000
  C   C431      1.0  0.40398  0.6746999999999999  0.19768  1.0000
  C   C432      1.0  0.12829  0.11991999999999996  0.63941  1.0000
  C   C433      1.0  0.26925  0.04179000000000009  0.7255400000000002  1.0000
  C   C434      1.0  0.3281  0.41335000000000005  0.9665100000000002  1.0000
  C   C435      1.0  0.63206  0.6017400000000002  0.6194400000000001  1.0000
  C   C436      1.0  0.16326  0.6162800000000003  0.9497400000000003  1.0000
  C   C437      1.0  0.23698  0.3638200000000001  0.5214600000000003  1.0000
  C   C438      1.0  0.76784  0.322  0.38339  1.0000
  C   C439      1.0  0.9915199999999998  0.45628000000000013  0.9081000000000002  1.0000
  C   C440      1.0  0.08753  0.57373  0.16935  1.0000
  C   C441      1.0  0.8827399999999997  0.4603900000000002  0.9000700000000003  1.0000
  C   C442      1.0  0.7442599999999998  0.8827800000000001  0.61691  1.0000
  C   C443      1.0  0.553  0.57495  0.15890000000000007  1.0000
  C   C444      1.0  0.7576699999999997  0.5089099999999999  0.11804000000000002  1.0000
  C   C445      1.0  0.3827199999999999  0.5397  0.1008  1.0000
  C   C446      1.0  0.7612299999999997  0.26191  0.30834  1.0000
  C   C447      1.0  0.3826699999999999  0.8991900000000003  0.4391200000000001  1.0000
  C   C448      1.0  0.65553  0.61691  0.5949900000000002  1.0000
  C   C449      1.0  0.70702  0.7936100000000001  0.11248000000000002  1.0000
  C   C450      1.0  0.36958  0.50603  0.37756000000000006  1.0000
  C   C451      1.0  0.06519  0.11680000000000011  0.5512000000000002  1.0000
  C   C452      1.0  0.26435  0.07652000000000003  0.48454000000000014  1.0000
  C   C453      1.0  0.61726  0.43879  0.89933  1.0000
  C   C454      1.0  0.2902499999999999  0.8457899999999999  0.39673000000000014  1.0000
  C   C455      1.0  0.24097999999999994  0.66367  0.6778600000000002  1.0000
  C   C456      1.0  0.67298  0.48946  0.11822000000000003  1.0000
  C   C457      1.0  0.24314  0.96896  0.66182  1.0000
  C   C458      1.0  0.70688  0.8883000000000002  0.6818900000000002  1.0000
  C   C459      1.0  0.7299099999999997  0.9587500000000002  0.6837000000000002  1.0000
  C   C460      1.0  0.052909999999999985  0.15854  0.58371  1.0000
  C   C461      1.0  0.7625499999999997  0.52072  0.36395  1.0000
  C   C462      1.0  0.12965  0.7516900000000001  0.55027  1.0000
  C   C463      1.0  0.22627  0.6274499999999998  0.08880000000000003  1.0000
  C   C464      1.0  0.87093  0.12765  0.50525  1.0000
  C   C465      1.0  0.86987  0.49345000000000017  0.6222600000000003  1.0000
  C   C466      1.0  0.88457  0.33499000000000007  0.36481000000000013  1.0000
  C   C467      1.0  0.8803  0.5872499999999999  0.19102  1.0000
  C   C468      1.0  0.03365  0.05804000000000004  0.4798100000000001  1.0000
  C   C469      1.0  0.24892  0.8051999999999999  0.76655  1.0000
  C   C470      1.0  0.96451  0.5306300000000002  0.07802000000000003  1.0000
  C   C471      1.0  0.13248  0.61983  0.017540000000000007  1.0000
  C   C472      1.0  0.36981  0.79947  0.55114  1.0000
  C   C473      1.0  0.03539999999999999  0.45286000000000015  0.9224800000000002  1.0000
  C   C474      1.0  0.9346699999999998  0.63843  0.23981000000000005  1.0000
  C   C475      1.0  0.8745899999999998  0.5567100000000001  0.9553500000000003  1.0000
  C   C476      1.0  0.53531  0.54757  0.07795  1.0000
  C   C477      1.0  0.75243  0.76744  0.96216  1.0000
  C   C478      1.0  0.57948  0.2013  0.63936  1.0000
  C   C479      1.0  0.06481  0.39777  0.7606400000000002  1.0000
  C   C480      1.0  0.30421  0.15773000000000006  0.5118400000000002  1.0000
  C   C481      1.0  0.75512  0.7337999999999999  0.61639  1.0000
  C   C482      1.0  0.37492  0.9547399999999999  0.39821  1.0000
  C   C483      1.0  0.26502  0.24837999999999996  0.27105  1.0000
  C   C484      1.0  0.75087  0.03886000000000003  0.23290000000000005  1.0000
  C   C485      1.0  0.36804  0.70633  0.11826000000000003  1.0000
  C   C486      1.0  0.20069  0.81078  0.4026  1.0000
  C   C487      1.0  0.32216  0.14806000000000005  0.6037  1.0000
  C   C488      1.0  0.7554  0.50311  0.91506  1.0000
  C   C489      1.0  0.54944  0.9574699999999999  0.4580400000000001  1.0000
  C   C490      1.0  0.34439  0.38280000000000014  0.9778600000000002  1.0000
  C   C491      1.0  0.9449399999999998  0.2413900000000001  0.5928100000000002  1.0000
  C   C492      1.0  0.69544  0.84136  0.35359  1.0000
  C   C493      1.0  0.8105  0.48516000000000004  0.8451800000000003  1.0000
  C   C494      1.0  0.8276399999999998  0.7198899999999999  0.63354  1.0000
  C   C495      1.0  0.2676  0.6783  0.61644  1.0000
  C   C496      1.0  0.07966999999999998  0.19556999999999994  0.60218  1.0000
  C   C497      1.0  0.26938  0.27493  0.31632000000000005  1.0000
  C   C498      1.0  0.15598  0.3832  0.4053200000000001  1.0000
  C   C499      1.0  0.84393  0.61728  0.02222  1.0000
  C   C500      1.0  0.14254  0.56167  0.03612  1.0000
  C   C501      1.0  0.62225  0.16262  0.66759  1.0000
  C   C502      1.0  0.9916799999999999  0.45177000000000006  0.54357  1.0000
  C   C503      1.0  0.25612  0.69283  0.66146  1.0000
  C   C504      1.0  0.96644  0.94148  0.4212800000000001  1.0000
  C   C505      1.0  0.8749899999999998  0.3976499999999999  0.44269  1.0000
  C   C506      1.0  0.90437  0.32556000000000007  0.8031300000000001  1.0000
  C   C507      1.0  0.07934999999999998  0.6391  0.43735000000000007  1.0000
  C   C508      1.0  0.25925  0.7384900000000001  0.6914000000000002  1.0000
  C   C509      1.0  0.16307  0.05035  0.66673  1.0000
  C   C510      1.0  0.87037  0.37754  0.87226  1.0000
  C   C511      1.0  0.23048999999999994  0.04142000000000001  0.31703  1.0000
  C   C512      1.0  0.0529  0.42524  0.84139  1.0000
  C   C513      1.0  0.96472  0.54695  0.46931000000000006  1.0000
  C   C514      1.0  0.75192  0.19405000000000008  0.9602300000000001  1.0000
  C   C515      1.0  0.32788  0.08607  0.72059  1.0000
  C   C516      1.0  0.70125  0.40805000000000013  0.8111600000000002  1.0000
  C   C517      1.0  0.49141  0.54804  0.4557600000000001  1.0000
  C   C518      1.0  0.6349899999999998  0.55384  0.40567  1.0000
  C   C519      1.0  0.8576399999999997  0.29331  0.83859  1.0000
  C   C520      1.0  0.7556999999999998  0.08488999999999995  0.58755  1.0000
  C   C521      1.0  0.37779999999999997  0.49497  0.3321900000000001  1.0000
  C   C522      1.0  0.32458  0.20144  0.52477  1.0000
  C   C523      1.0  0.44485  0.64904  0.24182000000000006  1.0000
  C   C524      1.0  0.24469  0.9145299999999998  0.50312  1.0000
  C   C525      1.0  0.67181  0.36561  0.27932  1.0000
  C   C526      1.0  0.60748  0.88895  0.4638100000000001  1.0000
  C   C527      1.0  0.6777499999999997  0.604  0.14807000000000006  1.0000
  C   C528      1.0  0.63203  0.58808  0.8817300000000002  1.0000
  C   C529      1.0  0.64322  0.29354  0.4550700000000001  1.0000
  C   C530      1.0  0.25006  0.97916  0.73602  1.0000
  C   C531      1.0  0.24806999999999998  0.9601799999999999  0.19438  1.0000
  C   C532      1.0  0.19373  0.5258100000000001  0.9230900000000001  1.0000
  C   C533      1.0  0.7621  0.45862000000000014  0.8809300000000002  1.0000
  C   C534      1.0  0.6117799999999998  0.13131000000000004  0.5857700000000001  1.0000
  C   C535      1.0  0.77339  0.5389199999999998  0.9115  1.0000
  C   C536      1.0  0.90447  0.47736999999999996  0.67446  1.0000
  C   C537      1.0  0.6115699999999997  0.41385  0.54595  1.0000
  C   C538      1.0  0.24201  0.49197  0.60912  1.0000
  C   C539      1.0  0.7441  0.38372  0.26586  1.0000
  C   C540      1.0  0.37818  0.6678099999999999  0.16331  1.0000
  C   C541      1.0  0.25788  0.49133999999999994  0.88242  1.0000
  C   C542      1.0  0.9125499999999998  0.16906000000000013  0.5732900000000002  1.0000
  C   C543      1.0  0.35706  0.70634  0.16154  1.0000
  C   C544      1.0  0.06511999999999997  0.4340600000000001  0.8830100000000002  1.0000
  C   C545      1.0  0.6779  0.8519  0.45591  1.0000
  C   C546      1.0  0.39258  0.4637700000000002  0.8890500000000002  1.0000
  C   C547      1.0  0.24861  0.2338  0.19438  1.0000
  C   C548      1.0  0.57986  0.80383  0.39781  1.0000
  C   C549      1.0  0.36995  0.8713099999999999  0.49397000000000013  1.0000
  C   C550      1.0  0.13235  0.98259  0.60246  1.0000
  C   C551      1.0  0.38462  0.36541  0.029920000000000006  1.0000
  C   C552      1.0  0.5651  0.6364199999999999  0.3971600000000001  1.0000
  C   C553      1.0  0.62207  0.3321  0.49538  1.0000
  C   C554      1.0  0.21019999999999994  0.60322  0.15404  1.0000
  C   C555      1.0  0.12974  0.79873  0.24856000000000006  1.0000
  C   C556      1.0  0.7422  0.8824  0.49151  1.0000
  C   C557      1.0  0.9914499999999999  0.09195000000000006  0.54833  1.0000
  C   C558      1.0  0.36961  0.44854  0.24831000000000006  1.0000
  C   C559      1.0  0.83264  0.54057  0.00391  1.0000
  C   C560      1.0  0.81096  0.35962  0.51478  1.0000
  C   C561      1.0  0.6114199999999997  0.45398999999999995  0.86828  1.0000
  C   C562      1.0  0.37177  0.51901  0.63899  1.0000
  C   C563      1.0  0.61969  0.60405  0.19067000000000006  1.0000
  C   C564      1.0  0.93485  0.56567  0.44881  1.0000
  C   C565      1.0  0.61556  0.02941999999999999  0.36494  1.0000
  C   C566      1.0  0.20688999999999994  0.67986  0.79273  1.0000
  C   C567      1.0  0.26271  0.36381000000000013  0.8426600000000002  1.0000
  C   C568      1.0  0.87164  0.63942  0.12019000000000003  1.0000
  C   C569      1.0  0.4348  0.44892000000000015  0.8827000000000003  1.0000
  C   C570      1.0  0.7102799999999998  0.15321  0.54972  1.0000
  C   C571      1.0  0.75665  0.30741  0.3383100000000001  1.0000
  C   C572      1.0  0.73294  0.06119000000000004  0.38295000000000007  1.0000
  C   C573      1.0  0.88306  0.10005000000000007  0.5605100000000002  1.0000
  C   C574      1.0  0.74268  0.6609200000000001  0.6920100000000002  1.0000
  C   C575      1.0  0.8675699999999997  0.017370000000000108  0.6193000000000002  1.0000
  C   C576      1.0  0.93473  0.88259  0.43383  1.0000
  C   C577      1.0  0.2743  0.46151999999999993  0.08894  1.0000
  C   C578      1.0  0.61986  0.58597  0.39586  1.0000
  C   C579      1.0  0.62496  0.55667  0.60191  1.0000
  C   C580      1.0  0.15822  0.5229399999999998  0.33291  1.0000
  C   C581      1.0  0.55589  0.3503800000000001  0.5929400000000001  1.0000
  C   C582      1.0  0.3678999999999999  0.88187  0.58836  1.0000
  C   C583      1.0  0.11961999999999998  0.19022  0.5866  1.0000
  C   C584      1.0  0.85771  0.43829000000000007  0.4744500000000001  1.0000
  C   C585      1.0  0.30424  0.35372  0.84188  1.0000
  C   C586      1.0  0.7382  0.4220600000000001  0.8810700000000002  1.0000
  C   C587      1.0  0.8419699999999998  0.19001000000000007  0.6669800000000002  1.0000
  C   C588      1.0  0.7653  0.97627  0.24733000000000005  1.0000
  C   C589      1.0  0.30178  0.65224  0.52869  1.0000
  C   C590      1.0  0.68964  0.15420000000000003  0.51399  1.0000
  C   C591      1.0  0.65778  0.47655000000000003  0.6674200000000002  1.0000
  C   C592      1.0  0.36759  0.41135  0.29354  1.0000
  C   C593      1.0  0.34204  0.66782  0.47709  1.0000
  C   C594      1.0  0.4449399999999999  0.75822  0.4074600000000001  1.0000
  C   C595      1.0  0.73937  0.69051  0.73781  1.0000
  C   C596      1.0  0.24482  0.80504  0.03763  1.0000
  C   C597      1.0  0.6720899999999997  0.72051  0.08631  1.0000
  C   C598      1.0  0.82796  0.58691  0.03393  1.0000
  C   C599      1.0  0.25094  0.26468  0.24310000000000007  1.0000
  C   C600      1.0  0.23910999999999993  0.953  0.6915300000000002  1.0000
  C   C601      1.0  0.5551499999999998  0.40704  0.75819  1.0000
  C   C602      1.0  0.404  0.80257  0.47736000000000006  1.0000
  C   C603      1.0  0.6426  0.4387100000000001  0.9639500000000002  1.0000
  C   C604      1.0  0.5961  0.47692  0.80255  1.0000
  C   C605      1.0  0.29253  0.68178  0.8880100000000002  1.0000
  C   C606      1.0  0.76436  0.92281  0.51555  1.0000
  C   C607      1.0  0.23708  0.15754  0.63619  1.0000
  C   C608      1.0  0.6901  0.5375399999999999  0.8354900000000002  1.0000
  C   C609      1.0  0.62825  0.63866  0.51897  1.0000
  C   C610      1.0  0.25573  0.6163300000000002  0.8821300000000002  1.0000
  C   C611      1.0  0.66272  0.94893  0.33328000000000013  1.0000
  C   C612      1.0  0.66263  0.38445  0.05083  1.0000
  C   C613      1.0  0.29925  0.59807  0.18984000000000006  1.0000
  C   C614      1.0  0.92019  0.8040000000000002  0.4067500000000001  1.0000
  C   C615      1.0  0.2990799999999999  0.81039  0.40835  1.0000
  C   C616      1.0  0.7267499999999998  0.3727599999999999  0.91207  1.0000
  C   C617      1.0  0.75995  0.69142  0.95277  1.0000
  C   C618      1.0  0.3650499999999999  0.14892000000000005  0.59436  1.0000
  C   C619      1.0  0.7517399999999997  0.020719999999999975  0.26356  1.0000
  C   C620      1.0  0.6425  0.5248899999999999  0.56143  1.0000
  C   C621      1.0  0.64298  0.54468  0.83855  1.0000
  C   C622      1.0  0.8247699999999998  0.67759  0.20205  1.0000
  C   C623      1.0  0.79947  0.18879000000000012  0.5909500000000002  1.0000
  C   C624      1.0  0.30179  0.87638  0.34811  1.0000
  C   C625      1.0  0.88418  0.63436  0.9700600000000001  1.0000
  C   C626      1.0  0.8689  0.11862  0.41091  1.0000
  C   C627      1.0  0.3650499999999999  0.4054400000000001  0.55446  1.0000
  C   C628      1.0  0.44702  0.15888  0.5749400000000001  1.0000
  C   C629      1.0  0.73552  0.7521899999999998  0.02364  1.0000
  C   C630      1.0  0.75596  0.6615899999999998  0.9685700000000003  1.0000
  C   C631      1.0  0.2675299999999999  0.38407  0.06224  1.0000
  C   C632      1.0  0.72576  0.5382  0.6271800000000001  1.0000
  C   C633      1.0  0.79284  0.88725  0.20548  1.0000
  C   C634      1.0  0.9447899999999998  0.35142  0.75866  1.0000
  C   C635      1.0  0.26428  0.4074200000000001  0.92299  1.0000
  C   C636      1.0  0.46672999999999987  0.05827000000000007  0.5787900000000002  1.0000
  C   C637      1.0  0.7497  0.7361300000000001  0.9793900000000002  1.0000
  C   C638      1.0  0.7011  0.40174  0.5916  1.0000
  C   C639      1.0  0.6934599999999997  0.9226200000000001  0.3972700000000001  1.0000
  C   C640      1.0  0.72663  0.08778  0.46033  1.0000
  C   C641      1.0  0.49150999999999995  0.90742  0.4517500000000001  1.0000
  C   C642      1.0  0.9209099999999998  0.43762  0.63904  1.0000
  C   C643      1.0  0.41258  0.59594  0.16965  1.0000
  C   C644      1.0  0.25906  0.9520899999999999  0.26141  1.0000
  C   C645      1.0  0.7400699999999998  0.98607  0.6639900000000002  1.0000
  C   C646      1.0  0.3281799999999999  0.033240000000000054  0.4469200000000001  1.0000
  C   C647      1.0  0.13158  0.41177  0.11866000000000003  1.0000
  C   C648      1.0  0.11551999999999997  0.66476  0.02979  1.0000
  C   C649      1.0  0.38837  0.54547  0.41395  1.0000
  C   C650      1.0  0.11964  0.4136200000000001  0.6038300000000002  1.0000
  C   C651      1.0  0.55315  0.8408699999999999  0.41628  1.0000
  C   C652      1.0  0.58753  0.16899  0.5959300000000001  1.0000
  C   C653      1.0  0.87024  0.20123999999999995  0.44983  1.0000
  C   C654      1.0  0.63075  0.12840999999999994  0.62222  1.0000
  C   C655      1.0  0.33758  0.61608  0.66644  1.0000
  C   C656      1.0  0.8221299999999998  0.54464  0.14845000000000005  1.0000
  C   C657      1.0  0.50845  0.45562  0.54838  1.0000
  C   C658      1.0  0.86509  0.59384  0.44557000000000013  1.0000
  C   C659      1.0  0.18954  0.70224  0.5377200000000002  1.0000
  C   C660      1.0  0.80632  0.60288  0.07728  1.0000
  C   C661      1.0  0.11965  0.39639  0.8095600000000002  1.0000
  C   C662      1.0  0.31089  0.8446  0.3599000000000001  1.0000
  C   C663      1.0  0.30977  0.83558  0.53782  1.0000
  C   C664      1.0  0.8265099999999997  0.48862000000000005  0.3712000000000001  1.0000
  C   C665      1.0  0.5651  0.76022  0.36267  1.0000
  C   C666      1.0  0.4347699999999999  0.43354000000000004  0.5509100000000001  1.0000
  C   C667      1.0  0.75268  0.2428500000000001  0.9784900000000002  1.0000
  C   C668      1.0  0.3267  0.5110200000000001  0.6287000000000001  1.0000
  C   C669      1.0  0.76432  0.59277  0.07738  1.0000
  C   C670      1.0  0.23726  0.47881999999999997  0.8425100000000002  1.0000
  C   C671      1.0  0.23182999999999995  0.6777999999999998  0.06151  1.0000
  C   C672      1.0  0.14253  0.47516  0.4392600000000001  1.0000
  C   C673      1.0  0.5531599999999998  0.58322  0.42481  1.0000
  C   C674      1.0  0.9470299999999998  0.5748  0.41623  1.0000
  C   C675      1.0  0.55516  0.24115999999999999  0.64886  1.0000
  C   C676      1.0  0.07905  0.79854  0.36103  1.0000
  C   C677      1.0  0.8041999999999998  0.64675  0.15848  1.0000
  C   C678      1.0  0.13033999999999996  0.8712599999999999  0.37774  1.0000
  C   C679      1.0  0.8274  0.91277  0.2787800000000001  1.0000
  C   C680      1.0  0.19825  0.87707  0.52893  1.0000
  C   C681      1.0  0.88424  0.02987000000000004  0.6644100000000001  1.0000
  C   C682      1.0  0.66726  0.54004  0.53731  1.0000
  C   C683      1.0  0.74151  0.2611800000000002  0.9523700000000003  1.0000
  C   C684      1.0  0.22993  0.27575  0.95879  1.0000
  C   C685      1.0  0.11161999999999997  0.54602  0.13166  1.0000
  C   C686      1.0  0.76589  0.75078  0.7283900000000002  1.0000
  C   C687      1.0  0.25564  0.33914  0.03208  1.0000
  C   C688      1.0  0.69338  0.47483  0.07734  1.0000
  C   C689      1.0  0.41263  0.8305  0.4266200000000001  1.0000
  C   C690      1.0  0.3042  0.48835999999999996  0.6463  1.0000
  C   C691      1.0  0.7621099999999997  0.42151000000000005  0.5415100000000002  1.0000
  C   C692      1.0  0.73556  0.9224  0.4071500000000001  1.0000
  C   C693      1.0  0.17778999999999995  0.4560599999999999  0.60348  1.0000
  C   C694      1.0  0.56528  0.88254  0.449  1.0000
  C   C695      1.0  0.24068  0.32258  0.98634  1.0000
  C   C696      1.0  0.8015599999999998  0.12296000000000011  0.6513600000000003  1.0000
  C   C697      1.0  0.12531  0.44344000000000006  0.39855000000000007  1.0000
  C   C698      1.0  0.7904799999999997  0.15336000000000005  0.6025000000000003  1.0000
  C   C699      1.0  0.21407999999999994  0.2578600000000001  0.9113300000000002  1.0000
  C   C700      1.0  0.5798  0.36026  0.56264  1.0000
  C   C701      1.0  0.04962  0.4998700000000001  0.9580200000000002  1.0000
  C   C702      1.0  0.21427999999999994  0.08877000000000004  0.3465300000000001  1.0000
  C   C703      1.0  0.03340999999999999  0.4214499999999999  0.94194  1.0000
  C   C704      1.0  0.8577  0.16121000000000005  0.4547100000000001  1.0000
  C   C705      1.0  0.75863  0.6775000000000001  0.6632900000000003  1.0000
  C   C706      1.0  0.9470299999999998  0.58437  0.15918  1.0000
  C   C707      1.0  0.24471999999999994  0.5884  0.08547000000000003  1.0000
  C   C708      1.0  0.7518  0.76418  0.8054100000000001  1.0000
  C   C709      1.0  0.81039  0.53781  0.7019400000000002  1.0000
  C   C710      1.0  0.18965  0.83579  0.29791  1.0000
  C   C711      1.0  0.13015  0.5065  0.1287  1.0000
  C   C712      1.0  0.13254999999999995  0.3983800000000001  0.3808600000000001  1.0000
  C   C713      1.0  0.2646499999999999  0.023230000000000132  0.7521900000000002  1.0000
  C   C714      1.0  0.7577099999999998  0.88197  0.39078  1.0000
  C   C715      1.0  0.69776  0.52802  0.6515100000000003  1.0000
  C   C716      1.0  0.3678  0.3981  0.017550000000000007  1.0000
  C   C717      1.0  0.38255  0.5609400000000001  0.4602700000000001  1.0000
  C   C718      1.0  0.24813999999999997  0.75648  0.02044  1.0000
  C   C719      1.0  0.19862999999999995  0.47147  0.34844  1.0000
  C   C720      1.0  0.74205  0.50805  0.39128  1.0000
  N   N1        1.0  0.3624099999999999  0.52105  0.0628  1.0000
  N   N2        1.0  0.13758  0.5212099999999998  0.4587000000000001  1.0000
  N   N3        1.0  0.70005  0.88591  0.4843300000000001  1.0000
  N   N4        1.0  0.86262  0.45775  0.5205  1.0000
  N   N5        1.0  0.8000699999999997  0.59763  0.48438  1.0000
  N   N6        1.0  0.19981  0.48489  0.5984  1.0000
  N   N7        1.0  0.8631  0.06180000000000007  0.5409900000000002  1.0000
  N   N8        1.0  0.86245  0.47915000000000013  0.9381100000000002  1.0000
  N   N9        1.0  0.19986  0.4016799999999999  0.88609  1.0000
  N   N10       1.0  0.13762999999999995  0.54234  0.0628  1.0000
  N   N11       1.0  0.73773  0.5808799999999998  0.6379300000000002  1.0000
  N   N12       1.0  0.73877  0.05609000000000006  0.41765000000000013  1.0000
  N   N13       1.0  0.23842999999999995  0.41862  0.36212  1.0000
  N   N14       1.0  0.23817  0.63828  0.0569  1.0000
  N   N15       1.0  0.69997  0.5984000000000002  0.11410000000000002  1.0000
  N   N16       1.0  0.13749999999999996  0.93733  0.4795700000000001  1.0000
  N   N17       1.0  0.63771  0.47881  0.54201  1.0000
  N   N18       1.0  0.6999  0.51512  0.4020200000000001  1.0000
  N   N19       1.0  0.7999  0.88554  0.40147000000000005  1.0000
  N   N20       1.0  0.76124  0.5816300000000001  0.9432500000000003  1.0000
  N   N21       1.0  0.3623  0.9371199999999998  0.4584000000000001  1.0000
  N   N22       1.0  0.36235999999999996  0.5417000000000001  0.47910000000000014  1.0000
  N   N23       1.0  0.30002  0.48404  0.8859200000000003  1.0000
  N   N24       1.0  0.29988  0.11411000000000004  0.59806  1.0000
  N   N25       1.0  0.6378999999999998  0.06268  0.5204  1.0000
  N   N26       1.0  0.2617699999999999  0.63868  0.5815100000000002  1.0000
  N   N27       1.0  0.73895  0.3618100000000001  0.9437700000000002  1.0000
  N   N28       1.0  0.19991  0.11335000000000002  0.51574  1.0000
  N   N29       1.0  0.63771  0.45813999999999994  0.9372900000000001  1.0000
  N   N30       1.0  0.79991  0.51614  0.11460000000000002  1.0000
  N   N31       1.0  0.26184  0.41891  0.057380000000000014  1.0000
  N   N32       1.0  0.29985  0.40184  0.5161  1.0000
  N   N33       1.0  0.2382  0.94357  0.5818  1.0000
  N   N34       1.0  0.26163  0.9426  0.3615600000000001  1.0000
  N   N35       1.0  0.7613  0.05677000000000012  0.6379200000000003  1.0000
  N   N36       1.0  0.7617  0.3614700000000001  0.4184500000000001  1.0000
  O   O1        1.0  0.31436  0.48992000000000013  0.9901700000000002  1.0000
  O   O2        1.0  0.03024  0.41494  0.75961  1.0000
  O   O3        1.0  0.22441999999999998  0.98148  0.80022  1.0000
  O   O4        1.0  0.6547  0.38416  0.4812800000000001  1.0000
  O   O5        1.0  0.7440099999999997  0.96129  0.52937  1.0000
  O   O6        1.0  0.26858  0.8301  0.06876  1.0000
  O   O7        1.0  0.33093  0.003300000000000095  0.5791700000000002  1.0000
  O   O8        1.0  0.15558999999999995  0.90263  0.38461  1.0000
  O   O9        1.0  0.9688399999999998  0.7591900000000001  0.4164100000000001  1.0000
  O   O10       1.0  0.96228  0.2629600000000002  0.5760400000000002  1.0000
  O   O11       1.0  0.27455  0.97559  0.17928  1.0000
  O   O12       1.0  0.73158  0.43643  0.48776  1.0000
  O   O13       1.0  0.9458599999999998  0.3819200000000001  0.7484300000000003  1.0000
  O   O14       1.0  0.08777999999999997  0.37388  0.72694  1.0000
  O   O15       1.0  0.5540199999999997  0.25116  0.61819  1.0000
  O   O16       1.0  0.6687199999999998  0.99756  0.5753300000000002  1.0000
  O   O17       1.0  0.23193999999999995  0.56353  0.51249  1.0000
  O   O18       1.0  0.912  0.62571  0.35278  1.0000
  O   O19       1.0  0.030649999999999997  0.24057  0.65589  1.0000
  O   O20       1.0  0.38079  0.07132999999999996  0.56411  1.0000
  O   O21       1.0  0.26844  0.56327  0.05084000000000002  1.0000
  O   O22       1.0  0.41186  0.35282  0.7266800000000002  1.0000
  O   O23       1.0  0.22132  0.24438  0.07257000000000002  1.0000
  O   O24       1.0  0.6191  0.50646  0.43583000000000005  1.0000
  O   O25       1.0  0.037799999999999986  0.57614  0.26299  1.0000
  O   O26       1.0  0.55411  0.3662400000000001  0.7477700000000003  1.0000
  O   O27       1.0  0.256  0.43263  0.47168  1.0000
  O   O28       1.0  0.18614999999999995  0.009539999999999991  0.51043  1.0000
  O   O29       1.0  0.34499  0.48108999999999996  0.38449  1.0000
  O   O30       1.0  0.831  0.99627  0.42039  1.0000
  O   O31       1.0  0.25609  0.5292699999999999  0.9613400000000002  1.0000
  O   O32       1.0  0.44594  0.7479399999999998  0.36668  1.0000
  O   O33       1.0  0.11921999999999998  0.49328  0.56418  1.0000
  O   O34       1.0  0.11938999999999997  0.07058000000000005  0.50813  1.0000
  O   O35       1.0  0.24403  0.03808000000000005  0.47075  1.0000
  O   O36       1.0  0.2684199999999999  0.48783999999999994  0.43727  1.0000
  O   O37       1.0  0.58801  0.62627  0.27320000000000005  1.0000
  O   O38       1.0  0.5308699999999997  0.6553899999999999  0.4148000000000001  1.0000
  O   O39       1.0  0.44591  0.63301  0.38159  1.0000
  O   O40       1.0  0.53126  0.58359  0.24075000000000005  1.0000
  O   O41       1.0  0.46229999999999993  0.57549  0.3126000000000001  1.0000
  O   O42       1.0  0.18598  0.49041000000000007  0.5001800000000002  1.0000
  O   O43       1.0  0.4702999999999999  0.4145  0.655  1.0000
  O   O44       1.0  0.15559999999999993  0.61591  0.51822  1.0000
  O   O45       1.0  0.05398999999999999  0.74873  0.38247  1.0000
  O   O46       1.0  0.16911  0.0019600000000000463  0.4241300000000001  1.0000
  O   O47       1.0  0.84728  0.09515000000000007  0.47948000000000013  1.0000
  O   O48       1.0  0.4117899999999999  0.2732299999999999  0.62618  1.0000
  O   O49       1.0  0.8308499999999998  0.57783  0.57588  1.0000
  O   O50       1.0  0.25608  0.038740000000000094  0.5681600000000002  1.0000
  O   O51       1.0  0.84596  0.38447  0.90432  1.0000
  O   O52       1.0  0.05398999999999999  0.63363  0.25146  1.0000
  O   O53       1.0  0.7785599999999998  0.1715200000000001  0.9312800000000002  1.0000
  O   O54       1.0  0.18591  0.5006100000000001  0.9902700000000002  1.0000
  O   O55       1.0  0.23733999999999994  0.02989999999999999  0.37822  1.0000
  O   O56       1.0  0.91179  0.7267899999999999  0.37444  1.0000
  O   O57       1.0  0.08783999999999997  0.35326999999999986  0.62616  1.0000
  O   O58       1.0  0.75609  0.9608  0.4315400000000001  1.0000
  O   O59       1.0  0.73564  0.96997  0.62224  1.0000
  O   O60       1.0  0.8807  0.92852  0.4362  1.0000
  O   O61       1.0  0.22463999999999998  0.20115  0.18096000000000007  1.0000
  O   O62       1.0  0.33087  0.421  0.4245  1.0000
  O   O63       1.0  0.9687399999999998  0.65763  0.24123  1.0000
  O   O64       1.0  0.26252  0.030620000000000116  0.6530200000000003  1.0000
  O   O65       1.0  0.05417  0.61798  0.36615  1.0000
  O   O66       1.0  0.21879999999999994  0.81728  0.01913  1.0000
  O   O67       1.0  0.38082  0.4928200000000001  0.9287000000000002  1.0000
  O   O68       1.0  0.24391  0.4320999999999999  0.96145  1.0000
  O   O69       1.0  0.55594  0.3803  0.6339800000000002  1.0000
  O   O70       1.0  0.34553  0.61576  0.09707000000000003  1.0000
  O   O71       1.0  0.9693699999999998  0.5846100000000001  0.3442000000000001  1.0000
  O   O72       1.0  0.53763  0.31248  0.57564  1.0000
  O   O73       1.0  0.11913  0.4360100000000001  0.9288600000000002  1.0000
  O   O74       1.0  0.91166  0.6477  0.2733700000000001  1.0000
  O   O75       1.0  0.73195  0.0503500000000001  0.5623600000000002  1.0000
  O   O76       1.0  0.65448  0.51862  0.9031700000000003  1.0000
  O   O77       1.0  0.77262  0.01923000000000015  0.8191400000000002  1.0000
  O   O78       1.0  0.76859  0.050039999999999946  0.48688  1.0000
  O   O79       1.0  0.27341  0.81988  0.7988100000000001  1.0000
  O   O80       1.0  0.73585  0.3777599999999999  0.34758  1.0000
  O   O81       1.0  0.46881  0.34297  0.75904  1.0000
  O   O82       1.0  0.46241  0.73696  0.42445  1.0000
  O   O83       1.0  0.7250499999999998  0.02274  0.20179  1.0000
  O   O84       1.0  0.68625  0.99022  0.4895500000000001  1.0000
  O   O85       1.0  0.23203  0.94902  0.43694  1.0000
  O   O86       1.0  0.41231  0.37432000000000004  0.6475200000000002  1.0000
  O   O87       1.0  0.03045  0.34462  0.58489  1.0000
  O   O88       1.0  0.3807199999999999  0.43607  0.50743  1.0000
  O   O89       1.0  0.8141299999999998  0.5106399999999999  0.011060000000000004  1.0000
  O   O90       1.0  0.8309499999999997  0.42454  0.0038  1.0000
  O   O91       1.0  0.26892  0.92772  0.7578800000000002  1.0000
  O   O92       1.0  0.94604  0.2514400000000001  0.6335000000000002  1.0000
  O   O93       1.0  0.73128  0.1703  0.24009  1.0000
  O   O94       1.0  0.8808299999999998  0.5077599999999999  0.07176  1.0000
  O   O95       1.0  0.73518  0.8017900000000001  0.8210400000000002  1.0000
  O   O96       1.0  0.31430999999999987  0.009710000000000043  0.4998800000000001  1.0000
  O   O97       1.0  0.75598  0.47088  0.039140000000000015  1.0000
  O   O98       1.0  0.7560399999999999  0.5674399999999999  0.52932  1.0000
  O   O99       1.0  0.84481  0.51801  0.61533  1.0000
  O   O100      1.0  0.76809  0.51189  0.56314  1.0000
  O   O101      1.0  0.9910699999999999  0.66675  0.3334900000000001  1.0000
  O   O102      1.0  0.2686099999999999  0.94901  0.5125300000000003  1.0000
  O   O103      1.0  0.5307  0.7591800000000001  0.34415000000000007  1.0000
  O   O104      1.0  0.33094  0.5759200000000002  0.9971000000000002  1.0000
  O   O105      1.0  0.49155  0.33317  0.66687  1.0000
  O   O106      1.0  0.2624499999999999  0.34751000000000004  0.37782000000000004  1.0000
  O   O107      1.0  0.6191099999999998  0.56406  0.07122  1.0000
  O   O108      1.0  0.61923  0.92872  0.4926  1.0000
  O   O109      1.0  0.16909  0.57692  0.57895  1.0000
  O   O110      1.0  0.81448  0.98928  0.49958  1.0000
  O   O111      1.0  0.77675  0.06873  0.24015  1.0000
  O   O112      1.0  0.72504  0.7637900000000002  0.9349900000000002  1.0000
  O   O113      1.0  0.22485  0.8284000000000001  0.7581700000000002  1.0000
  O   O114      1.0  0.68568  0.49982999999999994  0.01  1.0000
  O   O115      1.0  0.4459  0.61847  0.252  1.0000
  O   O116      1.0  0.3142899999999999  0.50046  0.51021  1.0000
  O   O117      1.0  0.7625099999999998  0.96922  0.3467400000000001  1.0000
  O   O118      1.0  0.46229999999999993  0.68732  0.26305  1.0000
  O   O119      1.0  0.88065  0.5625  0.4919300000000001  1.0000
  O   O120      1.0  0.9621599999999998  0.42378000000000005  0.6868300000000002  1.0000
  O   O121      1.0  0.03764  0.6867600000000003  0.4238200000000001  1.0000
  O   O122      1.0  0.16937  0.4221  0.99779  1.0000
  O   O123      1.0  0.2644199999999999  0.6224600000000001  0.9700700000000002  1.0000
  O   O124      1.0  0.68568  0.50972  0.5003000000000002  1.0000
  O   O125      1.0  0.66885  0.42304  0.4210200000000001  1.0000
  O   O126      1.0  0.66917  0.57896  0.003110000000000001  1.0000
  O   O127      1.0  0.50872  0.66651  0.33328000000000013  1.0000
  O   O128      1.0  0.77939  0.18254  0.20126000000000005  1.0000
  O   O129      1.0  0.74391  0.4703300000000001  0.4323200000000001  1.0000
  O   O130      1.0  0.23753  0.34831000000000006  0.9702200000000002  1.0000
  O   O131      1.0  0.23292999999999994  0.4878  0.05064  1.0000
  O   O132      1.0  0.7689399999999997  0.7496400000000001  0.8281700000000002  1.0000
  O   O133      1.0  0.81403  0.4991  0.4897200000000001  1.0000
  O   O134      1.0  0.08794  0.2729300000000001  0.6467500000000003  1.0000
  O   O135      1.0  0.96209  0.3130500000000001  0.7370900000000002  1.0000
  O   O136      1.0  0.23763  0.62186  0.65195  1.0000
  O   O137      1.0  0.7439699999999998  0.56807  0.03888  1.0000
  O   O138      1.0  0.5376599999999998  0.42424  0.73711  1.0000
  O   O139      1.0  0.03787  0.7367799999999998  0.3132600000000001  1.0000
  O   O140      1.0  0.72944  0.07399999999999997  0.82985  1.0000
  O   O141      1.0  0.7375  0.65278  0.03055  1.0000
  O   O142      1.0  0.73168  0.51249  0.9496400000000002  1.0000
  O   O143      1.0  0.7251799999999998  0.17897000000000002  0.9753900000000002  1.0000
  O   O144      1.0  0.22143  0.93117  0.17203000000000004  1.0000
  O   O145      1.0  0.24395999999999995  0.5296  0.56798  1.0000
  O   O146      1.0  0.76263  0.6517099999999999  0.6214500000000002  1.0000
  O   O147      1.0  0.7683999999999999  0.43741  0.95006  1.0000
  O   O148      1.0  0.5880199999999998  0.6456000000000001  0.3728400000000001  1.0000
  O   O149      1.0  0.76256  0.37772  0.030800000000000008  1.0000
  O   O150      1.0  0.2688599999999999  0.20165  0.02265  1.0000
  O   O151      1.0  0.53774  0.26257  0.68719  1.0000
  O   O152      1.0  0.34545  0.90318  0.51917  1.0000
  O   O153      1.0  0.2710599999999999  0.24193  0.16977  1.0000
  O   O154      1.0  0.15469  0.48147  0.09680000000000001  1.0000
  O   O155      1.0  0.78123  0.79532  0.9765400000000002  1.0000
  O   O156      1.0  0.00877  0.33329  0.66663  1.0000
  O   O157      1.0  0.58811  0.72658  0.3527000000000001  1.0000
  O   O158      1.0  0.94583  0.36636000000000013  0.6177900000000002  1.0000
  O   O159      1.0  0.656  0.09706000000000002  0.61535  1.0000
  O   O160      1.0  0.46912  0.24104999999999996  0.58465  1.0000
