data_image0
_chemical_formula_structural       Cu16H256C320N64
_chemical_formula_sum              "Cu16 H256 C320 N64"
_cell_length_a       19.06212
_cell_length_b       28.95848
_cell_length_c       29.02387
_cell_angle_alpha    89.99504
_cell_angle_beta     89.99774
_cell_angle_gamma    90.0

_space_group_name_H-M_alt    "P 1"
_space_group_IT_number       1

loop_
  _space_group_symop_operation_xyz
  'x, y, z'

loop_
  _atom_site_type_symbol
  _atom_site_label
  _atom_site_symmetry_multiplicity
  _atom_site_fract_x
  _atom_site_fract_y
  _atom_site_fract_z
  _atom_site_occupancy
  Cu  Cu1       1.0  0.98446  0.24565000000000006  0.76284  1.0000
  Cu  Cu2       1.0  0.7433899999999999  0.48816  0.50398  1.0000
  Cu  Cu3       1.0  0.51523  0.7545800000000003  0.26275  1.0000
  Cu  Cu4       1.0  0.75681  0.51166  0.00389  1.0000
  Cu  Cu5       1.0  0.014969999999999997  0.74554  0.73733  1.0000
  Cu  Cu6       1.0  0.25699  0.9885  0.99622  1.0000
  Cu  Cu7       1.0  0.48452  0.2544  0.23718999999999998  1.0000
  Cu  Cu8       1.0  0.24323999999999998  0.011730000000000004  0.49602999999999997  1.0000
  Cu  Cu9       1.0  0.014599999999999998  0.75465  0.23771  1.0000
  Cu  Cu10      1.0  0.2564  0.51184  0.49593  1.0000
  Cu  Cu11      1.0  0.4849  0.24521  0.73729  1.0000
  Cu  Cu12      1.0  0.24299999999999997  0.4885400000000001  0.99624  1.0000
  Cu  Cu13      1.0  0.98464  0.25441  0.26283  1.0000
  Cu  Cu14      1.0  0.7429799999999999  0.011750000000000002  0.00379  1.0000
  Cu  Cu15      1.0  0.5152599999999999  0.74533  0.76254  1.0000
  Cu  Cu16      1.0  0.75657  0.9880800000000002  0.50404  1.0000
  H   H1        1.0  0.63274  0.2801900000000001  0.3859  1.0000
  H   H2        1.0  0.0289  0.28985  0.85304  1.0000
  H   H3        1.0  0.7847999999999998  0.34203  0.8373  1.0000
  H   H4        1.0  0.73937  0.34971000000000013  0.61712  1.0000
  H   H5        1.0  0.88505  0.23402  0.68386  1.0000
  H   H6        1.0  0.5892499999999999  0.46684  0.46932  1.0000
  H   H7        1.0  0.81187  0.56956  0.65402  1.0000
  H   H8        1.0  0.77642  0.39482  0.45783  1.0000
  H   H9        1.0  0.57671  0.23735000000000006  0.32168  1.0000
  H   H10       1.0  0.82247  0.28308  0.6273800000000002  1.0000
  H   H11       1.0  0.05166  0.6957900000000002  0.64568  1.0000
  H   H12       1.0  0.9438999999999999  0.41175  0.59728  1.0000
  H   H13       1.0  0.53065  0.4166100000000001  0.41201  1.0000
  H   H14       1.0  0.99937  0.6389400000000002  0.59194  1.0000
  H   H15       1.0  0.80609  0.6507600000000001  0.66951  1.0000
  H   H16       1.0  0.69445  0.40169  0.556  1.0000
  H   H17       1.0  0.89943  0.3643  0.97043  1.0000
  H   H18       1.0  0.9396299999999999  0.3994400000000001  0.68067  1.0000
  H   H19       1.0  0.89052  0.46160000000000007  0.53781  1.0000
  H   H20       1.0  0.72653  0.34211000000000014  0.39881  1.0000
  H   H21       1.0  0.8666099999999999  0.7064400000000002  0.72017  1.0000
  H   H22       1.0  0.54168  0.4047000000000001  0.32957  1.0000
  H   H23       1.0  0.49684  0.3574  0.26466  1.0000
  H   H24       1.0  0.9048299999999999  0.62779  0.53105  1.0000
  H   H25       1.0  0.99054  0.3467  0.73874  1.0000
  H   H26       1.0  0.83606  0.2821600000000001  0.78687  1.0000
  H   H27       1.0  0.98582  0.35054  0.90634  1.0000
  H   H28       1.0  0.83724  0.5704900000000002  0.48605  1.0000
  H   H29       1.0  0.79861  0.42448000000000013  0.85127  1.0000
  H   H30       1.0  0.75464  0.51137  0.6044  1.0000
  H   H31       1.0  0.8507  0.42866  0.0165  1.0000
  H   H32       1.0  0.7619799999999999  0.4895600000000001  0.90112  1.0000
  H   H33       1.0  0.86718  0.71974  0.88591  1.0000
  H   H34       1.0  0.47103999999999996  0.7101300000000003  0.35302  1.0000
  H   H35       1.0  0.7151399999999998  0.6580200000000003  0.33741  1.0000
  H   H36       1.0  0.7606  0.65032  0.11715  1.0000
  H   H37       1.0  0.61531  0.76602  0.18376  1.0000
  H   H38       1.0  0.91047  0.5331300000000001  0.9694399999999999  1.0000
  H   H39       1.0  0.6883899999999997  0.4302800000000001  0.15393  1.0000
  H   H40       1.0  0.72336  0.6051700000000001  0.9579000000000001  1.0000
  H   H41       1.0  0.92345  0.76259  0.8219199999999999  1.0000
  H   H42       1.0  0.67755  0.71691  0.12717  1.0000
  H   H43       1.0  0.44823  0.30432  0.14584  1.0000
  H   H44       1.0  0.5561599999999998  0.58819  0.09722  1.0000
  H   H45       1.0  0.9691399999999999  0.58333  0.91213  1.0000
  H   H46       1.0  0.50079  0.3609500000000001  0.09184  1.0000
  H   H47       1.0  0.69393  0.34916  0.16958  1.0000
  H   H48       1.0  0.8056599999999998  0.5983200000000002  0.05606  1.0000
  H   H49       1.0  0.60044  0.6354800000000002  0.47049  1.0000
  H   H50       1.0  0.5601899999999999  0.60067  0.18058  1.0000
  H   H51       1.0  0.60971  0.53832  0.03781  1.0000
  H   H52       1.0  0.77323  0.6578200000000002  0.89884  1.0000
  H   H53       1.0  0.63308  0.29358  0.22038  1.0000
  H   H54       1.0  0.9582099999999998  0.59524  0.82958  1.0000
  H   H55       1.0  0.0032799999999999995  0.64249  0.76484  1.0000
  H   H56       1.0  0.5951399999999999  0.372  0.03109  1.0000
  H   H57       1.0  0.50966  0.65343  0.23874  1.0000
  H   H58       1.0  0.66382  0.71772  0.2868  1.0000
  H   H59       1.0  0.51411  0.6495400000000002  0.4064  1.0000
  H   H60       1.0  0.6621799999999998  0.42956  0.986  1.0000
  H   H61       1.0  0.70105  0.57554  0.35114  1.0000
  H   H62       1.0  0.74499  0.4887400000000001  0.10423  1.0000
  H   H63       1.0  0.64994  0.57128  0.51646  1.0000
  H   H64       1.0  0.7384099999999999  0.51057  0.40091  1.0000
  H   H65       1.0  0.3672199999999999  0.7802300000000002  0.1141  1.0000
  H   H66       1.0  0.9709899999999999  0.7901500000000002  0.64718  1.0000
  H   H67       1.0  0.21531  0.84187  0.6625  1.0000
  H   H68       1.0  0.26065  0.8497400000000003  0.88275  1.0000
  H   H69       1.0  0.11521  0.7339200000000001  0.81641  1.0000
  H   H70       1.0  0.41093  0.9667  0.03052  1.0000
  H   H71       1.0  0.18853999999999999  0.06995  0.84616  1.0000
  H   H72       1.0  0.22363  0.89474  0.04197  1.0000
  H   H73       1.0  0.42339999999999994  0.7373200000000002  0.17809  1.0000
  H   H74       1.0  0.17759  0.7831400000000002  0.87281  1.0000
  H   H75       1.0  0.94828  0.19543000000000005  0.85392  1.0000
  H   H76       1.0  0.05618  0.91176  0.90279  1.0000
  H   H77       1.0  0.46923999999999993  0.9166600000000001  0.08801  1.0000
  H   H78       1.0  0.00097  0.13918000000000003  0.90811  1.0000
  H   H79       1.0  0.19419  0.15105000000000005  0.83047  1.0000
  H   H80       1.0  0.3056099999999999  0.90154  0.9439700000000001  1.0000
  H   H81       1.0  0.10059  0.8644200000000002  0.52939  1.0000
  H   H82       1.0  0.06025  0.89931  0.81926  1.0000
  H   H83       1.0  0.10968  0.96159  0.96218  1.0000
  H   H84       1.0  0.27325  0.84229  0.10119  1.0000
  H   H85       1.0  0.13323  0.20620000000000005  0.77941  1.0000
  H   H86       1.0  0.45826  0.90468  0.17052  1.0000
  H   H87       1.0  0.50329  0.8573600000000002  0.23522  1.0000
  H   H88       1.0  0.09549  0.12808000000000003  0.96913  1.0000
  H   H89       1.0  0.009669999999999998  0.8464700000000001  0.76124  1.0000
  H   H90       1.0  0.16377  0.78253  0.71342  1.0000
  H   H91       1.0  0.014299999999999998  0.85038  0.59351  1.0000
  H   H92       1.0  0.16198999999999994  0.07023000000000003  0.01401  1.0000
  H   H93       1.0  0.20124  0.9243500000000002  0.6487200000000001  1.0000
  H   H94       1.0  0.24436  0.01105  0.89561  1.0000
  H   H95       1.0  0.14954  0.9288300000000002  0.48347  1.0000
  H   H96       1.0  0.23804  0.98952  0.59901  1.0000
  H   H97       1.0  0.13296  0.21967  0.6141299999999998  1.0000
  H   H98       1.0  0.52915  0.21002000000000007  0.14736  1.0000
  H   H99       1.0  0.28488  0.15808  0.16263  1.0000
  H   H100      1.0  0.23929999999999996  0.15037  0.38285  1.0000
  H   H101      1.0  0.38516  0.26611  0.31635  1.0000
  H   H102      1.0  0.08932999999999998  0.03328  0.53056  1.0000
  H   H103      1.0  0.31176  0.9303400000000001  0.34608  1.0000
  H   H104      1.0  0.27653  0.10525  0.54197  1.0000
  H   H105      1.0  0.07626  0.26265  0.67796  1.0000
  H   H106      1.0  0.32223999999999997  0.21686000000000005  0.37264  1.0000
  H   H107      1.0  0.55165  0.8042300000000002  0.35418  1.0000
  H   H108      1.0  0.4438199999999999  0.08835  0.40265  1.0000
  H   H109      1.0  0.030929999999999996  0.08338  0.58804  1.0000
  H   H110      1.0  0.49929999999999997  0.86094  0.40807  1.0000
  H   H111      1.0  0.30601999999999996  0.8491600000000002  0.33047  1.0000
  H   H112      1.0  0.19435  0.09831000000000001  0.44392000000000004  1.0000
  H   H113      1.0  0.39966  0.13569000000000003  0.02953  1.0000
  H   H114      1.0  0.43951  0.10062  0.31921  1.0000
  H   H115      1.0  0.39043  0.038430000000000006  0.46208999999999995  1.0000
  H   H116      1.0  0.22691  0.15777000000000005  0.6012  1.0000
  H   H117      1.0  0.3666799999999999  0.79361  0.27968  1.0000
  H   H118      1.0  0.04194  0.09521  0.6706  1.0000
  H   H119      1.0  0.99631  0.14263000000000006  0.73507  1.0000
  H   H120      1.0  0.4048599999999999  0.87208  0.46898  1.0000
  H   H121      1.0  0.49082  0.15355000000000005  0.2614  1.0000
  H   H122      1.0  0.33633  0.21757000000000007  0.21349  1.0000
  H   H123      1.0  0.48595  0.14971  0.09364  1.0000
  H   H124      1.0  0.33758  0.9295  0.514  1.0000
  H   H125      1.0  0.29888999999999993  0.07566  0.14878  1.0000
  H   H126      1.0  0.25486999999999993  0.98867  0.39569  1.0000
  H   H127      1.0  0.3503599999999999  0.07153000000000002  0.98349  1.0000
  H   H128      1.0  0.26173  0.01071  0.09899  1.0000
  H   H129      1.0  0.36735999999999996  0.7198700000000002  0.6139000000000001  1.0000
  H   H130      1.0  0.9707199999999999  0.7094400000000002  0.14742  1.0000
  H   H131      1.0  0.21534  0.6583100000000002  0.16227  1.0000
  H   H132      1.0  0.26077999999999996  0.6501  0.3828  1.0000
  H   H133      1.0  0.11566  0.7661  0.31673  1.0000
  H   H134      1.0  0.4105299999999999  0.53294  0.53084  1.0000
  H   H135      1.0  0.18816  0.4303800000000001  0.34601000000000004  1.0000
  H   H136      1.0  0.22348999999999997  0.60505  0.54235  1.0000
  H   H137      1.0  0.42281  0.76273  0.6783100000000001  1.0000
  H   H138      1.0  0.17775  0.7167000000000002  0.37307  1.0000
  H   H139      1.0  0.94841  0.3042300000000001  0.35418  1.0000
  H   H140      1.0  0.056249999999999994  0.58807  0.40267  1.0000
  H   H141      1.0  0.46942  0.5834300000000001  0.58786  1.0000
  H   H142      1.0  0.00072  0.3609500000000001  0.40808  1.0000
  H   H143      1.0  0.19401  0.34923  0.33047  1.0000
  H   H144      1.0  0.30557999999999996  0.59839  0.44418  1.0000
  H   H145      1.0  0.10046999999999998  0.6355100000000002  0.02924  1.0000
  H   H146      1.0  0.060079999999999995  0.60082  0.3192400000000001  1.0000
  H   H147      1.0  0.10951  0.53847  0.46237  1.0000
  H   H148      1.0  0.27359  0.6579900000000002  0.60112  1.0000
  H   H149      1.0  0.13339  0.29368  0.27967  1.0000
  H   H150      1.0  0.45847999999999994  0.59544  0.67036  1.0000
  H   H151      1.0  0.5027699999999999  0.64273  0.73543  1.0000
  H   H152      1.0  0.09514  0.37218  0.46899  1.0000
  H   H153      1.0  0.009879999999999998  0.65381  0.26126  1.0000
  H   H154      1.0  0.16344  0.71709  0.21367  1.0000
  H   H155      1.0  0.014389999999999998  0.6498200000000002  0.09323  1.0000
  H   H156      1.0  0.16262  0.42959  0.51397  1.0000
  H   H157      1.0  0.20109999999999995  0.5756900000000001  0.14863  1.0000
  H   H158      1.0  0.24519  0.4887100000000001  0.39562  1.0000
  H   H159      1.0  0.14968999999999996  0.57122  0.9833599999999999  1.0000
  H   H160      1.0  0.23831  0.5106500000000002  0.09901  1.0000
  H   H161      1.0  0.13289  0.28027  0.11418999999999999  1.0000
  H   H162      1.0  0.52892  0.2899200000000001  0.64702  1.0000
  H   H163      1.0  0.28479  0.34199  0.6626  1.0000
  H   H164      1.0  0.23934999999999995  0.34979000000000005  0.88276  1.0000
  H   H165      1.0  0.38472  0.23403000000000004  0.8162  1.0000
  H   H166      1.0  0.08904  0.46664  0.03044  1.0000
  H   H167      1.0  0.3114  0.56993  0.84605  1.0000
  H   H168      1.0  0.2763199999999999  0.39469  0.04180999999999999  1.0000
  H   H169      1.0  0.07627  0.23738000000000006  0.17806  1.0000
  H   H170      1.0  0.3226099999999999  0.28311  0.87281  1.0000
  H   H171      1.0  0.55187  0.69558  0.85418  1.0000
  H   H172      1.0  0.44385  0.41182  0.90278  1.0000
  H   H173      1.0  0.030849999999999995  0.41669  0.08809  1.0000
  H   H174      1.0  0.49914999999999987  0.63906  0.90819  1.0000
  H   H175      1.0  0.30609999999999987  0.6510000000000002  0.83036  1.0000
  H   H176      1.0  0.19443999999999997  0.40155  0.94407  1.0000
  H   H177      1.0  0.39945  0.3643500000000001  0.52949  1.0000
  H   H178      1.0  0.43982999999999994  0.39936  0.81937  1.0000
  H   H179      1.0  0.39036  0.4615500000000001  0.96227  1.0000
  H   H180      1.0  0.22686  0.34232  0.10119  1.0000
  H   H181      1.0  0.3671899999999999  0.70637  0.7795  1.0000
  H   H182      1.0  0.04191  0.40478000000000003  0.17057  1.0000
  H   H183      1.0  0.99653  0.3574500000000001  0.23517  1.0000
  H   H184      1.0  0.40448  0.62812  0.96897  1.0000
  H   H185      1.0  0.49026999999999993  0.3466800000000001  0.76117  1.0000
  H   H186      1.0  0.33611  0.28227  0.71319  1.0000
  H   H187      1.0  0.4858199999999999  0.3505500000000001  0.59366  1.0000
  H   H188      1.0  0.33804  0.5702400000000002  0.0139  1.0000
  H   H189      1.0  0.29881  0.4244400000000001  0.64874  1.0000
  H   H190      1.0  0.25557  0.5110500000000001  0.89555  1.0000
  H   H191      1.0  0.35037  0.4286800000000001  0.48345  1.0000
  H   H192      1.0  0.2619  0.48952  0.59891  1.0000
  H   H193      1.0  0.6330699999999999  0.21965  0.88575  1.0000
  H   H194      1.0  0.028959999999999993  0.21005  0.35294  1.0000
  H   H195      1.0  0.78479  0.15800000000000006  0.33742  1.0000
  H   H196      1.0  0.73931  0.15024  0.11714  1.0000
  H   H197      1.0  0.88483  0.266  0.18363  1.0000
  H   H198      1.0  0.58914  0.03328  0.96954  1.0000
  H   H199      1.0  0.8115499999999998  0.93045  0.15396  1.0000
  H   H200      1.0  0.7764099999999999  0.1052  0.95821  1.0000
  H   H201      1.0  0.5761699999999997  0.26258000000000004  0.82204  1.0000
  H   H202      1.0  0.8223499999999998  0.21681000000000003  0.12722  1.0000
  H   H203      1.0  0.05166999999999999  0.8042600000000002  0.14539  1.0000
  H   H204      1.0  0.9438599999999999  0.0882  0.09729  1.0000
  H   H205      1.0  0.5309  0.08331000000000002  0.91194  1.0000
  H   H206      1.0  0.9993  0.8612200000000002  0.09185  1.0000
  H   H207      1.0  0.80619  0.8492800000000003  0.16958  1.0000
  H   H208      1.0  0.69444  0.09830000000000003  0.05589  1.0000
  H   H209      1.0  0.8995  0.1355  0.47053  1.0000
  H   H210      1.0  0.93974  0.10061000000000003  0.18066  1.0000
  H   H211      1.0  0.8904199999999998  0.03840000000000001  0.03772  1.0000
  H   H212      1.0  0.72691  0.15769  0.89889  1.0000
  H   H213      1.0  0.8667399999999998  0.79347  0.22001  1.0000
  H   H214      1.0  0.5421  0.09514000000000003  0.82942  1.0000
  H   H215      1.0  0.49632  0.14249  0.76497  1.0000
  H   H216      1.0  0.9045299999999998  0.87214  0.031069999999999997  1.0000
  H   H217      1.0  0.99049  0.15343000000000007  0.23867  1.0000
  H   H218      1.0  0.8360999999999998  0.21764000000000006  0.28675  1.0000
  H   H219      1.0  0.98582  0.14954  0.40641  1.0000
  H   H220      1.0  0.83748  0.9296700000000002  0.98604  1.0000
  H   H221      1.0  0.79887  0.07559000000000003  0.35118  1.0000
  H   H222      1.0  0.75488  0.98887  0.10435  1.0000
  H   H223      1.0  0.8502799999999999  0.07116  0.51648  1.0000
  H   H224      1.0  0.7617  0.01053  0.40096  1.0000
  H   H225      1.0  0.86734  0.78022  0.38602  1.0000
  H   H226      1.0  0.47071  0.79013  0.85282  1.0000
  H   H227      1.0  0.71507  0.8419000000000001  0.83741  1.0000
  H   H228      1.0  0.7606  0.84966  0.61714  1.0000
  H   H229      1.0  0.6155199999999998  0.7338600000000001  0.68366  1.0000
  H   H230      1.0  0.9106099999999999  0.9668900000000002  0.46946  1.0000
  H   H231      1.0  0.68818  0.06957  0.65397  1.0000
  H   H232      1.0  0.72349  0.89485  0.45797  1.0000
  H   H233      1.0  0.92309  0.73743  0.32188  1.0000
  H   H234      1.0  0.67764  0.7831200000000003  0.62703  1.0000
  H   H235      1.0  0.44852  0.19592  0.64578  1.0000
  H   H236      1.0  0.55612  0.9117800000000003  0.59728  1.0000
  H   H237      1.0  0.9692299999999999  0.91671  0.41216  1.0000
  H   H238      1.0  0.50065  0.139  0.59206  1.0000
  H   H239      1.0  0.694  0.15069  0.66954  1.0000
  H   H240      1.0  0.80565  0.9017200000000002  0.55605  1.0000
  H   H241      1.0  0.6004  0.8644400000000002  0.97051  1.0000
  H   H242      1.0  0.56022  0.8992100000000002  0.68063  1.0000
  H   H243      1.0  0.60962  0.96164  0.53781  1.0000
  H   H244      1.0  0.7732799999999997  0.8422500000000003  0.39887999999999996  1.0000
  H   H245      1.0  0.6336099999999999  0.20643  0.72022  1.0000
  H   H246      1.0  0.9583699999999999  0.9047300000000003  0.32966  1.0000
  H   H247      1.0  0.00288  0.85757  0.26473  1.0000
  H   H248      1.0  0.59516  0.12784  0.53106  1.0000
  H   H249      1.0  0.50968  0.8463100000000002  0.73874  1.0000
  H   H250      1.0  0.6634099999999999  0.78242  0.78656  1.0000
  H   H251      1.0  0.5141399999999998  0.8504  0.9065500000000001  1.0000
  H   H252      1.0  0.66255  0.07046  0.48604  1.0000
  H   H253      1.0  0.7011  0.9243200000000003  0.85115  1.0000
  H   H254      1.0  0.7452499999999999  0.011330000000000002  0.60435  1.0000
  H   H255      1.0  0.6497599999999999  0.92873  0.01648  1.0000
  H   H256      1.0  0.7384399999999998  0.98932  0.90091  1.0000
  C   C1        1.0  0.8807499999999999  0.3519800000000001  0.8769600000000001  1.0000
  C   C2        1.0  0.89734  0.6388300000000002  0.62602  1.0000
  C   C3        1.0  0.8767499999999999  0.34599  0.64774  1.0000
  C   C4        1.0  0.60302  0.2987300000000001  0.35976  1.0000
  C   C5        1.0  0.97482  0.30198  0.85099  1.0000
  C   C6        1.0  0.62367  0.3748300000000001  0.39954  1.0000
  C   C7        1.0  0.8465499999999999  0.3758  0.61306  1.0000
  C   C8        1.0  0.83963  0.3321400000000001  0.84143  1.0000
  C   C9        1.0  0.7749099999999998  0.37361  0.59993  1.0000
  C   C10       1.0  0.8942  0.27104  0.68294  1.0000
  C   C11       1.0  0.61792  0.4388  0.4531  1.0000
  C   C12       1.0  0.8187999999999999  0.57103  0.61687  1.0000
  C   C13       1.0  0.8541  0.3886600000000001  0.90598  1.0000
  C   C14       1.0  0.72201  0.39848  0.44688  1.0000
  C   C15       1.0  0.5721099999999998  0.27468  0.32379  1.0000
  C   C16       1.0  0.85946  0.29858  0.65139  1.0000
  C   C17       1.0  0.9972299999999998  0.6850200000000002  0.64979  1.0000
  C   C18       1.0  0.8878499999999998  0.40932  0.59011  1.0000
  C   C19       1.0  0.58584  0.4113100000000001  0.42032  1.0000
  C   C20       1.0  0.9676699999999999  0.6535100000000003  0.6195600000000001  1.0000
  C   C21       1.0  0.8612599999999999  0.6588500000000003  0.6637299999999999  1.0000
  C   C22       1.0  0.86333  0.60488  0.59718  1.0000
  C   C23       1.0  0.74956  0.40277000000000013  0.56598  1.0000
  C   C24       1.0  0.86915  0.39135  0.95366  1.0000
  C   C25       1.0  0.9258399999999998  0.36301  0.68031  1.0000
  C   C26       1.0  0.85853  0.43644  0.55609  1.0000
  C   C27       1.0  0.69396  0.3688900000000001  0.41417  1.0000
  C   C28       1.0  0.89445  0.6906700000000001  0.69156  1.0000
  C   C29       1.0  0.55093  0.36768  0.32887  1.0000
  C   C30       1.0  0.52537  0.34134  0.29284  1.0000
  C   C31       1.0  0.87201  0.6027200000000003  0.54875  1.0000
  C   C32       1.0  0.9550199999999999  0.33362  0.71248  1.0000
  C   C33       1.0  0.59275  0.3469100000000001  0.36338  1.0000
  C   C34       1.0  0.8677099999999999  0.29798  0.81382  1.0000
  C   C35       1.0  0.95049  0.3356400000000001  0.88081  1.0000
  C   C36       1.0  0.8345399999999997  0.5706600000000001  0.52343  1.0000
  C   C37       1.0  0.81164  0.4243  0.88776  1.0000
  C   C38       1.0  0.78637  0.5386000000000001  0.58928  1.0000
  C   C39       1.0  0.8423  0.42737000000000014  0.97945  1.0000
  C   C40       1.0  0.79057  0.46048  0.91556  1.0000
  C   C41       1.0  0.61913  0.6479700000000003  0.37695  1.0000
  C   C42       1.0  0.6027899999999998  0.36098000000000013  0.12596  1.0000
  C   C43       1.0  0.62336  0.6540200000000002  0.14770999999999998  1.0000
  C   C44       1.0  0.8968999999999999  0.7011900000000002  0.85979  1.0000
  C   C45       1.0  0.52512  0.6980200000000002  0.35097  1.0000
  C   C46       1.0  0.87613  0.6251100000000002  0.89957  1.0000
  C   C47       1.0  0.6535  0.62421  0.11302000000000001  1.0000
  C   C48       1.0  0.66023  0.66777  0.34139  1.0000
  C   C49       1.0  0.72513  0.62638  0.09996  1.0000
  C   C50       1.0  0.60606  0.729  0.18288  1.0000
  C   C51       1.0  0.8818099999999999  0.5611800000000002  0.9532  1.0000
  C   C52       1.0  0.6812199999999999  0.42893  0.11679  1.0000
  C   C53       1.0  0.6458699999999999  0.6113400000000001  0.40599  1.0000
  C   C54       1.0  0.7778  0.60151  0.94697  1.0000
  C   C55       1.0  0.928  0.7252400000000002  0.82394  1.0000
  C   C56       1.0  0.64053  0.70145  0.15122  1.0000
  C   C57       1.0  0.50267  0.31509  0.14982  1.0000
  C   C58       1.0  0.61219  0.59065  0.09007  1.0000
  C   C59       1.0  0.9139099999999999  0.5886300000000001  0.9204  1.0000
  C   C60       1.0  0.53237  0.34643  0.11955  1.0000
  C   C61       1.0  0.63876  0.34106  0.16378  1.0000
  C   C62       1.0  0.63656  0.39508  0.09718  1.0000
  C   C63       1.0  0.7505299999999998  0.5972000000000002  0.06601  1.0000
  C   C64       1.0  0.6310699999999999  0.60858  0.45369  1.0000
  C   C65       1.0  0.57402  0.6371  0.18019  1.0000
  C   C66       1.0  0.64157  0.5635200000000001  0.05611  1.0000
  C   C67       1.0  0.8058299999999998  0.63106  0.9142  1.0000
  C   C68       1.0  0.60539  0.30935  0.19168  1.0000
  C   C69       1.0  0.94898  0.6322600000000003  0.82891  1.0000
  C   C70       1.0  0.9747599999999998  0.65861  0.79299  1.0000
  C   C71       1.0  0.62786  0.39715  0.04875  1.0000
  C   C72       1.0  0.54518  0.6664800000000002  0.21246  1.0000
  C   C73       1.0  0.90721  0.65301  0.86348  1.0000
  C   C74       1.0  0.6321899999999999  0.70198  0.3138000000000001  1.0000
  C   C75       1.0  0.54934  0.66427  0.38075  1.0000
  C   C76       1.0  0.6650999999999999  0.42932000000000003  0.02339  1.0000
  C   C77       1.0  0.6883999999999999  0.5757500000000002  0.38767000000000007  1.0000
  C   C78       1.0  0.71334  0.4614300000000001  0.08919  1.0000
  C   C79       1.0  0.6580899999999998  0.5725800000000002  0.47942  1.0000
  C   C80       1.0  0.70967  0.53959  0.41539  1.0000
  C   C81       1.0  0.11924999999999998  0.85203  0.62302  1.0000
  C   C82       1.0  0.10297999999999997  0.13906000000000004  0.87402  1.0000
  C   C83       1.0  0.12332999999999998  0.84598  0.85226  1.0000
  C   C84       1.0  0.39691  0.7987400000000002  0.14022  1.0000
  C   C85       1.0  0.02513  0.80213  0.6491400000000002  1.0000
  C   C86       1.0  0.37622  0.8748700000000003  0.10049  1.0000
  C   C87       1.0  0.15349999999999997  0.8757900000000002  0.88692  1.0000
  C   C88       1.0  0.16031  0.83227  0.65864  1.0000
  C   C89       1.0  0.22513  0.8735900000000002  0.90001  1.0000
  C   C90       1.0  0.10602999999999999  0.7709500000000002  0.8172  1.0000
  C   C91       1.0  0.38208999999999993  0.9387500000000002  0.04679  1.0000
  C   C92       1.0  0.18123  0.07115  0.8832799999999998  1.0000
  C   C93       1.0  0.14603  0.8885600000000002  0.59391  1.0000
  C   C94       1.0  0.27804  0.8984700000000002  0.05295  1.0000
  C   C95       1.0  0.42795999999999995  0.77465  0.17604999999999998  1.0000
  C   C96       1.0  0.14051  0.79855  0.8488  1.0000
  C   C97       1.0  0.00281  0.18484  0.8499700000000001  1.0000
  C   C98       1.0  0.11221999999999999  0.9093200000000002  0.9099  1.0000
  C   C99       1.0  0.41403999999999996  0.91134  0.07967  1.0000
  C   C100      1.0  0.03253999999999999  0.15358  0.88034  1.0000
  C   C101      1.0  0.13893999999999998  0.15894  0.83618  1.0000
  C   C102      1.0  0.13678  0.10507000000000002  0.90293  1.0000
  C   C103      1.0  0.25051  0.9027300000000003  0.93398  1.0000
  C   C104      1.0  0.13099999999999998  0.8913600000000003  0.54621  1.0000
  C   C105      1.0  0.07404  0.8628800000000002  0.8197499999999999  1.0000
  C   C106      1.0  0.14162  0.93645  0.94389  1.0000
  C   C107      1.0  0.30594999999999994  0.8689600000000002  0.0858  1.0000
  C   C108      1.0  0.10554  0.19054  0.80815  1.0000
  C   C109      1.0  0.4490199999999999  0.8676400000000002  0.17113  1.0000
  C   C110      1.0  0.47476999999999997  0.84124  0.20707  1.0000
  C   C111      1.0  0.12798  0.10288  0.95135  1.0000
  C   C112      1.0  0.04515999999999999  0.83344  0.78753  1.0000
  C   C113      1.0  0.40722  0.84695  0.13658  1.0000
  C   C114      1.0  0.13222  0.79815  0.68631  1.0000
  C   C115      1.0  0.04944  0.8357700000000002  0.61929  1.0000
  C   C116      1.0  0.16502999999999995  0.07055  0.97663  1.0000
  C   C117      1.0  0.18840999999999994  0.9242100000000002  0.61221  1.0000
  C   C118      1.0  0.21310999999999997  0.03848  0.9108  1.0000
  C   C119      1.0  0.15784  0.9274400000000003  0.5205  1.0000
  C   C120      1.0  0.20949999999999996  0.9604600000000002  0.5845200000000002  1.0000
  C   C121      1.0  0.3809699999999999  0.14794  0.12319  1.0000
  C   C122      1.0  0.39727  0.86106  0.37397  1.0000
  C   C123      1.0  0.3767199999999999  0.15405000000000005  0.35226  1.0000
  C   C124      1.0  0.10288  0.20121  0.64013  1.0000
  C   C125      1.0  0.47500999999999993  0.19799  0.14929  1.0000
  C   C126      1.0  0.12403  0.12506  0.60056  1.0000
  C   C127      1.0  0.3463799999999999  0.12414  0.38678  1.0000
  C   C128      1.0  0.33982999999999997  0.16776  0.15874  1.0000
  C   C129      1.0  0.27475  0.12637000000000004  0.39995  1.0000
  C   C130      1.0  0.39422  0.22908000000000006  0.31722  1.0000
  C   C131      1.0  0.11808999999999999  0.06126  0.54684  1.0000
  C   C132      1.0  0.31878  0.92891  0.38321  1.0000
  C   C133      1.0  0.35398  0.11158000000000003  0.09398  1.0000
  C   C134      1.0  0.22214999999999996  0.10150000000000003  0.5529899999999999  1.0000
  C   C135      1.0  0.07186  0.22528000000000004  0.676  1.0000
  C   C136      1.0  0.3595699999999999  0.20148  0.34877  1.0000
  C   C137      1.0  0.49721  0.81498  0.35013  1.0000
  C   C138      1.0  0.38775  0.09069000000000002  0.40979  1.0000
  C   C139      1.0  0.08612999999999998  0.08867000000000003  0.57971  1.0000
  C   C140      1.0  0.46763  0.8464500000000003  0.38038  1.0000
  C   C141      1.0  0.36124  0.84112  0.33621  1.0000
  C   C142      1.0  0.36336  0.89506  0.40285  1.0000
  C   C143      1.0  0.24945999999999996  0.09719000000000003  0.43393  1.0000
  C   C144      1.0  0.3689999999999999  0.10881000000000003  0.04629  1.0000
  C   C145      1.0  0.42603  0.13710000000000003  0.31976  1.0000
  C   C146      1.0  0.35851  0.06356000000000002  0.44381000000000004  1.0000
  C   C147      1.0  0.19423  0.13105  0.5858399999999999  1.0000
  C   C148      1.0  0.39444999999999997  0.80935  0.30834  1.0000
  C   C149      1.0  0.05082  0.1323  0.67107  1.0000
  C   C150      1.0  0.02513  0.15869  0.707  1.0000
  C   C151      1.0  0.37206  0.8971800000000002  0.45128  1.0000
  C   C152      1.0  0.45509999999999995  0.16653  0.28761  1.0000
  C   C153      1.0  0.09284  0.15298000000000006  0.63662  1.0000
  C   C154      1.0  0.36782  0.20188  0.18641  1.0000
  C   C155      1.0  0.45076  0.16433  0.11938  1.0000
  C   C156      1.0  0.33473  0.9293200000000003  0.47661  1.0000
  C   C157      1.0  0.31155  0.07590000000000002  0.11224  1.0000
  C   C158      1.0  0.28654  0.9613700000000002  0.41078  1.0000
  C   C159      1.0  0.34211  0.07279000000000002  0.02053  1.0000
  C   C160      1.0  0.2904399999999999  0.03972  0.08453  1.0000
  C   C161      1.0  0.11912  0.6478000000000003  0.1231  1.0000
  C   C162      1.0  0.10277  0.3610800000000001  0.374  1.0000
  C   C163      1.0  0.12345999999999999  0.65398  0.35229  1.0000
  C   C164      1.0  0.39693  0.7013600000000002  0.64012  1.0000
  C   C165      1.0  0.02492  0.6975600000000002  0.14931  1.0000
  C   C166      1.0  0.37637  0.62521  0.6004200000000001  1.0000
  C   C167      1.0  0.15357  0.62415  0.38697  1.0000
  C   C168      1.0  0.16018  0.66763  0.15868  1.0000
  C   C169      1.0  0.22518  0.6263100000000001  0.4001  1.0000
  C   C170      1.0  0.10636999999999999  0.7291000000000002  0.3174  1.0000
  C   C171      1.0  0.38191  0.56108  0.54701  1.0000
  C   C172      1.0  0.18118999999999996  0.4289800000000001  0.38315  1.0000
  C   C173      1.0  0.14629  0.61159  0.09377  1.0000
  C   C174      1.0  0.27789  0.60145  0.55327  1.0000
  C   C175      1.0  0.42756  0.72542  0.6761399999999999  1.0000
  C   C176      1.0  0.14068  0.7013900000000002  0.34898  1.0000
  C   C177      1.0  0.00283  0.31499  0.35015  1.0000
  C   C178      1.0  0.11223999999999999  0.5906000000000001  0.40992  1.0000
  C   C179      1.0  0.41418  0.58864  0.57965  1.0000
  C   C180      1.0  0.032389999999999995  0.3464500000000001  0.3804  1.0000
  C   C181      1.0  0.13882999999999998  0.34117  0.33623  1.0000
  C   C182      1.0  0.13661999999999996  0.39511  0.40284  1.0000
  C   C183      1.0  0.25049999999999994  0.5972000000000002  0.43414  1.0000
  C   C184      1.0  0.13128  0.60875  0.04607  1.0000
  C   C185      1.0  0.07401999999999999  0.6372200000000001  0.31981  1.0000
  C   C186      1.0  0.14151  0.5635500000000002  0.44399  1.0000
  C   C187      1.0  0.30609  0.6311  0.58586  1.0000
  C   C188      1.0  0.10561  0.3093700000000001  0.30834  1.0000
  C   C189      1.0  0.4491  0.6324300000000003  0.67109  1.0000
  C   C190      1.0  0.47436999999999996  0.6587900000000002  0.70718  1.0000
  C   C191      1.0  0.12794  0.3972700000000001  0.45127  1.0000
  C   C192      1.0  0.04537999999999999  0.66678  0.28758  1.0000
  C   C193      1.0  0.40729  0.65315  0.63651  1.0000
  C   C194      1.0  0.13192  0.70155  0.18651  1.0000
  C   C195      1.0  0.04932  0.6641  0.1193  1.0000
  C   C196      1.0  0.1654  0.4293800000000001  0.47657  1.0000
  C   C197      1.0  0.18868  0.57593  0.11207  1.0000
  C   C198      1.0  0.21352  0.4614200000000001  0.4107  1.0000
  C   C199      1.0  0.15799  0.57262  0.02041  1.0000
  C   C200      1.0  0.20965999999999996  0.53964  0.08446  1.0000
  C   C201      1.0  0.38083  0.3520500000000001  0.62307  1.0000
  C   C202      1.0  0.39718  0.6390800000000002  0.87402  1.0000
  C   C203      1.0  0.3766499999999999  0.34603  0.85224  1.0000
  C   C204      1.0  0.10303999999999998  0.29881  0.14025  1.0000
  C   C205      1.0  0.47485  0.3020000000000001  0.64906  1.0000
  C   C206      1.0  0.12386  0.37491  0.1005  1.0000
  C   C207      1.0  0.34652  0.3757900000000001  0.8869699999999999  1.0000
  C   C208      1.0  0.3396599999999999  0.3322  0.65856  1.0000
  C   C209      1.0  0.27491  0.3735600000000001  0.9001  1.0000
  C   C210      1.0  0.39395  0.27106  0.81703  1.0000
  C   C211      1.0  0.1179  0.4387100000000001  0.04673  1.0000
  C   C212      1.0  0.3187499999999999  0.5711500000000003  0.88317  1.0000
  C   C213      1.0  0.35401999999999995  0.3886000000000001  0.59394  1.0000
  C   C214      1.0  0.22198  0.39839  0.05287  1.0000
  C   C215      1.0  0.07180999999999997  0.27474  0.17609  1.0000
  C   C216      1.0  0.35951  0.2986000000000001  0.84871  1.0000
  C   C217      1.0  0.49741  0.68489  0.85016  1.0000
  C   C218      1.0  0.38782999999999995  0.40928000000000003  0.90998  1.0000
  C   C219      1.0  0.086  0.41135  0.07969  1.0000
  C   C220      1.0  0.46762  0.65358  0.88046  1.0000
  C   C221      1.0  0.36127999999999993  0.6589900000000002  0.83621  1.0000
  C   C222      1.0  0.36334  0.60496  0.90281  1.0000
  C   C223      1.0  0.24952  0.4027300000000001  0.93407  1.0000
  C   C224      1.0  0.36904  0.3913600000000001  0.54627  1.0000
  C   C225      1.0  0.42594999999999994  0.3629500000000001  0.8197499999999999  1.0000
  C   C226      1.0  0.35843  0.4364200000000001  0.9439700000000001  1.0000
  C   C227      1.0  0.19412  0.36897  0.08579  1.0000
  C   C228      1.0  0.3947199999999999  0.6906400000000001  0.80826  1.0000
  C   C229      1.0  0.05102  0.36774  0.17116  1.0000
  C   C230      1.0  0.02513  0.34136  0.20704  1.0000
  C   C231      1.0  0.3719799999999999  0.6028900000000003  0.95123  1.0000
  C   C232      1.0  0.45478999999999997  0.3336  0.78745  1.0000
  C   C233      1.0  0.09280999999999999  0.34699  0.13662  1.0000
  C   C234      1.0  0.36769999999999997  0.29802  0.68617  1.0000
  C   C235      1.0  0.4505799999999999  0.3357400000000001  0.61925  1.0000
  C   C236      1.0  0.33503999999999995  0.5705200000000002  0.97653  1.0000
  C   C237      1.0  0.3116899999999999  0.42427  0.61224  1.0000
  C   C238      1.0  0.28694  0.5384300000000001  0.91071  1.0000
  C   C239      1.0  0.34212  0.42739  0.5205  1.0000
  C   C240      1.0  0.29053  0.46045000000000014  0.58449  1.0000
  C   C241      1.0  0.88085  0.14793000000000006  0.37692  1.0000
  C   C242      1.0  0.89725  0.86114  0.1259  1.0000
  C   C243      1.0  0.8765999999999999  0.15396  0.14776  1.0000
  C   C244      1.0  0.60304  0.20116  0.8597799999999999  1.0000
  C   C245      1.0  0.9748499999999999  0.19797000000000003  0.35091  1.0000
  C   C246      1.0  0.62391  0.12507  0.89952  1.0000
  C   C247      1.0  0.8464699999999998  0.12416000000000003  0.11304  1.0000
  C   C248      1.0  0.83971  0.16774000000000006  0.34139  1.0000
  C   C249      1.0  0.7748499999999999  0.12638000000000002  0.09989  1.0000
  C   C250      1.0  0.894  0.22897  0.18282  1.0000
  C   C251      1.0  0.61792  0.06122  0.95325  1.0000
  C   C252      1.0  0.8186599999999998  0.9290600000000002  0.11682  1.0000
  C   C253      1.0  0.8540099999999999  0.11138000000000003  0.40603  1.0000
  C   C254      1.0  0.7220599999999999  0.10150000000000003  0.94712  1.0000
  C   C255      1.0  0.5717699999999998  0.22522  0.82399  1.0000
  C   C256      1.0  0.8594299999999999  0.20139  0.15124  1.0000
  C   C257      1.0  0.99728  0.8150500000000003  0.1496  1.0000
  C   C258      1.0  0.88783  0.09068000000000002  0.09006  1.0000
  C   C259      1.0  0.58607  0.0886  0.92033  1.0000
  C   C260      1.0  0.96761  0.8465400000000002  0.11942  1.0000
  C   C261      1.0  0.8612799999999999  0.8411300000000002  0.16366  1.0000
  C   C262      1.0  0.8633599999999999  0.8952400000000003  0.0972  1.0000
  C   C263      1.0  0.74956  0.09719000000000003  0.0659  1.0000
  C   C264      1.0  0.86897  0.10858000000000002  0.45372  1.0000
  C   C265      1.0  0.9259299999999999  0.13704  0.18023  1.0000
  C   C266      1.0  0.85853  0.06355  0.05605  1.0000
  C   C267      1.0  0.6942  0.13101  0.91425  1.0000
  C   C268      1.0  0.89456  0.80932  0.19145  1.0000
  C   C269      1.0  0.55101  0.13221  0.82891  1.0000
  C   C270      1.0  0.52506  0.15856  0.79303  1.0000
  C   C271      1.0  0.8718999999999998  0.8973300000000002  0.04876  1.0000
  C   C272      1.0  0.9548799999999998  0.16647000000000006  0.21242  1.0000
  C   C273      1.0  0.5928999999999998  0.15293000000000007  0.8634  1.0000
  C   C274      1.0  0.86774  0.20193  0.31378  1.0000
  C   C275      1.0  0.9506099999999998  0.16426  0.38073  1.0000
  C   C276      1.0  0.8346799999999999  0.92951  0.02344  1.0000
  C   C277      1.0  0.8115799999999997  0.07577  0.38772  1.0000
  C   C278      1.0  0.7865299999999998  0.9615700000000003  0.08926  1.0000
  C   C279      1.0  0.8420599999999999  0.07254000000000002  0.47943  1.0000
  C   C280      1.0  0.7903899999999999  0.039550000000000016  0.41544  1.0000
  C   C281      1.0  0.61897  0.85209  0.87685  1.0000
  C   C282      1.0  0.60278  0.13893000000000003  0.62601  1.0000
  C   C283      1.0  0.6233  0.84592  0.64766  1.0000
  C   C284      1.0  0.8968699999999998  0.7988000000000002  0.35985  1.0000
  C   C285      1.0  0.5248399999999999  0.80216  0.8508599999999998  1.0000
  C   C286      1.0  0.8762499999999999  0.87486  0.39966  1.0000
  C   C287      1.0  0.65353  0.8758500000000002  0.61308  1.0000
  C   C288      1.0  0.66011  0.8322200000000002  0.84135  1.0000
  C   C289      1.0  0.72515  0.8736400000000002  0.5999700000000001  1.0000
  C   C290      1.0  0.60622  0.7708900000000002  0.68276  1.0000
  C   C291      1.0  0.8819399999999998  0.93885  0.45322  1.0000
  C   C292      1.0  0.6811799999999998  0.07101  0.61684  1.0000
  C   C293      1.0  0.64609  0.8885000000000002  0.90605  1.0000
  C   C294      1.0  0.7778999999999999  0.89851  0.44704  1.0000
  C   C295      1.0  0.92772  0.7747500000000003  0.32393  1.0000
  C   C296      1.0  0.64056  0.7984900000000003  0.65109  1.0000
  C   C297      1.0  0.5029299999999999  0.18511000000000005  0.64984  1.0000
  C   C298      1.0  0.61218  0.90936  0.59012  1.0000
  C   C299      1.0  0.91403  0.91136  0.42046  1.0000
  C   C300      1.0  0.5324  0.15358  0.61964  1.0000
  C   C301      1.0  0.63883  0.15883  0.66375  1.0000
  C   C302      1.0  0.63656  0.10486000000000002  0.59719  1.0000
  C   C303      1.0  0.7504999999999998  0.90282  0.566  1.0000
  C   C304      1.0  0.6310699999999999  0.8913200000000001  0.95373  1.0000
  C   C305      1.0  0.5740099999999999  0.86278  0.68017  1.0000
  C   C306      1.0  0.64145  0.93645  0.55611  1.0000
  C   C307      1.0  0.8059599999999998  0.8689300000000002  0.41431  1.0000
  C   C308      1.0  0.60572  0.19070000000000004  0.69162  1.0000
  C   C309      1.0  0.9489899999999999  0.86772  0.32895  1.0000
  C   C310      1.0  0.9745099999999999  0.8414  0.29291  1.0000
  C   C311      1.0  0.62789  0.10271000000000002  0.54876  1.0000
  C   C312      1.0  0.54527  0.8333400000000002  0.71245  1.0000
  C   C313      1.0  0.90716  0.847  0.36349  1.0000
  C   C314      1.0  0.6319199999999999  0.79813  0.81367  1.0000
  C   C315      1.0  0.54924  0.8357700000000002  0.88075  1.0000
  C   C316      1.0  0.6653299999999998  0.07063000000000003  0.52343  1.0000
  C   C317      1.0  0.68849  0.9241200000000003  0.8877  1.0000
  C   C318      1.0  0.7135199999999998  0.03859  0.58926  1.0000
  C   C319      1.0  0.65796  0.9273800000000002  0.9794300000000001  1.0000
  C   C320      1.0  0.70962  0.9603500000000003  0.91538  1.0000
  N   N1        1.0  0.5350699999999999  0.29502  0.28937  1.0000
  N   N2        1.0  0.94182  0.28751  0.71398  1.0000
  N   N3        1.0  0.79014  0.4338200000000001  0.54266  1.0000
  N   N4        1.0  0.9621799999999999  0.7045600000000002  0.68571  1.0000
  N   N5        1.0  0.68554  0.4333100000000001  0.46719  1.0000
  N   N6        1.0  0.9343399999999998  0.2815200000000001  0.81802  1.0000
  N   N7        1.0  0.80524  0.46317  0.9613  1.0000
  N   N8        1.0  0.79139  0.53828  0.54261  1.0000
  N   N9        1.0  0.9651899999999998  0.7049500000000001  0.78955  1.0000
  N   N10       1.0  0.55855  0.7126100000000002  0.21398  1.0000
  N   N11       1.0  0.7100699999999999  0.56614  0.04275  1.0000
  N   N12       1.0  0.5377  0.2955600000000001  0.18585  1.0000
  N   N13       1.0  0.81424  0.5666700000000002  0.9672499999999999  1.0000
  N   N14       1.0  0.56553  0.7183500000000002  0.31791  1.0000
  N   N15       1.0  0.6954399999999998  0.5369300000000001  0.46123  1.0000
  N   N16       1.0  0.70782  0.46190000000000003  0.04245  1.0000
  N   N17       1.0  0.4652299999999999  0.7949700000000002  0.21049  1.0000
  N   N18       1.0  0.0585  0.78733  0.78609  1.0000
  N   N19       1.0  0.21004999999999993  0.93376  0.9573  1.0000
  N   N20       1.0  0.03771  0.20421  0.81385  1.0000
  N   N21       1.0  0.3145499999999999  0.93325  0.03262  1.0000
  N   N22       1.0  0.06549999999999999  0.78185  0.68227  1.0000
  N   N23       1.0  0.19507  0.96319  0.53871  1.0000
  N   N24       1.0  0.20733999999999994  0.03781  0.95751  1.0000
  N   N25       1.0  0.03431  0.20501  0.71024  1.0000
  N   N26       1.0  0.44209999999999994  0.21268  0.28633  1.0000
  N   N27       1.0  0.28998  0.06615  0.45719000000000004  1.0000
  N   N28       1.0  0.46219  0.7954500000000001  0.3142  1.0000
  N   N29       1.0  0.18565  0.06676  0.53269  1.0000
  N   N30       1.0  0.43465999999999994  0.2182  0.18236000000000002  1.0000
  N   N31       1.0  0.30486  0.03705000000000001  0.03867  1.0000
  N   N32       1.0  0.2919  0.9618100000000003  0.45752000000000004  1.0000
  N   N33       1.0  0.46442999999999995  0.70509  0.7107  1.0000
  N   N34       1.0  0.058979999999999984  0.71282  0.28614  1.0000
  N   N35       1.0  0.20989  0.5663  0.45758  1.0000
  N   N36       1.0  0.03786  0.29550000000000004  0.31416  1.0000
  N   N37       1.0  0.31434999999999996  0.5665  0.53306  1.0000
  N   N38       1.0  0.06509  0.71771  0.18259  1.0000
  N   N39       1.0  0.19525  0.53691  0.03862  1.0000
  N   N40       1.0  0.20845999999999998  0.4617300000000001  0.45746  1.0000
  N   N41       1.0  0.034499999999999996  0.29500000000000004  0.21039  1.0000
  N   N42       1.0  0.44145999999999996  0.28745  0.78594  1.0000
  N   N43       1.0  0.29001999999999994  0.43379  0.95735  1.0000
  N   N44       1.0  0.46255999999999997  0.70434  0.8141  1.0000
  N   N45       1.0  0.18535  0.4331800000000001  0.03247  1.0000
  N   N46       1.0  0.4344299999999999  0.28167  0.68211  1.0000
  N   N47       1.0  0.30482  0.46307  0.53866  1.0000
  N   N48       1.0  0.29279  0.53774  0.9574  1.0000
  N   N49       1.0  0.53435  0.20493  0.78969  1.0000
  N   N50       1.0  0.94171  0.2126  0.21382  1.0000
  N   N51       1.0  0.79007  0.06623  0.04261  1.0000
  N   N52       1.0  0.9622699999999997  0.7954000000000002  0.18552  1.0000
  N   N53       1.0  0.6855  0.06677000000000001  0.9675  1.0000
  N   N54       1.0  0.9343999999999999  0.2183  0.31785  1.0000
  N   N55       1.0  0.8046399999999998  0.036870000000000014  0.46122  1.0000
  N   N56       1.0  0.7918699999999997  0.96202  0.04252  1.0000
  N   N57       1.0  0.9646699999999999  0.7950900000000002  0.28938  1.0000
  N   N58       1.0  0.5587299999999997  0.78722  0.71387  1.0000
  N   N59       1.0  0.70998  0.93382  0.54271  1.0000
  N   N60       1.0  0.5380799999999999  0.20469  0.68576  1.0000
  N   N61       1.0  0.81438  0.9333400000000001  0.46735  1.0000
  N   N62       1.0  0.56518  0.7819400000000002  0.81769  1.0000
  N   N63       1.0  0.69536  0.96302  0.96119  1.0000
  N   N64       1.0  0.70839  0.03826  0.54251  1.0000
