data_image0
_chemical_formula_structural       Zn12H384C456N192
_chemical_formula_sum              "Zn12 H384 C456 N192"
_cell_length_a       26.97492
_cell_length_b       26.9749
_cell_length_c       26.97502
_cell_angle_alpha    109.51489
_cell_angle_beta     109.52011
_cell_angle_gamma    109.51924

_symmetry_space_group_name_H-M    'P 1'
_symmetry_Int_Tables_number       1

loop_
  _symmetry_equiv_pos_as_xyz
  'x,y,z'

loop_
  _atom_site_type_symbol
  _atom_site_label
  _atom_site_symmetry_multiplicity
  _atom_site_fract_x
  _atom_site_fract_y
  _atom_site_fract_z
  _atom_site_occupancy
  Zn  Zn1       1.0  0.87503  0.24997  0.12511  1.0000
  Zn  Zn2       1.0  0.75003  0.125  0.37491  1.0000
  Zn  Zn3       1.0  0.2500299999999999  0.3749199999999999  0.125  1.0000
  Zn  Zn4       1.0  0.24996999999999994  0.875  0.62508  1.0000
  Zn  Zn5       1.0  0.12518  0.37503999999999993  0.74997  1.0000
  Zn  Zn6       1.0  0.7499700000000001  0.6250800000000001  0.8750000000000001  1.0000
  Zn  Zn7       1.0  0.37502  0.12511  0.24997000000000003  1.0000
  Zn  Zn8       1.0  0.12497  0.7500299999999999  0.8748900000000001  1.0000
  Zn  Zn9       1.0  0.87483  0.62496  0.25003  1.0000
  Zn  Zn10      1.0  0.62498  0.87489  0.75003  1.0000
  Zn  Zn11      1.0  0.3748299999999999  0.25003  0.62496  1.0000
  Zn  Zn12      1.0  0.62517  0.74997  0.37504  1.0000
  H   H1        1.0  0.8843  0.09512999999999999  0.09253000000000002  1.0000
  H   H2        1.0  0.67297  0.43815000000000004  0.47004000000000007  1.0000
  H   H3        1.0  0.78923  0.88475  0.7921500000000001  1.0000
  H   H4        1.0  0.64664  0.8767900000000002  0.2237  1.0000
  H   H5        1.0  0.7794199999999998  0.94191  0.24411  1.0000
  H   H6        1.0  0.4905599999999999  0.38918  0.11716  1.0000
  H   H7        1.0  0.70291  0.17247  0.73456  1.0000
  H   H8        1.0  0.22057999999999997  0.05809000000000008  0.7558800000000001  1.0000
  H   H9        1.0  0.6152599999999999  0.70786  0.21077  1.0000
  H   H10       1.0  0.42301999999999995  0.26979  0.14709  1.0000
  H   H11       1.0  0.4420599999999999  0.07908999999999991  0.70611  1.0000
  H   H12       1.0  0.5785199999999999  0.36028  0.13502  1.0000
  H   H13       1.0  0.6534199999999999  0.3771  0.73029  1.0000
  H   H14       1.0  0.46458  0.80222  0.2443  1.0000
  H   H15       1.0  0.54817  0.68089  0.4234200000000001  1.0000
  H   H16       1.0  0.81911  0.07656999999999997  0.45183  1.0000
  H   H17       1.0  0.13936  0.77474  0.21801  1.0000
  H   H18       1.0  0.22370999999999994  0.1466399999999999  0.37676999999999994  1.0000
  H   H19       1.0  0.35292  0.23023  0.07699  1.0000
  H   H20       1.0  0.7921399999999998  0.28924  0.38475  1.0000
  H   H21       1.0  0.15342  0.73029  0.3771  1.0000
  H   H22       1.0  0.3649900000000001  0.13971000000000008  0.9214700000000001  1.0000
  H   H23       1.0  0.50944  0.61082  0.88284  1.0000
  H   H24       1.0  0.9208999999999998  0.55793  0.7938800000000001  1.0000
  H   H25       1.0  0.7443099999999999  0.30223  0.96457  1.0000
  H   H26       1.0  0.047910000000000015  0.62446  0.8668100000000001  1.0000
  H   H27       1.0  0.6229  0.34658999999999995  0.76973  1.0000
  H   H28       1.0  0.63572  0.7749  0.0569  1.0000
  H   H29       1.0  0.47005  0.1729700000000001  0.9381600000000001  1.0000
  H   H30       1.0  0.27942  0.24411  0.94191  1.0000
  H   H31       1.0  0.22525999999999996  0.8606299999999999  0.28198  1.0000
  H   H32       1.0  0.26403999999999994  0.12725999999999993  0.70594  1.0000
  H   H33       1.0  0.8770999999999999  0.23026999999999995  0.65341  1.0000
  H   H34       1.0  0.4048399999999998  0.9974899999999999  0.78941  1.0000
  H   H35       1.0  0.44196  0.69773  0.1623  1.0000
  H   H36       1.0  0.5790999999999997  0.20610999999999996  0.44207  1.0000
  H   H37       1.0  0.7278499999999998  0.61688  0.6267  1.0000
  H   H38       1.0  0.95183  0.57658  0.31911  1.0000
  H   H39       1.0  0.87327  0.88312  0.77216  1.0000
  H   H40       1.0  0.8649899999999999  0.92148  0.13971  1.0000
  H   H41       1.0  0.23469999999999994  0.56233  0.5318  1.0000
  H   H42       1.0  0.9376599999999999  0.9681999999999998  0.7653  1.0000
  H   H43       1.0  0.6350199999999999  0.86029  0.07853  1.0000
  H   H44       1.0  0.6272599999999998  0.20594  0.26404  1.0000
  H   H45       1.0  0.55691  0.2749  0.13571  1.0000
  H   H46       1.0  0.9213  0.36328999999999995  0.62746  1.0000
  H   H47       1.0  0.43764999999999993  0.7653  0.9682  1.0000
  H   H48       1.0  0.55804  0.30227000000000004  0.8377000000000001  1.0000
  H   H49       1.0  0.24410999999999988  0.27943  0.44191  1.0000
  H   H50       1.0  0.45183000000000006  0.31911  0.57658  1.0000
  H   H51       1.0  0.6274599999999999  0.42130999999999996  0.86328  1.0000
  H   H52       1.0  0.5926499999999999  0.9971999999999999  0.70804  1.0000
  H   H53       1.0  0.9682699999999997  0.030470000000000004  0.20282  1.0000
  H   H54       1.0  0.9645099999999998  0.72013  0.66231  1.0000
  H   H55       1.0  0.04816999999999998  0.42342  0.68089  1.0000
  H   H56       1.0  0.53549  0.33768  0.27987  1.0000
  H   H57       1.0  0.38895999999999986  0.89873  0.27212  1.0000
  H   H58       1.0  0.05689999999999999  0.13571  0.2749  1.0000
  H   H59       1.0  0.13971  0.36498  0.42148  1.0000
  H   H60       1.0  0.8275399999999998  0.29709  0.76545  1.0000
  H   H61       1.0  0.65372  0.27616  0.42327  1.0000
  H   H62       1.0  0.37253999999999987  0.57869  0.13672  1.0000
  H   H63       1.0  0.7426799999999998  0.8191899999999999  0.36718  1.0000
  H   H64       1.0  0.8889599999999998  0.27211999999999986  0.89873  1.0000
  H   H65       1.0  0.3376899999999999  0.53549  0.77986  1.0000
  H   H66       1.0  0.22383999999999996  0.07672  0.34629  1.0000
  H   H67       1.0  0.29709  0.82753  0.26544  1.0000
  H   H68       1.0  0.63662  0.55783  0.26383  1.0000
  H   H69       1.0  0.74289  0.9238199999999999  0.87598  1.0000
  H   H70       1.0  0.85336  0.7763  0.12321  1.0000
  H   H71       1.0  0.92302  0.14708  0.2698  1.0000
  H   H72       1.0  0.7361899999999998  0.86337  0.94218  1.0000
  H   H73       1.0  0.8737499999999998  0.99071  0.6018  1.0000
  H   H74       1.0  0.11715999999999997  0.99055  0.8891700000000001  1.0000
  H   H75       1.0  0.29387  0.05793  0.42091  1.0000
  H   H76       1.0  0.17247  0.7029  0.23455  1.0000
  H   H77       1.0  0.7278799999999997  0.11102999999999998  0.60129  1.0000
  H   H78       1.0  0.9420599999999999  0.70611  0.0791  1.0000
  H   H79       1.0  0.59513  0.59253  0.8843  1.0000
  H   H80       1.0  0.77216  0.3733  0.38312000000000007  1.0000
  H   H81       1.0  0.05794000000000006  0.29388  0.9209  1.0000
  H   H82       1.0  0.029949999999999994  0.06184  0.82702  1.0000
  H   H83       1.0  0.88284  0.00944000000000001  0.11083000000000001  1.0000
  H   H84       1.0  0.9048699999999998  0.11570000000000004  0.40747  1.0000
  H   H85       1.0  0.53047  0.7028200000000001  0.9682700000000001  1.0000
  H   H86       1.0  0.38918  0.49055  0.61716  1.0000
  H   H87       1.0  0.22013000000000005  0.16232  0.96452  1.0000
  H   H88       1.0  0.84628  0.57673  0.72384  1.0000
  H   H89       1.0  0.78199  0.36064  0.72526  1.0000
  H   H90       1.0  0.8987299999999998  0.38896  0.77212  1.0000
  H   H91       1.0  0.8755299999999998  0.63318  0.95209  1.0000
  H   H92       1.0  0.7078699999999999  0.61525  0.71076  1.0000
  H   H93       1.0  0.07882000000000003  0.94333  0.21816000000000002  1.0000
  H   H94       1.0  0.38284  0.11083  0.00944  1.0000
  H   H95       1.0  0.24268000000000003  0.36718  0.81919  1.0000
  H   H96       1.0  0.21801000000000004  0.63936  0.27474  1.0000
  H   H97       1.0  0.92383  0.74289  0.37598000000000004  1.0000
  H   H98       1.0  0.16229999999999994  0.9419399999999999  0.19772000000000003  1.0000
  H   H99       1.0  0.52995  0.82702  0.06184  1.0000
  H   H100      1.0  0.27616000000000007  0.65371  0.92327  1.0000
  H   H101      1.0  0.73021  0.5769899999999999  0.35292  1.0000
  H   H102      1.0  0.17297  0.47004  0.43815  1.0000
  H   H103      1.0  0.25712  0.07618000000000001  0.12402000000000002  1.0000
  H   H104      1.0  0.3755299999999999  0.95209  0.63318  1.0000
  H   H105      1.0  0.05803999999999996  0.8377  0.30227  1.0000
  H   H106      1.0  0.12746000000000002  0.86328  0.4213100000000001  1.0000
  H   H107      1.0  0.09513000000000003  0.8843  0.59253  1.0000
  H   H108      1.0  0.11570000000000008  0.90486  0.9074700000000001  1.0000
  H   H109      1.0  0.061849999999999995  0.029960000000000004  0.32704  1.0000
  H   H110      1.0  0.37677999999999995  0.7237099999999999  0.64665  1.0000
  H   H111      1.0  0.79388  0.42090999999999995  0.05793  1.0000
  H   H112      1.0  0.4421799999999999  0.36338  0.23619  1.0000
  H   H113      1.0  0.7762999999999998  0.8533599999999999  0.62323  1.0000
  H   H114      1.0  0.21815999999999994  0.57882  0.44333  1.0000
  H   H115      1.0  0.8606399999999998  0.22526  0.78199  1.0000
  H   H116      1.0  0.2080599999999999  0.4972299999999999  0.09266  1.0000
  H   H117      1.0  0.6367099999999999  0.07868000000000006  0.87252  1.0000
  H   H118      1.0  0.69772  0.44195  0.66231  1.0000
  H   H119      1.0  0.16231000000000004  0.22013000000000002  0.46451000000000003  1.0000
  H   H120      1.0  0.76544  0.3275300000000001  0.7971000000000001  1.0000
  H   H121      1.0  0.7697300000000001  0.12291000000000012  0.8465900000000001  1.0000
  H   H122      1.0  0.12727000000000002  0.26404  0.20594000000000004  1.0000
  H   H123      1.0  0.10182  0.49073  0.37376  1.0000
  H   H124      1.0  0.6018199999999998  0.37376  0.49073  1.0000
  H   H125      1.0  0.24431000000000003  0.96458  0.30223  1.0000
  H   H126      1.0  0.035489999999999945  0.2798699999999999  0.33768  1.0000
  H   H127      1.0  0.11103999999999994  0.7278799999999999  0.10127  1.0000
  H   H128      1.0  0.29717  0.46952  0.53173  1.0000
  H   H129      1.0  0.59516  0.002509999999999999  0.21059  1.0000
  H   H130      1.0  0.68089  0.54817  0.92343  1.0000
  H   H131      1.0  0.8831299999999999  0.8733  0.27216  1.0000
  H   H132      1.0  0.6623099999999998  0.4645099999999999  0.22013  1.0000
  H   H133      1.0  0.9381499999999998  0.9700299999999998  0.67296  1.0000
  H   H134      1.0  0.9419599999999999  0.1623  0.69773  1.0000
  H   H135      1.0  0.71801  0.27473  0.63936  1.0000
  H   H136      1.0  0.0027800000000000324  0.40735  0.79194  1.0000
  H   H137      1.0  0.88918  0.61716  0.49055000000000004  1.0000
  H   H138      1.0  0.03542  0.7557  0.19778  1.0000
  H   H139      1.0  0.7640399999999998  0.7059399999999999  0.12727  1.0000
  H   H140      1.0  0.35336  0.12321  0.7763  1.0000
  H   H141      1.0  0.36428  0.22509999999999994  0.9431  1.0000
  H   H142      1.0  0.42327  0.15371000000000004  0.7761499999999999  1.0000
  H   H143      1.0  0.86718  0.31918  0.24268000000000003  1.0000
  H   H144      1.0  0.2556899999999999  0.6977699999999999  0.03543  1.0000
  H   H145      1.0  0.42117999999999983  0.7818399999999999  0.05668  1.0000
  H   H146      1.0  0.7798699999999997  0.8376799999999999  0.03548  1.0000
  H   H147      1.0  0.69778  0.25569  0.53542  1.0000
  H   H148      1.0  0.1367  0.87252  0.07868  1.0000
  H   H149      1.0  0.86029  0.63501  0.57852  1.0000
  H   H150      1.0  0.90747  0.61568  0.40485000000000004  1.0000
  H   H151      1.0  0.56186  0.32704  0.029960000000000004  1.0000
  H   H152      1.0  0.42382999999999993  0.37597  0.74289  1.0000
  H   H153      1.0  0.09265000000000005  0.70804  0.9972  1.0000
  H   H154      1.0  0.4433299999999999  0.71816  0.07881  1.0000
  H   H155      1.0  0.8376900000000002  0.77987  0.53549  1.0000
  H   H156      1.0  0.25731999999999994  0.18080999999999994  0.63282  1.0000
  H   H157      1.0  0.13500999999999996  0.07851999999999999  0.86029  1.0000
  H   H158      1.0  0.46821  0.26529999999999987  0.93767  1.0000
  H   H159      1.0  0.20787  0.71076  0.61525  1.0000
  H   H160      1.0  0.8725399999999998  0.13672  0.57869  1.0000
  H   H161      1.0  0.9905599999999998  0.11715999999999997  0.38917  1.0000
  H   H162      1.0  0.07672999999999999  0.22383999999999996  0.84629  1.0000
  H   H163      1.0  0.9430999999999998  0.8642899999999999  0.7251  1.0000
  H   H164      1.0  0.15371999999999997  0.4232699999999999  0.27616  1.0000
  H   H165      1.0  0.42129999999999995  0.62747  0.36329  1.0000
  H   H166      1.0  0.40487  0.40747  0.1157  1.0000
  H   H167      1.0  0.57882  0.21816  0.94332  1.0000
  H   H168      1.0  0.3377  0.80228  0.05806  1.0000
  H   H169      1.0  0.4209  0.79388  0.55793  1.0000
  H   H170      1.0  0.24288  0.87598  0.92382  1.0000
  H   H171      1.0  0.7919400000000002  0.5027700000000002  0.9073400000000001  1.0000
  H   H172      1.0  0.3270299999999999  0.56185  0.52996  1.0000
  H   H173      1.0  0.29405  0.23595000000000005  0.37272  1.0000
  H   H174      1.0  0.6244699999999997  0.04791000000000003  0.36681  1.0000
  H   H175      1.0  0.21077999999999994  0.11525  0.20785000000000003  1.0000
  H   H176      1.0  0.7201299999999996  0.9645199999999999  0.16232  1.0000
  H   H177      1.0  0.07656999999999997  0.81909  0.95181  1.0000
  H   H178      1.0  0.7940499999999998  0.37271  0.23595000000000002  1.0000
  H   H179      1.0  0.7556999999999999  0.035419999999999986  0.69777  1.0000
  H   H180      1.0  0.31919999999999993  0.8671799999999998  0.74269  1.0000
  H   H181      1.0  0.71816  0.44333  0.57882  1.0000
  H   H182      1.0  0.57617  0.62402  0.25711  1.0000
  H   H183      1.0  0.6724599999999997  0.23454999999999998  0.7029  1.0000
  H   H184      1.0  0.7571199999999998  0.12401999999999999  0.07618  1.0000
  H   H185      1.0  0.6110399999999999  0.10126000000000006  0.7278800000000001  1.0000
  H   H186      1.0  0.7252599999999998  0.28198  0.86063  1.0000
  H   H187      1.0  0.7028299999999997  0.53047  0.46827  1.0000
  H   H188      1.0  0.6331999999999998  0.87553  0.4520799999999999  1.0000
  H   H189      1.0  0.49073  0.10181999999999994  0.87377  1.0000
  H   H190      1.0  0.00943999999999995  0.88284  0.61082  1.0000
  H   H191      1.0  0.95209  0.37554  0.13319  1.0000
  H   H192      1.0  0.7205799999999998  0.7558899999999998  0.05809  1.0000
  H   H193      1.0  0.8847399999999996  0.7892399999999999  0.29214  1.0000
  H   H194      1.0  0.27215999999999996  0.38311999999999996  0.37329999999999997  1.0000
  H   H195      1.0  0.99749  0.40484  0.2894  1.0000
  H   H196      1.0  0.1331999999999999  0.4520899999999999  0.8755299999999999  1.0000
  H   H197      1.0  0.2697299999999999  0.8466  0.12291  1.0000
  H   H198      1.0  0.8767800000000001  0.64665  0.72371  1.0000
  H   H199      1.0  0.4520899999999999  0.13319000000000003  0.37553  1.0000
  H   H200      1.0  0.3602899999999999  0.57852  0.63502  1.0000
  H   H201      1.0  0.22787999999999994  0.60129  0.11103  1.0000
  H   H202      1.0  0.62322  0.27629  0.35335  1.0000
  H   H203      1.0  0.9700499999999997  0.93816  0.17298  1.0000
  H   H204      1.0  0.2558899999999999  0.55809  0.72057  1.0000
  H   H205      1.0  0.38313  0.27215  0.87329  1.0000
  H   H206      1.0  0.7573199999999998  0.63282  0.18081  1.0000
  H   H207      1.0  0.3732699999999999  0.77216  0.88312  1.0000
  H   H208      1.0  0.62673  0.22784  0.11688  1.0000
  H   H209      1.0  0.63282  0.75732  0.68082  1.0000
  H   H210      1.0  0.23596000000000006  0.29406000000000004  0.8727300000000001  1.0000
  H   H211      1.0  0.70613  0.9420699999999997  0.57909  1.0000
  H   H212      1.0  0.22510000000000002  0.36428  0.44310000000000005  1.0000
  H   H213      1.0  0.19772000000000003  0.66231  0.44195  1.0000
  H   H214      1.0  0.87273  0.73596  0.79406  1.0000
  H   H215      1.0  0.28923  0.79214  0.88475  1.0000
  H   H216      1.0  0.29213999999999996  0.3847499999999999  0.28924  1.0000
  H   H217      1.0  0.03179000000000001  0.06233000000000006  0.7347  1.0000
  H   H218      1.0  0.12625  0.009280000000000005  0.39819  1.0000
  H   H219      1.0  0.36063999999999996  0.78199  0.22526  1.0000
  H   H220      1.0  0.1808  0.25731  0.13282  1.0000
  H   H221      1.0  0.26545  0.7971  0.32753  1.0000
  H   H222      1.0  0.1470800000000001  0.92301  0.76977  1.0000
  H   H223      1.0  0.8022299999999998  0.46458  0.7443  1.0000
  H   H224      1.0  0.39817999999999987  0.62623  0.50927  1.0000
  H   H225      1.0  0.5579399999999998  0.9209  0.29389  1.0000
  H   H226      1.0  0.38473999999999986  0.2921399999999999  0.7892299999999999  1.0000
  H   H227      1.0  0.07870000000000006  0.63671  0.37253  1.0000
  H   H228      1.0  0.18089000000000002  0.92343  0.54817  1.0000
  H   H229      1.0  0.5769799999999999  0.73021  0.85291  1.0000
  H   H230      1.0  0.61687  0.72784  0.12671  1.0000
  H   H231      1.0  0.76979  0.64708  0.42301  1.0000
  H   H232      1.0  0.20281999999999994  0.46827  0.53047  1.0000
  H   H233      1.0  0.07852  0.13502  0.36028  1.0000
  H   H234      1.0  0.43815  0.67296  0.97004  1.0000
  H   H235      1.0  0.61716  0.88917  0.99056  1.0000
  H   H236      1.0  0.07616999999999999  0.25711  0.62402  1.0000
  H   H237      1.0  0.29194  0.90734  0.50277  1.0000
  H   H238      1.0  0.27473999999999993  0.7180199999999999  0.13937  1.0000
  H   H239      1.0  0.20290999999999995  0.73456  0.17247  1.0000
  H   H240      1.0  0.11081999999999996  0.38284  0.50945  1.0000
  H   H241      1.0  0.5317899999999999  0.7346999999999999  0.06233  1.0000
  H   H242      1.0  0.36329  0.92132  0.12748  1.0000
  H   H243      1.0  0.31911  0.45182999999999995  0.07657  1.0000
  H   H244      1.0  0.30227999999999994  0.5580499999999999  0.33769  1.0000
  H   H245      1.0  0.12446999999999998  0.36681  0.04791  1.0000
  H   H246      1.0  0.058079999999999965  0.22057  0.25588  1.0000
  H   H247      1.0  0.46451  0.66231  0.72013  1.0000
  H   H248      1.0  0.056670000000000005  0.9211899999999998  0.28184  1.0000
  H   H249      1.0  0.53173  0.79717  0.96953  1.0000
  H   H250      1.0  0.42147999999999997  0.6397199999999998  0.86498  1.0000
  H   H251      1.0  0.40747  0.40485  0.61569  1.0000
  H   H252      1.0  0.7236999999999998  0.37677  0.14664  1.0000
  H   H253      1.0  0.7747399999999998  0.13935999999999998  0.71802  1.0000
  H   H254      1.0  0.13661999999999996  0.2638199999999999  0.55783  1.0000
  H   H255      1.0  0.7558899999999997  0.72057  0.55809  1.0000
  H   H256      1.0  0.9211799999999997  0.05666999999999997  0.78183  1.0000
  H   H257      1.0  0.6623  0.19772  0.9419400000000001  1.0000
  H   H258      1.0  0.46826999999999996  0.20282  0.03047  1.0000
  H   H259      1.0  0.36718  0.24268000000000003  0.31918  1.0000
  H   H260      1.0  0.4974899999999999  0.28940999999999995  0.40484  1.0000
  H   H261      1.0  0.57673  0.84629  0.22384  1.0000
  H   H262      1.0  0.2653  0.4682000000000001  0.43767000000000006  1.0000
  H   H263      1.0  0.50251  0.71059  0.59516  1.0000
  H   H264      1.0  0.63971  0.42147999999999997  0.36498  1.0000
  H   H265      1.0  0.7721199999999999  0.39870999999999995  0.88897  1.0000
  H   H266      1.0  0.11686999999999995  0.12670000000000003  0.72784  1.0000
  H   H267      1.0  0.8981799999999998  0.50927  0.62624  1.0000
  H   H268      1.0  0.9645799999999999  0.24430000000000007  0.80222  1.0000
  H   H269      1.0  0.54791  0.8668099999999999  0.62446  1.0000
  H   H270      1.0  0.8642799999999999  0.9431  0.2251  1.0000
  H   H271      1.0  0.07698000000000005  0.85291  0.7302  1.0000
  H   H272      1.0  0.09515999999999998  0.21059  0.0025  1.0000
  H   H273      1.0  0.21059999999999993  0.09517999999999999  0.50253  1.0000
  H   H274      1.0  0.8667999999999998  0.54791  0.12446  1.0000
  H   H275      1.0  0.009270000000000035  0.12622000000000003  0.8981700000000001  1.0000
  H   H276      1.0  0.55808  0.25588  0.22057000000000002  1.0000
  H   H277      1.0  0.42343  0.048179999999999994  0.1809  1.0000
  H   H278      1.0  0.8465799999999998  0.2697099999999999  0.6229  1.0000
  H   H279      1.0  0.09253  0.38431  0.59515  1.0000
  H   H280      1.0  0.46953  0.29718000000000006  0.03173  1.0000
  H   H281      1.0  0.23456  0.67247  0.2029  1.0000
  H   H282      1.0  0.37375  0.6018000000000001  0.9907100000000001  1.0000
  H   H283      1.0  0.56235  0.2347  0.0318  1.0000
  H   H284      1.0  0.90485  0.78941  0.9974900000000001  1.0000
  H   H285      1.0  0.57657  0.9518099999999999  0.8191000000000002  1.0000
  H   H286      1.0  0.3987299999999999  0.77212  0.38897  1.0000
  H   H287      1.0  0.34658  0.6229  0.26971  1.0000
  H   H288      1.0  0.12672999999999998  0.11688000000000001  0.22784000000000001  1.0000
  H   H289      1.0  0.28939  0.49747  0.90482  1.0000
  H   H290      1.0  0.23027  0.87709  0.15341  1.0000
  H   H291      1.0  0.62403  0.57619  0.75711  1.0000
  H   H292      1.0  0.90735  0.29196  0.0028  1.0000
  H   H293      1.0  0.20612999999999995  0.57909  0.94207  1.0000
  H   H294      1.0  0.7749099999999999  0.63571  0.5569  1.0000
  H   H295      1.0  0.6262499999999998  0.39819999999999994  0.00929  1.0000
  H   H296      1.0  0.28184  0.55667  0.42118  1.0000
  H   H297      1.0  0.61083  0.50945  0.38283999999999996  1.0000
  H   H298      1.0  0.7346999999999998  0.5318  0.56233  1.0000
  H   H299      1.0  0.36338  0.44217  0.73617  1.0000
  H   H300      1.0  0.26979  0.423  0.64708  1.0000
  H   H301      1.0  0.34628  0.72384  0.57673  1.0000
  H   H302      1.0  0.50278  0.7919499999999999  0.40735000000000005  1.0000
  H   H303      1.0  0.37596999999999997  0.42381  0.24288  1.0000
  H   H304      1.0  0.9234299999999999  0.1809  0.048190000000000004  1.0000
  H   H305      1.0  0.94333  0.07881000000000006  0.71816  1.0000
  H   H306      1.0  0.6157  0.90747  0.90487  1.0000
  H   H307      1.0  0.12321999999999995  0.35335  0.27629  1.0000
  H   H308      1.0  0.78184  0.42118  0.55667  1.0000
  H   H309      1.0  0.062350000000000017  0.031800000000000016  0.23470000000000002  1.0000
  H   H310      1.0  0.6012699999999999  0.22786999999999996  0.61103  1.0000
  H   H311      1.0  0.76382  0.057819999999999996  0.13663  1.0000
  H   H312      1.0  0.64708  0.76977  0.92301  1.0000
  H   H313      1.0  0.9682099999999998  0.9376699999999999  0.2653  1.0000
  H   H314      1.0  0.82703  0.52996  0.56185  1.0000
  H   H315      1.0  0.8376999999999999  0.05805999999999999  0.80228  1.0000
  H   H316      1.0  0.7359599999999997  0.87273  0.29406  1.0000
  H   H317      1.0  0.37273999999999996  0.79406  0.7359600000000001  1.0000
  H   H318      1.0  0.20594999999999988  0.6272799999999997  0.76405  1.0000
  H   H319      1.0  0.3843  0.09252999999999999  0.09513  1.0000
  H   H320      1.0  0.03173  0.9695299999999999  0.7971800000000001  1.0000
  H   H321      1.0  0.77616  0.92327  0.65371  1.0000
  H   H322      1.0  0.7107799999999997  0.20785  0.11525000000000002  1.0000
  H   H323      1.0  0.80228  0.33768999999999993  0.55805  1.0000
  H   H324      1.0  0.5578199999999999  0.6366199999999999  0.76381  1.0000
  H   H325      1.0  0.53543  0.19777  0.7557  1.0000
  H   H326      1.0  0.3667999999999999  0.12446  0.54791  1.0000
  H   H327      1.0  0.12289999999999997  0.76973  0.34659  1.0000
  H   H328      1.0  0.05782000000000003  0.76381  0.63662  1.0000
  H   H329      1.0  0.7653  0.43767  0.4682  1.0000
  H   H330      1.0  0.5566700000000001  0.2818300000000001  0.9211900000000001  1.0000
  H   H331      1.0  0.5787  0.37253  0.63671  1.0000
  H   H332      1.0  0.07910000000000002  0.44207  0.20612000000000003  1.0000
  H   H333      1.0  0.30222  0.7442999999999999  0.46458000000000005  1.0000
  H   H334      1.0  0.87597  0.24288000000000004  0.4238100000000001  1.0000
  H   H335      1.0  0.13571999999999995  0.05689999999999996  0.7749  1.0000
  H   H336      1.0  0.27490000000000003  0.5569000000000001  0.63571  1.0000
  H   H337      1.0  0.7080599999999998  0.09265999999999999  0.49723000000000006  1.0000
  H   H338      1.0  0.4430999999999999  0.7251  0.86429  1.0000
  H   H339      1.0  0.2762999999999999  0.62323  0.85336  1.0000
  H   H340      1.0  0.12403  0.7571099999999998  0.57619  1.0000
  H   H341      1.0  0.9419199999999998  0.77943  0.74412  1.0000
  H   H342      1.0  0.11526  0.21075999999999998  0.70786  1.0000
  H   H343      1.0  0.7894  0.9048200000000001  0.4974700000000001  1.0000
  H   H344      1.0  0.72384  0.34629  0.07673  1.0000
  H   H345      1.0  0.7302700000000001  0.15340000000000006  0.8770900000000001  1.0000
  H   H346      1.0  0.71061  0.50253  0.09518  1.0000
  H   H347      1.0  0.3770999999999999  0.65341  0.23026  1.0000
  H   H348      1.0  0.7441099999999998  0.4419  0.27943  1.0000
  H   H349      1.0  0.14664  0.22369999999999998  0.87679  1.0000
  H   H350      1.0  0.7059499999999997  0.76405  0.62728  1.0000
  H   H351      1.0  0.59253  0.59515  0.38430999999999993  1.0000
  H   H352      1.0  0.9214799999999997  0.8649799999999999  0.63972  1.0000
  H   H353      1.0  0.19777999999999998  0.5354199999999999  0.2557  1.0000
  H   H354      1.0  0.002510000000000001  0.59516  0.71059  1.0000
  H   H355      1.0  0.28199  0.72526  0.36064  1.0000
  H   H356      1.0  0.23020999999999997  0.35292  0.57699  1.0000
  H   H357      1.0  0.2278399999999999  0.6267  0.61688  1.0000
  H   H358      1.0  0.13282  0.68082  0.7573200000000001  1.0000
  H   H359      1.0  0.8191999999999998  0.74269  0.86718  1.0000
  H   H360      1.0  0.030469999999999962  0.96827  0.70282  1.0000
  H   H361      1.0  0.63936  0.21800999999999998  0.77474  1.0000
  H   H362      1.0  0.4419199999999999  0.74412  0.7794300000000001  1.0000
  H   H363      1.0  0.79718  0.53173  0.46952  1.0000
  H   H364      1.0  0.27986999999999995  0.035479999999999956  0.83768  1.0000
  H   H365      1.0  0.7250999999999999  0.44309999999999994  0.36428  1.0000
  H   H366      1.0  0.99074  0.87377  0.10183  1.0000
  H   H367      1.0  0.9972199999999999  0.59265  0.20806  1.0000
  H   H368      1.0  0.27212  0.88897  0.39871  1.0000
  H   H369      1.0  0.49722  0.20805  0.59265  1.0000
  H   H370      1.0  0.73456  0.2029  0.67247  1.0000
  H   H371      1.0  0.92328  0.77615  0.15371  1.0000
  H   H372      1.0  0.10127000000000004  0.61103  0.22788  1.0000
  H   H373      1.0  0.9695299999999998  0.03173  0.29718  1.0000
  H   H374      1.0  0.86338  0.73617  0.44217000000000006  1.0000
  H   H375      1.0  0.40734999999999993  0.0028000000000000073  0.29196  1.0000
  H   H376      1.0  0.50927  0.8981699999999999  0.12623  1.0000
  H   H377      1.0  0.26381  0.13663  0.05782  1.0000
  H   H378      1.0  0.9421800000000001  0.23619  0.36338  1.0000
  H   H379      1.0  0.32754  0.76545  0.2971  1.0000
  H   H380      1.0  0.6807999999999997  0.13282  0.25731  1.0000
  H   H381      1.0  0.8632999999999998  0.12747999999999993  0.92132  1.0000
  H   H382      1.0  0.8529199999999999  0.07698  0.23023  1.0000
  H   H383      1.0  0.79709  0.2654400000000001  0.82753  1.0000
  H   H384      1.0  0.23618999999999998  0.9421799999999999  0.86337  1.0000
  C   C1        1.0  0.19496000000000008  0.3161500000000001  0.9886300000000001  1.0000
  C   C2        1.0  0.86559  0.94455  0.58734  1.0000
  C   C3        1.0  0.6727899999999999  0.6628599999999999  0.47137  1.0000
  C   C4        1.0  0.39707  0.35150999999999993  0.20502  1.0000
  C   C5        1.0  0.93266  0.03065  0.30566  1.0000
  C   C6        1.0  0.22155999999999995  0.63474  0.57883  1.0000
  C   C7        1.0  0.8914699999999999  0.6262  0.60729  1.0000
  C   C8        1.0  0.89707  0.07828999999999996  0.36802  1.0000
  C   C9        1.0  0.98324  0.62014  0.32772  1.0000
  C   C10       1.0  0.28435  0.76527  0.39179  1.0000
  C   C11       1.0  0.36802  0.39705  0.57828  1.0000
  C   C12       1.0  0.04578000000000002  0.39697  0.19221  1.0000
  C   C13       1.0  0.97078  0.6028100000000001  0.6809600000000001  1.0000
  C   C14       1.0  0.7062499999999999  0.69502  0.37862000000000007  1.0000
  C   C15       1.0  0.22425  0.70372  0.0503  1.0000
  C   C16       1.0  0.84417  0.51654  0.1367  1.0000
  C   C17       1.0  0.8515199999999998  0.70501  0.39706  1.0000
  C   C18       1.0  0.5504799999999999  0.3467  0.32627  1.0000
  C   C19       1.0  0.39697  0.04577000000000007  0.69221  1.0000
  C   C20       1.0  0.0790499999999999  0.94433  0.85733  1.0000
  C   C21       1.0  0.81637  0.32748999999999995  0.1213  1.0000
  C   C22       1.0  0.6809599999999998  0.47079  0.10281000000000001  1.0000
  C   C23       1.0  0.07828999999999997  0.89706  0.86802  1.0000
  C   C24       1.0  0.45452  0.64666  0.35138  1.0000
  C   C25       1.0  0.43309000000000003  0.12748000000000007  0.9023300000000001  1.0000
  C   C26       1.0  0.3467100000000001  0.5504700000000001  0.8262600000000001  1.0000
  C   C27       1.0  0.7156499999999998  0.23473  0.60821  1.0000
  C   C28       1.0  0.29865  0.82725  0.49013  1.0000
  C   C29       1.0  0.43266  0.30566  0.030650000000000004  1.0000
  C   C30       1.0  0.94434  0.07904999999999998  0.35733  1.0000
  C   C31       1.0  0.20118999999999995  0.69139  0.52843  1.0000
  C   C32       1.0  0.32749  0.81637  0.6213  1.0000
  C   C33       1.0  0.58692  0.2216  0.64277  1.0000
  C   C34       1.0  0.10753000000000004  0.98092  0.21571000000000004  1.0000
  C   C35       1.0  0.6267  0.7348299999999999  0.01915  1.0000
  C   C36       1.0  0.69139  0.20118999999999998  0.02842  1.0000
  C   C37       1.0  0.79498  0.10293  0.14849  1.0000
  C   C38       1.0  0.14265999999999998  0.42094999999999994  0.55568  1.0000
  C   C39       1.0  0.09768  0.06691999999999997  0.37253  1.0000
  C   C40       1.0  0.70372  0.22424999999999998  0.5503  1.0000
  C   C41       1.0  0.29230999999999996  0.17225999999999997  0.65554  1.0000
  C   C42       1.0  0.019150000000000014  0.1267  0.23483  1.0000
  C   C43       1.0  0.21014  0.52894  0.13206  1.0000
  C   C44       1.0  0.92095  0.05567  0.14267  1.0000
  C   C45       1.0  0.3188199999999998  0.7900099999999999  0.92204  1.0000
  C   C46       1.0  0.7101399999999999  0.13206000000000004  0.52894  1.0000
  C   C47       1.0  0.17411999999999994  0.020610000000000035  0.72437  1.0000
  C   C48       1.0  0.028430000000000018  0.19139  0.7012  1.0000
  C   C49       1.0  0.1367  0.34418  0.01653  1.0000
  C   C50       1.0  0.79633  0.3466  0.52063  1.0000
  C   C51       1.0  0.8970699999999996  0.20502  0.35151  1.0000
  C   C52       1.0  0.18363000000000002  0.6725100000000002  0.8787000000000001  1.0000
  C   C53       1.0  0.30778  0.10302  0.45423  1.0000
  C   C54       1.0  0.87396  0.74768  0.12409000000000002  1.0000
  C   C55       1.0  0.2750499999999999  0.8056299999999998  0.37293  1.0000
  C   C56       1.0  0.9793999999999998  0.82589  0.7756300000000002  1.0000
  C   C57       1.0  0.34445999999999993  0.20768  0.32772  1.0000
  C   C58       1.0  0.8917899999999999  0.2652700000000001  0.7843500000000001  1.0000
  C   C59       1.0  0.1628499999999999  0.9713600000000001  0.67279  1.0000
  C   C60       1.0  0.35334  0.54548  0.14862  1.0000
  C   C61       1.0  0.6737299999999998  0.94953  0.1533  1.0000
  C   C62       1.0  0.51915  0.23483  0.1267  1.0000
  C   C63       1.0  0.12013  0.8277  0.98323  1.0000
  C   C64       1.0  0.60853  0.39270999999999995  0.37379999999999997  1.0000
  C   C65       1.0  0.6364799999999999  0.61986  0.7921500000000001  1.0000
  C   C66       1.0  0.7476799999999998  0.87396  0.6241  1.0000
  C   C67       1.0  0.32725000000000004  0.9901400000000001  0.29866  1.0000
  C   C68       1.0  0.6533899999999999  0.2036600000000001  0.97936  1.0000
  C   C69       1.0  0.8275699999999998  0.20632  0.51131  1.0000
  C   C70       1.0  0.15339  0.97936  0.20367  1.0000
  C   C71       1.0  0.59803  0.22499  0.03062  1.0000
  C   C72       1.0  0.85734  0.5790500000000001  0.44432000000000005  1.0000
  C   C73       1.0  0.47077999999999987  0.68096  0.60281  1.0000
  C   C74       1.0  0.7757499999999998  0.29628  0.9497  1.0000
  C   C75       1.0  0.66265  0.98997  0.1913  1.0000
  C   C76       1.0  0.9217099999999998  0.10294  0.13198  1.0000
  C   C77       1.0  0.8924699999999998  0.01907999999999995  0.78429  1.0000
  C   C78       1.0  0.72495  0.19437000000000001  0.62707  1.0000
  C   C79       1.0  0.8371500000000001  0.028639999999999968  0.32721  1.0000
  C   C80       1.0  0.29001  0.42203  0.31884  1.0000
  C   C81       1.0  0.27575  0.9497  0.29629  1.0000
  C   C82       1.0  0.19129000000000002  0.16265000000000002  0.48997000000000007  1.0000
  C   C83       1.0  0.88016  0.7078499999999999  0.36353  1.0000
  C   C84       1.0  0.12391  0.75  0.37609000000000004  1.0000
  C   C85       1.0  0.050479999999999955  0.32626999999999995  0.34671  1.0000
  C   C86       1.0  0.4220299999999999  0.28999999999999987  0.81882  1.0000
  C   C87       1.0  0.79865  0.49013  0.82724  1.0000
  C   C88       1.0  0.19221999999999995  0.54577  0.89698  1.0000
  C   C89       1.0  0.99013  0.3272400000000001  0.7986500000000001  1.0000
  C   C90       1.0  0.6262  0.89148  0.10729  1.0000
  C   C91       1.0  0.92118  0.86525  0.27844  1.0000
  C   C92       1.0  0.56691  0.87252  0.09767  1.0000
  C   C93       1.0  0.75  0.62628  0.37372  1.0000
  C   C94       1.0  0.80504  0.68385  0.01137  1.0000
  C   C95       1.0  0.20769  0.34446000000000004  0.8277300000000001  1.0000
  C   C96       1.0  0.6320599999999997  0.02891999999999998  0.71013  1.0000
  C   C97       1.0  0.028640000000000016  0.8371499999999998  0.82721  1.0000
  C   C98       1.0  0.8277399999999999  0.70769  0.84446  1.0000
  C   C99       1.0  0.37294  0.77506  0.30563  1.0000
  C   C100      1.0  0.35723  0.91308  0.2784  1.0000
  C   C101      1.0  0.8972  0.81904  0.02922  1.0000
  C   C102      1.0  0.62628  0.74999  0.87372  1.0000
  C   C103      1.0  0.7242499999999997  0.050300000000000004  0.70371  1.0000
  C   C104      1.0  0.6241  0.24768  0.37396  1.0000
  C   C105      1.0  0.55544  0.91264  0.1344  1.0000
  C   C106      1.0  0.3758999999999999  0.75232  0.62604  1.0000
  C   C107      1.0  0.30801  0.20484  0.35344  1.0000
  C   C108      1.0  0.5457799999999999  0.19220999999999996  0.39697  1.0000
  C   C109      1.0  0.29215  0.11985  0.13647  1.0000
  C   C110      1.0  0.6465399999999999  0.19199  0.29516  1.0000
  C   C111      1.0  0.35346000000000005  0.80801  0.70484  1.0000
  C   C112      1.0  0.8738  0.89271  0.10852  1.0000
  C   C113      1.0  0.77501  0.40198  0.46938  1.0000
  C   C114      1.0  0.39247  0.7843  0.01908  1.0000
  C   C115      1.0  0.6367  0.01652999999999999  0.34418  1.0000
  C   C116      1.0  0.3679499999999999  0.97108  0.28987  1.0000
  C   C117      1.0  0.8729399999999998  0.30561999999999995  0.77506  1.0000
  C   C118      1.0  0.8080099999999999  0.35344  0.20484  1.0000
  C   C119      1.0  0.30497999999999986  0.29376  0.12139  1.0000
  C   C120      1.0  0.33714999999999995  0.32720999999999995  0.02864  1.0000
  C   C121      1.0  0.67228  0.5167600000000001  0.8798700000000002  1.0000
  C   C122      1.0  0.80566  0.53065  0.43266  1.0000
  C   C123      1.0  0.8798799999999998  0.17229999999999998  0.01677  1.0000
  C   C124      1.0  0.8056299999999997  0.27505  0.87293  1.0000
  C   C125      1.0  0.8572300000000002  0.2784  0.9130800000000001  1.0000
  C   C126      1.0  0.12620000000000006  0.10729000000000002  0.8914700000000001  1.0000
  C   C127      1.0  0.36329999999999996  0.9834699999999998  0.65582  1.0000
  C   C128      1.0  0.6075299999999998  0.2157  0.98092  1.0000
  C   C129      1.0  0.59768  0.37253  0.06692  1.0000
  C   C130      1.0  0.81883  0.9220399999999999  0.7900100000000001  1.0000
  C   C131      1.0  0.8467099999999997  0.8262699999999998  0.55047  1.0000
  C   C132      1.0  0.37252  0.59767  0.56692  1.0000
  C   C133      1.0  0.64278  0.08692000000000007  0.7216  1.0000
  C   C134      1.0  0.06691000000000001  0.09765999999999998  0.87252  1.0000
  C   C135      1.0  0.9887  0.29369  0.67243  1.0000
  C   C136      1.0  0.75  0.12391000000000005  0.8760900000000001  1.0000
  C   C137      1.0  0.69434  0.56734  0.46935  1.0000
  C   C138      1.0  0.0503  0.72425  0.20372  1.0000
  C   C139      1.0  0.28429  0.5190700000000001  0.39247  1.0000
  C   C140      1.0  0.9497  0.27575  0.79628  1.0000
  C   C141      1.0  0.52843  0.7012  0.19139  1.0000
  C   C142      1.0  0.24999999999999994  0.87609  0.12391  1.0000
  C   C143      1.0  0.8444700000000002  0.32772  0.20769000000000004  1.0000
  C   C144      1.0  0.17276  0.70134  0.00986  1.0000
  C   C145      1.0  0.89697  0.69221  0.04578  1.0000
  C   C146      1.0  0.19438  0.72495  0.12707  1.0000
  C   C147      1.0  0.6950199999999999  0.70624  0.87861  1.0000
  C   C148      1.0  0.53062  0.7249899999999999  0.09802  1.0000
  C   C149      1.0  0.47107  0.78986  0.36795  1.0000
  C   C150      1.0  0.10302999999999998  0.30779000000000006  0.95422  1.0000
  C   C151      1.0  0.80498  0.12138999999999998  0.29376  1.0000
  C   C152      1.0  0.36559000000000014  0.58734  0.9445500000000001  1.0000
  C   C153      1.0  0.17228  0.87987  0.51676  1.0000
  C   C154      1.0  0.83735  0.8087  0.01004  1.0000
  C   C155      1.0  0.2243699999999999  0.5206099999999998  0.67411  1.0000
  C   C156      1.0  0.33735000000000004  0.010030000000000037  0.8087000000000001  1.0000
  C   C157      1.0  0.60729  0.39147  0.12621  1.0000
  C   C158      1.0  0.4899599999999999  0.69129  0.66265  1.0000
  C   C159      1.0  0.6949599999999999  0.9886299999999999  0.31616  1.0000
  C   C160      1.0  0.6836299999999998  0.8787  0.67251  1.0000
  C   C161      1.0  0.8087099999999996  0.83735  0.51003  1.0000
  C   C162      1.0  0.3786099999999999  0.20624  0.19502  1.0000
  C   C163      1.0  0.54548  0.35333999999999993  0.64862  1.0000
  C   C164      1.0  0.10820999999999993  0.73473  0.21565  1.0000
  C   C165      1.0  0.10294000000000003  0.92171  0.63198  1.0000
  C   C166      1.0  0.7900099999999999  0.31884  0.42203  1.0000
  C   C167      1.0  0.6027999999999999  0.97078  0.18096  1.0000
  C   C168      1.0  0.47939999999999994  0.77563  0.82589  1.0000
  C   C169      1.0  0.07797  0.18117000000000008  0.71  1.0000
  C   C170      1.0  0.39178999999999997  0.7843500000000001  0.26527  1.0000
  C   C171      1.0  0.01137000000000002  0.30504  0.18384  1.0000
  C   C172      1.0  0.11983999999999995  0.29215  0.63647  1.0000
  C   C173      1.0  0.7784399999999998  0.36525  0.42117000000000004  1.0000
  C   C174      1.0  0.1213  0.31637  0.82749  1.0000
  C   C175      1.0  0.86802  0.57828  0.39705000000000007  1.0000
  C   C176      1.0  0.09803  0.030619999999999998  0.22499  1.0000
  C   C177      1.0  0.8533399999999999  0.14862000000000003  0.54548  1.0000
  C   C178      1.0  0.6919999999999998  0.79516  0.64656  1.0000
  C   C179      1.0  0.68118  0.20999  0.07796  1.0000
  C   C180      1.0  0.13475999999999996  0.07882000000000002  0.22155000000000002  1.0000
  C   C181      1.0  0.44433999999999996  0.35733  0.07905  1.0000
  C   C182      1.0  0.47136  0.17279  0.16285  1.0000
  C   C183      1.0  0.91307  0.35722  0.77839  1.0000
  C   C184      1.0  0.3258799999999999  0.27563  0.97939  1.0000
  C   C185      1.0  0.65554  0.79231  0.67227  1.0000
  C   C186      1.0  0.6922199999999997  0.89698  0.54576  1.0000
  C   C187      1.0  0.6270599999999997  0.22493999999999992  0.69437  1.0000
  C   C188      1.0  0.86331  0.65582  0.98347  1.0000
  C   C189      1.0  0.3272099999999999  0.33714  0.52863  1.0000
  C   C190      1.0  0.7898599999999998  0.47105999999999987  0.86794  1.0000
  C   C191      1.0  0.7050199999999999  0.85151  0.89707  1.0000
  C   C192      1.0  0.8466100000000001  0.020640000000000054  0.79633  1.0000
  C   C193      1.0  0.70119  0.5284300000000001  0.69139  1.0000
  C   C194      1.0  0.22160999999999997  0.58694  0.14277  1.0000
  C   C195      1.0  0.2476800000000001  0.6241000000000002  0.87396  1.0000
  C   C196      1.0  0.20632  0.82757  0.01131  1.0000
  C   C197      1.0  0.10853  0.3738  0.39271  1.0000
  C   C198      1.0  0.9886299999999999  0.6949599999999999  0.81616  1.0000
  C   C199      1.0  0.15553  0.67227  0.79231  1.0000
  C   C200      1.0  0.12604000000000007  0.25232  0.8759  1.0000
  C   C201      1.0  0.45421999999999996  0.80779  0.60303  1.0000
  C   C202      1.0  0.72499  0.53062  0.59802  1.0000
  C   C203      1.0  0.8635199999999997  0.20785  0.38014  1.0000
  C   C204      1.0  0.19433999999999998  0.46934999999999993  0.56734  1.0000
  C   C205      1.0  0.32774  0.84446  0.70769  1.0000
  C   C206      1.0  0.81616  0.48863  0.19496  1.0000
  C   C207      1.0  0.14278  0.7216  0.08692  1.0000
  C   C208      1.0  0.13206  0.71013  0.02892  1.0000
  C   C209      1.0  0.97938  0.15339000000000005  0.70368  1.0000
  C   C210      1.0  0.20999999999999994  0.6811599999999999  0.57797  1.0000
  C   C211      1.0  0.39707  0.36802  0.07829  1.0000
  C   C212      1.0  0.57883  0.72156  0.13475  1.0000
  C   C213      1.0  0.98347  0.36331  0.15583  1.0000
  C   C214      1.0  0.52864  0.8272  0.83715  1.0000
  C   C215      1.0  0.02061000000000001  0.17410999999999996  0.22437000000000004  1.0000
  C   C216      1.0  0.52922  0.31903999999999993  0.39719  1.0000
  C   C217      1.0  0.8258799999999997  0.97939  0.27563  1.0000
  C   C218      1.0  0.5556599999999999  0.64266  0.9209500000000002  1.0000
  C   C219      1.0  0.62013  0.98323  0.8277000000000001  1.0000
  C   C220      1.0  0.30871  0.51003  0.83735  1.0000
  C   C221      1.0  0.17242999999999994  0.79368  0.48869000000000007  1.0000
  C   C222      1.0  0.63441  0.41265999999999997  0.055450000000000006  1.0000
  C   C223      1.0  0.9126499999999997  0.55544  0.63441  1.0000
  C   C224      1.0  0.3190399999999999  0.5292099999999998  0.89719  1.0000
  C   C225      1.0  0.15328999999999998  0.17373  0.44953  1.0000
  C   C226      1.0  0.51137  0.18383999999999998  0.30504  1.0000
  C   C227      1.0  0.29633  0.52063  0.3466  1.0000
  C   C228      1.0  0.79215  0.13647  0.11985000000000001  1.0000
  C   C229      1.0  0.8760899999999999  0.25  0.62391  1.0000
  C   C230      1.0  0.23472999999999997  0.7156499999999999  0.10822  1.0000
  C   C231      1.0  0.44457  0.08735000000000002  0.8656  1.0000
  C   C232      1.0  0.37987  0.016769999999999997  0.1723  1.0000
  C   C233      1.0  0.56734  0.69434  0.96935  1.0000
  C   C234      1.0  0.41308  0.7784  0.35723  1.0000
  C   C235      1.0  0.72437  0.67411  0.52061  1.0000
  C   C236      1.0  0.04547999999999998  0.6486099999999999  0.35334  1.0000
  C   C237      1.0  0.18118  0.07795999999999999  0.20999  1.0000
  C   C238      1.0  0.9693799999999999  0.90199  0.27501  1.0000
  C   C239      1.0  0.79231  0.65554  0.17226  1.0000
  C   C240      1.0  0.8759  0.6260400000000002  0.7523200000000001  1.0000
  C   C241      1.0  0.27844  0.42117  0.36526  1.0000
  C   C242      1.0  0.20624999999999993  0.37862  0.69501  1.0000
  C   C243      1.0  0.8786099999999998  0.19502  0.20624  1.0000
  C   C244      1.0  0.46935  0.19433999999999998  0.06734  1.0000
  C   C245      1.0  0.49013  0.79865  0.32724  1.0000
  C   C246      1.0  0.51004  0.3087  0.33735  1.0000
  C   C247      1.0  0.3163699999999999  0.1213  0.32749  1.0000
  C   C248      1.0  0.40197  0.77501  0.9693800000000001  1.0000
  C   C249      1.0  0.67226  0.15554  0.29231  1.0000
  C   C250      1.0  0.32772  0.48324000000000006  0.12013  1.0000
  C   C251      1.0  0.5113  0.32757  0.70631  1.0000
  C   C252      1.0  0.48346999999999984  0.15583  0.36331  1.0000
  C   C253      1.0  0.10279999999999999  0.18095  0.9707700000000001  1.0000
  C   C254      1.0  0.3652399999999998  0.77845  0.92118  1.0000
  C   C255      1.0  0.15583  0.48346  0.8633  1.0000
  C   C256      1.0  0.35139  0.95453  0.14667  1.0000
  C   C257      1.0  0.79628  0.4497  0.77575  1.0000
  C   C258      1.0  0.7951599999999999  0.69199  0.14654  1.0000
  C   C259      1.0  0.50987  0.20134999999999997  0.67276  1.0000
  C   C260      1.0  0.95422  0.60302  0.8077900000000001  1.0000
  C   C261      1.0  0.71571  0.48093  0.60753  1.0000
  C   C262      1.0  0.48869999999999997  0.67243  0.29369  1.0000
  C   C263      1.0  0.20484  0.30801  0.85346  1.0000
  C   C264      1.0  0.8534599999999999  0.70484  0.8080100000000001  1.0000
  C   C265      1.0  0.17251  0.3787  0.18363  1.0000
  C   C266      1.0  0.020619999999999906  0.8465999999999999  0.29632  1.0000
  C   C267      1.0  0.5206  0.22436999999999999  0.17411  1.0000
  C   C268      1.0  0.9713599999999999  0.16285  0.17279  1.0000
  C   C269      1.0  0.6213  0.8274900000000001  0.31637  1.0000
  C   C270      1.0  0.22499000000000005  0.59802  0.53062  1.0000
  C   C271      1.0  0.29375  0.30498  0.62138  1.0000
  C   C272      1.0  0.9220299999999998  0.81883  0.29  1.0000
  C   C273      1.0  0.5873500000000001  0.36559  0.44456  1.0000
  C   C274      1.0  0.10293000000000002  0.79498  0.64849  1.0000
  C   C275      1.0  0.4832399999999999  0.32771  0.62014  1.0000
  C   C276      1.0  0.19198999999999994  0.64656  0.79516  1.0000
  C   C277      1.0  0.4497  0.79628  0.27575  1.0000
  C   C278      1.0  0.70367  0.47936  0.6534  1.0000
  C   C279      1.0  0.26527  0.89179  0.28435  1.0000
  C   C280      1.0  0.7842899999999999  0.39246999999999993  0.51907  1.0000
  C   C281      1.0  0.60294  0.6319800000000001  0.92171  1.0000
  C   C282      1.0  0.6347599999999999  0.22154999999999997  0.07882  1.0000
  C   C283      1.0  0.47937999999999986  0.70368  0.15339  1.0000
  C   C284      1.0  0.2783899999999999  0.85723  0.41306000000000004  1.0000
  C   C285      1.0  0.010040000000000004  0.33735  0.30871  1.0000
  C   C286      1.0  0.14861  0.85333  0.04547  1.0000
  C   C287      1.0  0.66285  0.67279  0.97136  1.0000
  C   C288      1.0  0.3161599999999999  0.19496  0.48863  1.0000
  C   C289      1.0  0.12747999999999998  0.43308  0.40233  1.0000
  C   C290      1.0  0.82772  0.12012999999999999  0.48324  1.0000
  C   C291      1.0  0.16265000000000007  0.19129000000000007  0.9899600000000001  1.0000
  C   C292      1.0  0.3573399999999999  0.44431999999999994  0.57905  1.0000
  C   C293      1.0  0.86795  0.28987000000000007  0.9710800000000002  1.0000
  C   C294      1.0  0.3972000000000001  0.029220000000000107  0.8190400000000001  1.0000
  C   C295      1.0  0.37396  0.12408999999999992  0.74768  1.0000
  C   C296      1.0  0.6486099999999998  0.04547000000000001  0.85333  1.0000
  C   C297      1.0  0.3056299999999999  0.87293  0.27505  1.0000
  C   C298      1.0  0.12138999999999997  0.80498  0.79375  1.0000
  C   C299      1.0  0.9693499999999999  0.06734  0.19434  1.0000
  C   C300      1.0  0.42095  0.14267  0.055670000000000004  1.0000
  C   C301      1.0  0.69438  0.12706  0.72495  1.0000
  C   C302      1.0  0.8733  0.98085  0.26517  1.0000
  C   C303      1.0  0.77839  0.4130600000000001  0.8572300000000002  1.0000
  C   C304      1.0  0.8513899999999998  0.14667  0.95453  1.0000
  C   C305      1.0  0.4126499999999999  0.6344  0.55543  1.0000
  C   C306      1.0  0.7652699999999997  0.28434999999999994  0.8917800000000001  1.0000
  C   C307      1.0  0.25232  0.12604000000000004  0.37590000000000007  1.0000
  C   C308      1.0  0.51676  0.67228  0.37986  1.0000
  C   C309      1.0  0.37609  0.62391  0.25  1.0000
  C   C310      1.0  0.7348299999999997  0.6267  0.51915  1.0000
  C   C311      1.0  0.89271  0.87379  0.60853  1.0000
  C   C312      1.0  0.7063200000000001  0.011310000000000077  0.8275600000000001  1.0000
  C   C313      1.0  0.68384  0.80504  0.51137  1.0000
  C   C314      1.0  0.016530000000000097  0.6366800000000002  0.8441700000000001  1.0000
  C   C315      1.0  0.37379999999999997  0.10851999999999998  0.89271  1.0000
  C   C316      1.0  0.17226999999999995  0.29231  0.15554  1.0000
  C   C317      1.0  0.79881  0.30861  0.47157  1.0000
  C   C318      1.0  0.20502  0.89707  0.85151  1.0000
  C   C319      1.0  0.3787  0.1725  0.68363  1.0000
  C   C320      1.0  0.32757  0.51131  0.20632  1.0000
  C   C321      1.0  0.60293  0.64849  0.79498  1.0000
  C   C322      1.0  0.23483  0.51915  0.6267  1.0000
  C   C323      1.0  0.65583  0.8633  0.48346  1.0000
  C   C324      1.0  0.13647999999999996  0.79215  0.61986  1.0000
  C   C325      1.0  0.70999  0.5779699999999999  0.68116  1.0000
  C   C326      1.0  0.016760000000000014  0.37986  0.67228  1.0000
  C   C327      1.0  0.98085  0.8733  0.76517  1.0000
  C   C328      1.0  0.27501  0.46937999999999996  0.40198000000000006  1.0000
  C   C329      1.0  0.70484  0.85346  0.30801  1.0000
  C   C330      1.0  0.6426699999999997  0.55567  0.42095  1.0000
  C   C331      1.0  0.1262800000000001  0.8737200000000002  0.7499900000000002  1.0000
  C   C332      1.0  0.62391  0.3760899999999999  0.75  1.0000
  C   C333      1.0  0.19501999999999997  0.87861  0.70624  1.0000
  C   C334      1.0  0.20784999999999992  0.86353  0.88014  1.0000
  C   C335      1.0  0.011299999999999973  0.7063099999999999  0.32757  1.0000
  C   C336      1.0  0.57906  0.85733  0.9443300000000001  1.0000
  C   C337      1.0  0.7215599999999999  0.57883  0.63474  1.0000
  C   C338      1.0  0.14653999999999998  0.29516  0.19199000000000002  1.0000
  C   C339      1.0  0.8787  0.6836300000000001  0.17251  1.0000
  C   C340      1.0  0.05566000000000011  0.92095  0.64267  1.0000
  C   C341      1.0  0.30566  0.43266  0.53065  1.0000
  C   C342      1.0  0.27562999999999993  0.32589  0.47939  1.0000
  C   C343      1.0  0.6213899999999999  0.7937499999999998  0.80498  1.0000
  C   C344      1.0  0.06733999999999998  0.96935  0.69434  1.0000
  C   C345      1.0  0.6484799999999996  0.60294  0.29499  1.0000
  C   C346      1.0  0.90232  0.93307  0.62747  1.0000
  C   C347      1.0  0.79368  0.17243  0.98869  1.0000
  C   C348      1.0  0.5779699999999998  0.71  0.18117  1.0000
  C   C349      1.0  0.35152  0.39706  0.70501  1.0000
  C   C350      1.0  0.37371999999999994  0.25  0.12628  1.0000
  C   C351      1.0  0.29516  0.14654  0.69199  1.0000
  C   C352      1.0  0.21565  0.60821  0.23473  1.0000
  C   C353      1.0  0.24999999999999994  0.37372  0.62628  1.0000
  C   C354      1.0  0.10729000000000001  0.12620000000000003  0.39147  1.0000
  C   C355      1.0  0.19138999999999995  0.028419999999999987  0.20118  1.0000
  C   C356      1.0  0.6741199999999998  0.72437  0.02061  1.0000
  C   C357      1.0  0.9495199999999998  0.67373  0.65329  1.0000
  C   C358      1.0  0.51653  0.84417  0.63669  1.0000
  C   C359      1.0  0.055430000000000056  0.13440000000000007  0.9126400000000001  1.0000
  C   C360      1.0  0.4886299999999999  0.81616  0.69496  1.0000
  C   C361      1.0  0.64666  0.4545199999999999  0.85138  1.0000
  C   C362      1.0  0.34417  0.1367  0.51654  1.0000
  C   C363      1.0  0.9710699999999999  0.36794  0.78986  1.0000
  C   C364      1.0  0.26517  0.3733  0.48085  1.0000
  C   C365      1.0  0.20367  0.6534  0.47937  1.0000
  C   C366      1.0  0.12706  0.69437  0.22494  1.0000
  C   C367      1.0  0.98996  0.66265  0.69129  1.0000
  C   C368      1.0  0.42171000000000003  0.13198  0.10294  1.0000
  C   C369      1.0  0.01907000000000008  0.8924700000000002  0.28429  1.0000
  C   C370      1.0  0.5503  0.20372  0.72425  1.0000
  C   C371      1.0  0.14666  0.85138  0.45452  1.0000
  C   C372      1.0  0.46938  0.2750099999999999  0.90198  1.0000
  C   C373      1.0  0.9330900000000001  0.90234  0.12748  1.0000
  C   C374      1.0  0.20371999999999996  0.5503  0.22425000000000003  1.0000
  C   C375      1.0  0.29497999999999996  0.14849  0.10293  1.0000
  C   C376      1.0  0.6727599999999999  0.00986000000000002  0.70134  1.0000
  C   C377      1.0  0.60822  0.21565  0.73473  1.0000
  C   C378      1.0  0.48093  0.71571  0.10753  1.0000
  C   C379      1.0  0.28985999999999995  0.86794  0.47106  1.0000
  C   C380      1.0  0.8272099999999998  0.52863  0.33714  1.0000
  C   C381      1.0  0.52062  0.29632  0.8466  1.0000
  C   C382      1.0  0.48085  0.76517  0.8733  1.0000
  C   C383      1.0  0.67244  0.48869000000000007  0.7936800000000002  1.0000
  C   C384      1.0  0.87252  0.56692  0.59767  1.0000
  C   C385      1.0  0.79375  0.62138  0.30499  1.0000
  C   C386      1.0  0.21570999999999999  0.6075300000000001  0.4809300000000001  1.0000
  C   C387      1.0  0.14849  0.29499  0.60294  1.0000
  C   C388      1.0  0.2013499999999999  0.5098699999999998  0.17275  1.0000
  C   C389      1.0  0.17278999999999997  0.47137  0.66286  1.0000
  C   C390      1.0  0.08692999999999998  0.64277  0.22161  1.0000
  C   C391      1.0  0.29367999999999994  0.98869  0.17244  1.0000
  C   C392      1.0  0.53065  0.80566  0.93266  1.0000
  C   C393      1.0  0.94457  0.8656  0.08736  1.0000
  C   C394      1.0  0.3635199999999999  0.38014  0.20785000000000003  1.0000
  C   C395      1.0  0.3262700000000001  0.05047000000000009  0.8467000000000001  1.0000
  C   C396      1.0  0.72161  0.14277000000000004  0.58694  1.0000
  C   C397      1.0  0.009869999999999999  0.67276  0.20135000000000003  1.0000
  C   C398      1.0  0.51907  0.28429  0.8924700000000001  1.0000
  C   C399      1.0  0.67251  0.18363000000000002  0.37870000000000004  1.0000
  C   C400      1.0  0.7651699999999998  0.4808499999999999  0.37329999999999997  1.0000
  C   C401      1.0  0.8272499999999998  0.29866  0.99014  1.0000
  C   C402      1.0  0.07881999999999993  0.13474999999999995  0.72156  1.0000
  C   C403      1.0  0.22494999999999996  0.62707  0.19437000000000001  1.0000
  C   C404      1.0  0.5782899999999997  0.86802  0.89706  1.0000
  C   C405      1.0  0.1267  0.01915000000000002  0.73483  1.0000
  C   C406      1.0  0.7843499999999998  0.3917900000000001  0.7652700000000001  1.0000
  C   C407      1.0  0.8262699999999997  0.8466999999999999  0.05047  1.0000
  C   C408      1.0  0.42118  0.2784400000000001  0.8652500000000001  1.0000
  C   C409      1.0  0.8274899999999994  0.6212999999999999  0.8163699999999999  1.0000
  C   C410      1.0  0.44952  0.65329  0.67373  1.0000
  C   C411      1.0  0.18384  0.51137  0.8050400000000001  1.0000
  C   C412      1.0  0.3927099999999999  0.6085200000000001  0.87379  1.0000
  C   C413      1.0  0.9545199999999999  0.35137999999999997  0.64666  1.0000
  C   C414      1.0  0.029220000000000013  0.39719  0.31903  1.0000
  C   C415      1.0  0.39147  0.60729  0.6262  1.0000
  C   C416      1.0  0.12410000000000002  0.37396  0.24768000000000004  1.0000
  C   C417      1.0  0.40232000000000007  0.62747  0.93307  1.0000
  C   C418      1.0  0.69129  0.48997  0.16265  1.0000
  C   C419      1.0  0.52893  0.21012999999999998  0.63205  1.0000
  C   C420      1.0  0.29881  0.47157  0.30861  1.0000
  C   C421      1.0  0.8190399999999999  0.8971899999999999  0.52921  1.0000
  C   C422      1.0  0.3733000000000001  0.2651700000000001  0.9808500000000001  1.0000
  C   C423      1.0  0.03062000000000001  0.09800999999999999  0.72499  1.0000
  C   C424      1.0  0.62604  0.8759099999999999  0.25232  1.0000
  C   C425      1.0  0.70785  0.88014  0.8635299999999999  1.0000
  C   C426      1.0  0.63198  0.60295  0.42172  1.0000
  C   C427      1.0  0.13198  0.42172  0.60295  1.0000
  C   C428      1.0  0.17372999999999994  0.15329  0.94953  1.0000
  C   C429      1.0  0.90197  0.96938  0.7750100000000001  1.0000
  C   C430      1.0  0.7347299999999998  0.10821  0.71565  1.0000
  C   C431      1.0  0.60303  0.95423  0.30779  1.0000
  C   C432      1.0  0.80861  0.97158  0.79882  1.0000
  C   C433      1.0  0.8737199999999999  0.12628  0.25001  1.0000
  C   C434      1.0  0.13441  0.05544000000000003  0.4126600000000001  1.0000
  C   C435      1.0  0.7523199999999998  0.3759  0.12604  1.0000
  C   C436      1.0  0.61984  0.63647  0.29215  1.0000
  C   C437      1.0  0.028929999999999907  0.63206  0.21014000000000002  1.0000
  C   C438      1.0  0.62748  0.40233  0.43308  1.0000
  C   C439      1.0  0.47157  0.2987999999999999  0.8086  1.0000
  C   C440      1.0  0.30861  0.79881  0.9715800000000001  1.0000
  C   C441      1.0  0.7076899999999999  0.8277299999999999  0.34446  1.0000
  C   C442      1.0  0.9809299999999999  0.10753000000000007  0.71571  1.0000
  C   C443      1.0  0.6532899999999999  0.44953  0.17373  1.0000
  C   C444      1.0  0.18096  0.10280999999999998  0.47079000000000004  1.0000
  C   C445      1.0  0.34661  0.79634  0.02064  1.0000
  C   C446      1.0  0.29628  0.77575  0.4497  1.0000
  C   C447      1.0  0.7013499999999999  0.17274999999999996  0.50987  1.0000
  C   C448      1.0  0.8652399999999998  0.92118  0.77845  1.0000
  C   C449      1.0  0.30504  0.011369999999999976  0.68384  1.0000
  C   C450      1.0  0.03064999999999994  0.93266  0.80566  1.0000
  C   C451      1.0  0.38016  0.36352999999999996  0.70785  1.0000
  C   C452      1.0  0.97157  0.8086099999999999  0.2988  1.0000
  C   C453      1.0  0.77563  0.47938  0.32588  1.0000
  C   C454      1.0  0.8077799999999997  0.45422999999999997  0.10302  1.0000
  C   C455      1.0  0.08734999999999993  0.44455999999999996  0.36559  1.0000
  C   C456      1.0  0.77505  0.37293  0.80563  1.0000
  N   N1        1.0  0.037639999999999944  0.69327  0.8491  1.0000
  N   N2        1.0  0.30681  0.34451  0.15613  1.0000
  N   N3        1.0  0.48307  0.8061500000000001  0.7394600000000001  1.0000
  N   N4        1.0  0.5628799999999999  0.21070999999999998  0.36033  1.0000
  N   N5        1.0  0.84395  0.6505999999999998  0.18841  1.0000
  N   N6        1.0  0.34429  0.037749999999999985  0.18832  1.0000
  N   N7        1.0  0.8445099999999998  0.65613  0.30682  1.0000
  N   N8        1.0  0.54803  0.8075  0.34054  1.0000
  N   N9        1.0  0.8061499999999998  0.48306  0.23946  1.0000
  N   N10       1.0  0.70239  0.63976  0.35022  1.0000
  N   N11       1.0  0.53304  0.8404699999999999  0.79255  1.0000
  N   N12       1.0  0.13974999999999999  0.85021  0.70238  1.0000
  N   N13       1.0  0.64809  0.43731  0.79763  1.0000
  N   N14       1.0  0.7435899999999998  0.56674  0.26037  1.0000
  N   N15       1.0  0.46222999999999986  0.3116800000000001  0.6557  1.0000
  N   N16       1.0  0.6479999999999999  0.21051  0.35035  1.0000
  N   N17       1.0  0.20237  0.85191  0.06268  1.0000
  N   N18       1.0  0.4332500000000001  0.17698000000000005  0.69373  1.0000
  N   N19       1.0  0.46235999999999977  0.1509  0.30672  1.0000
  N   N20       1.0  0.34047  0.2925399999999999  0.53302  1.0000
  N   N21       1.0  0.03777  0.3443  0.68832  1.0000
  N   N22       1.0  0.19374  0.67698  0.9332399999999998  1.0000
  N   N23       1.0  0.35199999999999987  0.78949  0.64964  1.0000
  N   N24       1.0  0.14799999999999996  0.35036  0.21051000000000003  1.0000
  N   N25       1.0  0.2596399999999999  0.8077299999999998  0.9671900000000001  1.0000
  N   N26       1.0  0.64979  0.79762  0.8602500000000001  1.0000
  N   N27       1.0  0.17698999999999995  0.43325  0.19373  1.0000
  N   N28       1.0  0.63975  0.70238  0.85021  1.0000
  N   N29       1.0  0.017010000000000004  0.75643  0.32317  1.0000
  N   N30       1.0  0.06676  0.76038  0.74359  1.0000
  N   N31       1.0  0.64964  0.852  0.28949  1.0000
  N   N32       1.0  0.4520099999999999  0.25962  0.29266  1.0000
  N   N33       1.0  0.14809  0.79763  0.43731  1.0000
  N   N34       1.0  0.56676  0.74359  0.76038  1.0000
  N   N35       1.0  0.04803000000000005  0.34054000000000006  0.8074900000000002  1.0000
  N   N36       1.0  0.48299  0.67683  0.24357  1.0000
  N   N37       1.0  0.5626799999999998  0.35190999999999995  0.70237  1.0000
  N   N38       1.0  0.79255  0.03304000000000001  0.34047  1.0000
  N   N39       1.0  0.51693  0.19385  0.26054  1.0000
  N   N40       1.0  0.033039999999999986  0.79255  0.84047  1.0000
  N   N41       1.0  0.84387  0.19319  0.15549  1.0000
  N   N42       1.0  0.34395  0.18841000000000002  0.6506  1.0000
  N   N43       1.0  0.016930000000000018  0.26054  0.19385000000000002  1.0000
  N   N44       1.0  0.5667499999999998  0.8230199999999999  0.30627  1.0000
  N   N45       1.0  0.6931900000000001  0.65549  0.8438700000000001  1.0000
  N   N46       1.0  0.93325  0.69373  0.17698  1.0000
  N   N47       1.0  0.96719  0.75963  0.30772  1.0000
  N   N48       1.0  0.5328099999999999  0.6922799999999999  0.24037  1.0000
  N   N49       1.0  0.34451  0.30681999999999987  0.65613  1.0000
  N   N50       1.0  0.032810000000000006  0.24037  0.69228  1.0000
  N   N51       1.0  0.82301  0.5667499999999999  0.80627  1.0000
  N   N52       1.0  0.69227  0.5328199999999998  0.74036  1.0000
  N   N53       1.0  0.70237  0.06268000000000006  0.85191  1.0000
  N   N54       1.0  0.24355999999999994  0.98299  0.17683  1.0000
  N   N55       1.0  0.29763000000000006  0.9373200000000002  0.14809  1.0000
  N   N56       1.0  0.17683  0.74357  0.483  1.0000
  N   N57       1.0  0.35021  0.20238  0.13975  1.0000
  N   N58       1.0  0.15571000000000002  0.8116799999999998  0.9622500000000002  1.0000
  N   N59       1.0  0.35036  0.14799  0.71051  1.0000
  N   N60       1.0  0.15605  0.3494  0.81159  1.0000
  N   N61       1.0  0.31159  0.8494  0.65604  1.0000
  N   N62       1.0  0.8519099999999998  0.20236999999999997  0.56269  1.0000
  N   N63       1.0  0.65953  0.70746  0.46697000000000005  1.0000
  N   N64       1.0  0.9332500000000001  0.23962  0.25641  1.0000
  N   N65       1.0  0.7596199999999999  0.79267  0.45200000000000007  1.0000
  N   N66       1.0  0.21051999999999998  0.6479999999999999  0.85036  1.0000
  N   N67       1.0  0.84429  0.18832  0.03775  1.0000
  N   N68       1.0  0.82317  0.25643  0.517  1.0000
  N   N69       1.0  0.98299  0.24356999999999995  0.67683  1.0000
  N   N70       1.0  0.96696  0.20744999999999997  0.15953  1.0000
  N   N71       1.0  0.19318999999999997  0.84387  0.65549  1.0000
  N   N72       1.0  0.7403799999999998  0.548  0.20733  1.0000
  N   N73       1.0  0.1396699999999999  0.28928999999999994  0.93712  1.0000
  N   N74       1.0  0.54799  0.74038  0.70734  1.0000
  N   N75       1.0  0.1594499999999999  0.6924899999999999  0.95196  1.0000
  N   N76       1.0  0.06287999999999999  0.36032999999999993  0.21071000000000004  1.0000
  N   N77       1.0  0.35191  0.56268  0.20237000000000002  1.0000
  N   N78       1.0  0.23962  0.93324  0.7564000000000001  1.0000
  N   N79       1.0  0.2564100000000001  0.43325000000000014  0.7396300000000001  1.0000
  N   N80       1.0  0.30671  0.96235  0.6509  1.0000
  N   N81       1.0  0.36033  0.06286999999999993  0.71071  1.0000
  N   N82       1.0  0.29255  0.34047  0.03304  1.0000
  N   N83       1.0  0.46719000000000005  0.30772  0.7596300000000001  1.0000
  N   N84       1.0  0.6560499999999999  0.81159  0.3494  1.0000
  N   N85       1.0  0.24359  0.26037  0.56674  1.0000
  N   N86       1.0  0.36025  0.29762  0.14979  1.0000
  N   N87       1.0  0.28929  0.1396600000000001  0.4371300000000001  1.0000
  N   N88       1.0  0.5170099999999999  0.32317  0.75643  1.0000
  N   N89       1.0  0.43325  0.25641  0.23962  1.0000
  N   N90       1.0  0.78949  0.35198999999999997  0.14964  1.0000
  N   N91       1.0  0.15613000000000002  0.80681  0.84451  1.0000
  N   N92       1.0  0.8520000000000001  0.64964  0.7894900000000001  1.0000
  N   N93       1.0  0.8067099999999997  0.6508899999999999  0.96235  1.0000
  N   N94       1.0  0.65571  0.96225  0.81168  1.0000
  N   N95       1.0  0.46696  0.15953  0.20745  1.0000
  N   N96       1.0  0.85036  0.71051  0.148  1.0000
  N   N97       1.0  0.9373199999999998  0.29763  0.64808  1.0000
  N   N98       1.0  0.81169  0.15571  0.46226  1.0000
  N   N99       1.0  0.8491  0.53765  0.19329  1.0000
  N   N100      1.0  0.30773  0.46718  0.25964  1.0000
  N   N101      1.0  0.8405499999999998  0.30751  0.04804  1.0000
  N   N102      1.0  0.43711999999999995  0.78929  0.63967  1.0000
  N   N103      1.0  0.31169  0.46226  0.15571  1.0000
  N   N104      1.0  0.6594499999999998  0.95196  0.69249  1.0000
  N   N105      1.0  0.96223  0.6557  0.31168  1.0000
  N   N106      1.0  0.25643999999999995  0.8231699999999998  0.01701  1.0000
  N   N107      1.0  0.1554899999999999  0.34386999999999995  0.69318  1.0000
  N   N108      1.0  0.7073399999999997  0.048  0.24038  1.0000
  N   N109      1.0  0.6554899999999998  0.6931799999999999  0.34387  1.0000
  N   N110      1.0  0.19329  0.3491  0.03765  1.0000
  N   N111      1.0  0.15952999999999992  0.46697999999999995  0.70746  1.0000
  N   N112      1.0  0.8602499999999998  0.14979  0.29762  1.0000
  N   N113      1.0  0.76038  0.06675  0.2436  1.0000
  N   N114      1.0  0.32300999999999996  0.80627  0.56675  1.0000
  N   N115      1.0  0.74357  0.17683000000000004  0.98299  1.0000
  N   N116      1.0  0.3494  0.15604  0.31159  1.0000
  N   N117      1.0  0.1925  0.45197  0.15945  1.0000
  N   N118      1.0  0.20744999999999988  0.9669599999999999  0.65953  1.0000
  N   N119      1.0  0.04799000000000001  0.70734  0.7403800000000001  1.0000
  N   N120      1.0  0.26037999999999994  0.24359999999999998  0.06676  1.0000
  N   N121      1.0  0.74036  0.19226999999999997  0.03281  1.0000
  N   N122      1.0  0.20238999999999993  0.35021  0.63975  1.0000
  N   N123      1.0  0.21071000000000004  0.5628700000000001  0.8603400000000001  1.0000
  N   N124      1.0  0.29265999999999986  0.952  0.7596199999999999  1.0000
  N   N125      1.0  0.34387  0.15549  0.19319  1.0000
  N   N126      1.0  0.6561399999999998  0.84451  0.80681  1.0000
  N   N127      1.0  0.7564399999999998  0.017010000000000004  0.8231700000000001  1.0000
  N   N128      1.0  0.8115900000000003  0.6560400000000001  0.8494000000000002  1.0000
  N   N129      1.0  0.63967  0.93713  0.28929  1.0000
  N   N130      1.0  0.9371199999999997  0.63966  0.7892899999999999  1.0000
  N   N131      1.0  0.34054999999999996  0.04804  0.30751  1.0000
  N   N132      1.0  0.8075  0.54803  0.84055  1.0000
  N   N133      1.0  0.30626  0.06675  0.32302  1.0000
  N   N134      1.0  0.85021  0.13974999999999996  0.20238  1.0000
  N   N135      1.0  0.76054  0.69385  0.01693  1.0000
  N   N136      1.0  0.53765  0.8491  0.69328  1.0000
  N   N137      1.0  0.20733999999999994  0.24037999999999998  0.048  1.0000
  N   N138      1.0  0.45197  0.19249999999999995  0.65946  1.0000
  N   N139      1.0  0.7926599999999999  0.7596099999999999  0.952  1.0000
  N   N140      1.0  0.8068099999999997  0.15612999999999994  0.34451  1.0000
  N   N141      1.0  0.19227000000000005  0.74036  0.53282  1.0000
  N   N142      1.0  0.9623599999999998  0.30671999999999994  0.1509  1.0000
  N   N143      1.0  0.18841  0.34396  0.1506  1.0000
  N   N144      1.0  0.5377699999999997  0.68832  0.3443  1.0000
  N   N145      1.0  0.71052  0.8503599999999999  0.648  1.0000
  N   N146      1.0  0.3061499999999999  0.23944999999999997  0.48306  1.0000
  N   N147      1.0  0.7976199999999998  0.6497799999999999  0.36024  1.0000
  N   N148      1.0  0.68831  0.53774  0.84429  1.0000
  N   N149      1.0  0.9520099999999999  0.29266  0.25962  1.0000
  N   N150      1.0  0.8077300000000001  0.25964000000000004  0.46718000000000004  1.0000
  N   N151      1.0  0.24036  0.032809999999999985  0.19227  1.0000
  N   N152      1.0  0.06674999999999996  0.30627  0.82302  1.0000
  N   N153      1.0  0.79763  0.14808999999999997  0.93732  1.0000
  N   N154      1.0  0.6506  0.84396  0.68841  1.0000
  N   N155      1.0  0.14964  0.28949  0.852  1.0000
  N   N156      1.0  0.32316  0.517  0.25643  1.0000
  N   N157      1.0  0.6509  0.80671  0.46235  1.0000
  N   N158      1.0  0.73962  0.7564  0.9332399999999998  1.0000
  N   N159      1.0  0.28948  0.14964  0.352  1.0000
  N   N160      1.0  0.06268  0.70237  0.35192  1.0000
  N   N161      1.0  0.29762  0.36023999999999995  0.64978  1.0000
  N   N162      1.0  0.6768400000000001  0.48300000000000004  0.7435700000000001  1.0000
  N   N163      1.0  0.19385999999999995  0.5169399999999998  0.7605399999999999  1.0000
  N   N164      1.0  0.69374  0.93325  0.67698  1.0000
  N   N165      1.0  0.2596299999999999  0.452  0.79267  1.0000
  N   N166      1.0  0.3490999999999999  0.19328999999999996  0.53765  1.0000
  N   N167      1.0  0.30749999999999994  0.8405499999999999  0.54803  1.0000
  N   N168      1.0  0.80626  0.32302  0.06675  1.0000
  N   N169      1.0  0.15090000000000006  0.4623500000000001  0.8067100000000001  1.0000
  N   N170      1.0  0.26054  0.016920000000000015  0.69385  1.0000
  N   N171      1.0  0.9830699999999998  0.73946  0.8061500000000001  1.0000
  N   N172      1.0  0.23946  0.30615  0.98307  1.0000
  N   N173      1.0  0.69386  0.76054  0.51694  1.0000
  N   N174      1.0  0.18831000000000003  0.84429  0.53774  1.0000
  N   N175      1.0  0.7394699999999997  0.9830799999999997  0.30615  1.0000
  N   N176      1.0  0.1506  0.68841  0.84396  1.0000
  N   N177      1.0  0.7074499999999999  0.65953  0.96696  1.0000
  N   N178      1.0  0.68841  0.15059999999999996  0.34396  1.0000
  N   N179      1.0  0.1497900000000001  0.8602500000000001  0.7976200000000001  1.0000
  N   N180      1.0  0.24037999999999995  0.20732999999999996  0.548  1.0000
  N   N181      1.0  0.67699  0.19373  0.43325  1.0000
  N   N182      1.0  0.8603399999999999  0.71071  0.06287  1.0000
  N   N183      1.0  0.43731999999999993  0.6480799999999999  0.29763  1.0000
  N   N184      1.0  0.7564099999999998  0.7396299999999999  0.43325  1.0000
  N   N185      1.0  0.71071  0.86034  0.56287  1.0000
  N   N186      1.0  0.84047  0.53302  0.29254  1.0000
  N   N187      1.0  0.6932899999999997  0.03765000000000001  0.3491  1.0000
  N   N188      1.0  0.6925  0.15944000000000003  0.45197000000000004  1.0000
  N   N189      1.0  0.7596400000000001  0.96719  0.8077300000000001  1.0000
  N   N190      1.0  0.7892899999999998  0.43711999999999995  0.13966  1.0000
  N   N191      1.0  0.9519800000000002  0.65946  0.19251000000000001  1.0000
  N   N192      1.0  0.8494  0.31158  0.15604  1.0000
