data_image0
_chemical_formula_structural       Na4Zn38H384C648O160
_chemical_formula_sum              "Na4 Zn38 H384 C648 O160"
_cell_length_a       32.35517
_cell_length_b       32.42756000000001
_cell_length_c       33.47696
_cell_angle_alpha    119.07915
_cell_angle_beta     118.95289000000001
_cell_angle_gamma    90.00808

_symmetry_space_group_name_H-M    'P 1'
_symmetry_Int_Tables_number       1

loop_
  _symmetry_equiv_pos_as_xyz
  'x,y,z'

loop_
  _atom_site_type_symbol
  _atom_site_label
  _atom_site_symmetry_multiplicity
  _atom_site_fract_x
  _atom_site_fract_y
  _atom_site_fract_z
  _atom_site_occupancy
  Na  Na1       1.0  0.87271  0.13525  0.24469  1.0000
  Na  Na2       1.0  0.37531  0.11067  0.25042  1.0000
  Na  Na3       1.0  0.86069  0.12530000000000002  0.75137  1.0000
  Na  Na4       1.0  0.8855799999999999  0.62522  0.75136  1.0000
  Zn  Zn1       1.0  0.9894899999999999  0.08939  0.20575  1.0000
  Zn  Zn2       1.0  0.91306  0.13143  0.12971  1.0000
  Zn  Zn3       1.0  0.87893  0.014670000000000008  0.08902  1.0000
  Zn  Zn4       1.0  0.43073  0.35213  0.89235  1.0000
  Zn  Zn5       1.0  0.21639  0.11648  0.20571  1.0000
  Zn  Zn6       1.0  0.21652  0.99801  0.12975  1.0000
  Zn  Zn7       1.0  0.21259  0.07489  0.09091  1.0000
  Zn  Zn8       1.0  0.46076999999999996  0.53984  0.8914599999999999  1.0000
  Zn  Zn9       1.0  0.86627  0.23792  0.70546  1.0000
  Zn  Zn10      1.0  0.74751  0.16293999999999995  0.62913  1.0000
  Zn  Zn11      1.0  0.8249800000000002  0.12726  0.59076  1.0000
  Zn  Zn12      1.0  0.28963999999999995  0.68126  0.39205999999999996  1.0000
  Zn  Zn13      1.0  0.83981  0.46682  0.70528  1.0000
  Zn  Zn14      1.0  0.88166  0.46281  0.62706  1.0000
  Zn  Zn15      1.0  0.76712  0.46492  0.59227  1.0000
  Zn  Zn16      1.0  0.10184  0.71073  0.39186  1.0000
  Zn  Zn17      1.0  0.53325  0.16042  0.29492  1.0000
  Zn  Zn18      1.0  0.53358  0.11810000000000002  0.3707  1.0000
  Zn  Zn19      1.0  0.5393299999999998  0.23477  0.41149  1.0000
  Zn  Zn20      1.0  0.28841  0.89772  0.60769  1.0000
  Zn  Zn21      1.0  0.7605899999999998  0.13333  0.2932  1.0000
  Zn  Zn22      1.0  0.83604  0.25222  0.37026  1.0000
  Zn  Zn23      1.0  0.87267  0.17494999999999997  0.40759999999999996  1.0000
  Zn  Zn24      1.0  0.3175  0.70972  0.60717  1.0000
  Zn  Zn25      1.0  0.9103899999999997  0.012390000000000031  0.79426  1.0000
  Zn  Zn26      1.0  0.8684499999999998  0.08714000000000005  0.87199  1.0000
  Zn  Zn27      1.0  0.9846899999999998  0.12249999999999996  0.91045  1.0000
  Zn  Zn28      1.0  0.64785  0.56885  0.10818000000000001  1.0000
  Zn  Zn29      1.0  0.88422  0.7814  0.79428  1.0000
  Zn  Zn30      1.0  0.004510000000000005  0.78761  0.87317  1.0000
  Zn  Zn31      1.0  0.92487  0.78467  0.9081  1.0000
  Zn  Zn32      1.0  0.45947  0.538  0.10786  1.0000
  Zn  Zn33      1.0  0.42662  0.42706  0.85381  1.0000
  Zn  Zn34      1.0  0.17616  0.67661  0.35279  1.0000
  Zn  Zn35      1.0  0.3231  0.82331  0.64699  1.0000
  Zn  Zn36      1.0  0.57322  0.57287  0.14654  1.0000
  Zn  Zn37      1.0  0.4997  0.50001  0.9999  1.0000
  Zn  Zn38      1.0  0.24979999999999997  0.7501599999999999  0.49971  1.0000
  H   H1        1.0  0.47845  0.4139500000000001  0.991  1.0000
  H   H2        1.0  0.90252  0.08983000000000001  0.1726  1.0000
  H   H3        1.0  0.5200299999999999  0.5086799999999999  0.9425999999999999  1.0000
  H   H4        1.0  0.9658399999999998  0.20412  0.36352  1.0000
  H   H5        1.0  0.99784  0.23738999999999996  0.46074999999999994  1.0000
  H   H6        1.0  0.11617  0.17229  0.47428  1.0000
  H   H7        1.0  0.08333  0.1387  0.37633  1.0000
  H   H8        1.0  0.9998500000000001  0.20065999999999995  0.5061  1.0000
  H   H9        1.0  0.11154000000000006  0.2662  0.67714  1.0000
  H   H10       1.0  0.15340999999999994  0.2489  0.56683  1.0000
  H   H11       1.0  0.18141  0.25433  0.71655  1.0000
  H   H12       1.0  0.27014  0.28897999999999996  0.79299  1.0000
  H   H13       1.0  0.30417  0.34878  0.71869  1.0000
  H   H14       1.0  0.21490000000000004  0.31632  0.64339  1.0000
  H   H15       1.0  0.96218  0.16029  0.52178  1.0000
  H   H16       1.0  0.89585  0.15316000000000002  0.53796  1.0000
  H   H17       1.0  0.98445  0.28582  0.69915  1.0000
  H   H18       1.0  0.05118  0.29441  0.68446  1.0000
  H   H19       1.0  0.85583  0.25788  0.15413  1.0000
  H   H20       1.0  0.81566  0.32251  0.18198999999999999  1.0000
  H   H21       1.0  0.75762  0.24419  0.22641999999999998  1.0000
  H   H22       1.0  0.7978199999999998  0.18041  0.19902  1.0000
  H   H23       1.0  0.73322  0.34129  0.16542000000000004  1.0000
  H   H24       1.0  0.72392  0.43812  0.30395  1.0000
  H   H25       1.0  0.79336  0.32434  0.30021  1.0000
  H   H26       1.0  0.70497  0.41868  0.35274  1.0000
  H   H27       1.0  0.7223999999999999  0.43516999999999995  0.4406399999999999  1.0000
  H   H28       1.0  0.85409  0.39179  0.47214  1.0000
  H   H29       1.0  0.8379999999999999  0.37511999999999995  0.3847999999999999  1.0000
  H   H30       1.0  0.74125  0.41182  0.16892  1.0000
  H   H31       1.0  0.70127  0.45822  0.12779  1.0000
  H   H32       1.0  0.61113  0.47862  0.19313  1.0000
  H   H33       1.0  0.65124  0.43281  0.23489  1.0000
  H   H34       1.0  0.83295  0.03821000000000001  0.23137  1.0000
  H   H35       1.0  0.77405  0.9973200000000001  0.23736  1.0000
  H   H36       1.0  0.7071  0.8751700000000002  0.06897  1.0000
  H   H37       1.0  0.76817  0.91586  0.06431  1.0000
  H   H38       1.0  0.69648  0.98576  0.2069  1.0000
  H   H39       1.0  0.5882799999999998  0.86655  0.16031  1.0000
  H   H40       1.0  0.68533  0.83492  0.10245000000000001  1.0000
  H   H41       1.0  0.6090999999999999  0.79123  0.16068  1.0000
  H   H42       1.0  0.5646  0.70154  0.10415  1.0000
  H   H43       1.0  0.55545  0.68816  0.96521  1.0000
  H   H44       1.0  0.60247  0.7777  0.02295  1.0000
  H   H45       1.0  0.63712  0.016359999999999996  0.19392  1.0000
  H   H46       1.0  0.61357  0.08421999999999998  0.24773  1.0000
  H   H47       1.0  0.58411  0.0010700000000000039  0.30376  1.0000
  H   H48       1.0  0.60653  0.9319  0.24947999999999998  1.0000
  H   H49       1.0  0.51243  0.57719  0.99137  1.0000
  H   H50       1.0  0.27157  0.0819  0.17488  1.0000
  H   H51       1.0  0.4213799999999999  0.43399999999999994  0.9420899999999999  1.0000
  H   H52       1.0  0.39751  0.1588  0.36501  1.0000
  H   H53       1.0  0.46257  0.22277  0.46238  1.0000
  H   H54       1.0  0.35853  0.30298  0.47474  1.0000
  H   H55       1.0  0.29351  0.23866  0.37655  1.0000
  H   H56       1.0  0.50645  0.30529  0.50709  1.0000
  H   H57       1.0  0.5664299999999999  0.41156999999999994  0.6781399999999999  1.0000
  H   H58       1.0  0.41375  0.31889  0.56794  1.0000
  H   H59       1.0  0.53622  0.46316  0.71812  1.0000
  H   H60       1.0  0.52364  0.50481  0.79436  1.0000
  H   H61       1.0  0.41483  0.37036  0.71901  1.0000
  H   H62       1.0  0.42878  0.32756  0.64385  1.0000
  H   H63       1.0  0.55934  0.36181  0.52258  1.0000
  H   H64       1.0  0.6415199999999998  0.38554  0.53823  1.0000
  H   H65       1.0  0.7153699999999998  0.41351999999999994  0.6989999999999998  1.0000
  H   H66       1.0  0.63424  0.39006  0.68487  1.0000
  H   H67       1.0  0.29861  0.89617  0.15458  1.0000
  H   H68       1.0  0.36637000000000003  0.85883  0.18124  1.0000
  H   H69       1.0  0.46937  0.98215  0.22678  1.0000
  H   H70       1.0  0.40206999999999987  0.01914  0.20073  1.0000
  H   H71       1.0  0.43223  0.82329  0.16477  1.0000
  H   H72       1.0  0.5799  0.8649400000000002  0.30349  1.0000
  H   H73       1.0  0.50738  0.9754  0.30003  1.0000
  H   H74       1.0  0.6476999999999998  0.93261  0.3523  1.0000
  H   H75       1.0  0.71867  0.00397000000000002  0.44023000000000007  1.0000
  H   H76       1.0  0.61924  0.07982999999999998  0.4725  1.0000
  H   H77       1.0  0.54754  0.009329999999999962  0.38491999999999993  1.0000
  H   H78       1.0  0.42753  0.75631  0.16877  1.0000
  H   H79       1.0  0.42595  0.66857  0.12765  1.0000
  H   H80       1.0  0.58148  0.71313  0.19224999999999998  1.0000
  H   H81       1.0  0.58349  0.80104  0.23417999999999997  1.0000
  H   H82       1.0  0.40085  0.19412  0.23287  1.0000
  H   H83       1.0  0.46529  0.24142  0.2384  1.0000
  H   H84       1.0  0.36239999999999994  0.19477  0.07036  1.0000
  H   H85       1.0  0.29722  0.14916  0.0663  1.0000
  H   H86       1.0  0.51133  0.22226  0.20714  1.0000
  H   H87       1.0  0.57215  0.29393  0.15937  1.0000
  H   H88       1.0  0.4174799999999999  0.26855  0.10323  1.0000
  H   H89       1.0  0.55206  0.3695  0.15982  1.0000
  H   H90       1.0  0.53963  0.40225999999999995  0.10311  1.0000
  H   H91       1.0  0.40894  0.27643  0.96481  1.0000
  H   H92       1.0  0.42016  0.24525  0.02296  1.0000
  H   H93       1.0  0.55641  0.17735  0.19166  1.0000
  H   H94       1.0  0.63324  0.16283  0.24568999999999996  1.0000
  H   H95       1.0  0.72018  0.30271  0.30414  1.0000
  H   H96       1.0  0.64397  0.31805  0.24975  1.0000
  H   H97       1.0  0.32674999999999993  0.72944  0.49132999999999993  1.0000
  H   H98       1.0  0.83066  0.15232  0.67445  1.0000
  H   H99       1.0  0.1835  0.77032  0.44243  1.0000
  H   H100      1.0  0.90886  0.21679999999999994  0.86482  1.0000
  H   H101      1.0  0.97308  0.24890999999999994  0.9618399999999999  1.0000
  H   H102      1.0  0.05301999999999999  0.36568  0.97459  1.0000
  H   H103      1.0  0.98856  0.33258  0.8766  1.0000
  H   H104      1.0  0.05561  0.25027  0.006689999999999999  1.0000
  H   H105      1.0  0.16150999999999993  0.36172  0.17787  1.0000
  H   H106      1.0  0.0688  0.40367  0.06768  1.0000
  H   H107      1.0  0.21336  0.43203  0.21787  1.0000
  H   H108      1.0  0.25482  0.52074  0.29396  1.0000
  H   H109      1.0  0.12006  0.55382  0.21866  1.0000
  H   H110      1.0  0.07747  0.46448  0.14348  1.0000
  H   H111      1.0  0.1113  0.21266  0.022149999999999996  1.0000
  H   H112      1.0  0.13399  0.14597999999999997  0.03756  1.0000
  H   H113      1.0  0.16331  0.23436000000000004  0.19902  1.0000
  H   H114      1.0  0.14042  0.30133  0.18487999999999996  1.0000
  H   H115      1.0  0.6464  0.10574000000000004  0.6547  1.0000
  H   H116      1.0  0.60937  0.06551999999999997  0.68214  1.0000
  H   H117      1.0  0.73271  0.008089999999999955  0.72732  1.0000
  H   H118      1.0  0.76941  0.04847999999999998  0.70042  1.0000
  H   H119      1.0  0.57386  0.9826999999999999  0.66538  1.0000
  H   H120      1.0  0.61552  0.97361  0.80372  1.0000
  H   H121      1.0  0.7260199999999999  0.043689999999999986  0.8008499999999998  1.0000
  H   H122      1.0  0.6832  0.95478  0.85208  1.0000
  H   H123      1.0  0.75484  0.97135  0.93953  1.0000
  H   H124      1.0  0.8305299999999998  0.10363000000000004  0.97291  1.0000
  H   H125      1.0  0.7600399999999998  0.08811000000000002  0.88574  1.0000
  H   H126      1.0  0.50682  0.99079  0.66898  1.0000
  H   H127      1.0  0.41885  0.95067  0.62753  1.0000
  H   H128      1.0  0.4638499999999999  0.8610699999999999  0.6930899999999999  1.0000
  H   H129      1.0  0.55176  0.9012699999999999  0.7351  1.0000
  H   H130      1.0  0.94428  0.08228  0.73352  1.0000
  H   H131      1.0  0.9914899999999998  0.023339999999999906  0.7391799999999998  1.0000
  H   H132      1.0  0.94553  0.95774  0.57123  1.0000
  H   H133      1.0  0.9000800000000001  0.01893000000000004  0.56715  1.0000
  H   H134      1.0  0.9718200000000001  0.94575  0.70743  1.0000
  H   H135      1.0  0.04366  0.83718  0.6595  1.0000
  H   H136      1.0  0.01925999999999997  0.93598  0.60436  1.0000
  H   H137      1.0  0.11982999999999999  0.8578499999999999  0.66018  1.0000
  H   H138      1.0  0.15237999999999993  0.8130899999999999  0.60312  1.0000
  H   H139      1.0  0.026850000000000023  0.8059  0.46536  1.0000
  H   H140      1.0  0.9958699999999999  0.85328  0.52392  1.0000
  H   H141      1.0  0.92709  0.88533  0.69235  1.0000
  H   H142      1.0  0.91281  0.86215  0.74625  1.0000
  H   H143      1.0  0.05343000000000007  0.83495  0.8045000000000001  1.0000
  H   H144      1.0  0.06816999999999995  0.85666  0.7497599999999999  1.0000
  H   H145      1.0  0.16391  0.76156  0.491  1.0000
  H   H146      1.0  0.8492099999999999  0.5212  0.67503  1.0000
  H   H147      1.0  0.25813  0.6722  0.44237  1.0000
  H   H148      1.0  0.95386  0.64721  0.86441  1.0000
  H   H149      1.0  0.98723  0.71227  0.96154  1.0000
  H   H150      1.0  0.9213  0.60787  0.97472  1.0000
  H   H151      1.0  0.88729  0.5427299999999999  0.8766099999999999  1.0000
  H   H152      1.0  0.95068  0.7557700000000002  0.00702  1.0000
  H   H153      1.0  0.016709999999999996  0.8158  0.17821000000000004  1.0000
  H   H154      1.0  0.9986899999999999  0.66328  0.06762  1.0000
  H   H155      1.0  0.004750000000000002  0.78563  0.21782  1.0000
  H   H156      1.0  0.03909999999999998  0.77318  0.29387  1.0000
  H   H157      1.0  0.09802  0.6641  0.21865  1.0000
  H   H158      1.0  0.06582  0.67804  0.14358  1.0000
  H   H159      1.0  0.91109  0.80937  0.02273  1.0000
  H   H160      1.0  0.90441  0.8917  0.03858  1.0000
  H   H161      1.0  0.036739999999999995  0.9647  0.2  1.0000
  H   H162      1.0  0.04497000000000002  0.88328  0.18551  1.0000
  H   H163      1.0  0.006020000000000004  0.54911  0.65497  1.0000
  H   H164      1.0  0.07021000000000001  0.61647  0.68129  1.0000
  H   H165      1.0  0.99307  0.71985  0.7279400000000001  1.0000
  H   H166      1.0  0.9300599999999999  0.65274  0.70255  1.0000
  H   H167      1.0  0.08917  0.68234  0.66478  1.0000
  H   H168      1.0  0.18722999999999995  0.82984  0.80354  1.0000
  H   H169      1.0  0.07385999999999998  0.75745  0.80102  1.0000
  H   H170      1.0  0.16823  0.89731  0.85239  1.0000
  H   H171      1.0  0.18494999999999998  0.96844  0.94032  1.0000
  H   H172      1.0  0.14421999999999996  0.86939  0.9743  1.0000
  H   H173      1.0  0.12670999999999996  0.79749  0.88653  1.0000
  H   H174      1.0  0.16001999999999994  0.6777499999999999  0.6677899999999999  1.0000
  H   H175      1.0  0.20684000000000002  0.67678  0.62706  1.0000
  H   H176      1.0  0.22797999999999993  0.83245  0.6937699999999999  1.0000
  H   H177      1.0  0.18176  0.83387  0.73525  1.0000
  H   H178      1.0  0.78662  0.65002  0.73308  1.0000
  H   H179      1.0  0.7455200000000001  0.7149  0.7384600000000001  1.0000
  H   H180      1.0  0.62499  0.61333  0.56929  1.0000
  H   H181      1.0  0.66589  0.5477  0.5651  1.0000
  H   H182      1.0  0.73511  0.76126  0.70695  1.0000
  H   H183      1.0  0.61612  0.82299  0.66019  1.0000
  H   H184      1.0  0.58397  0.6684  0.60289  1.0000
  H   H185      1.0  0.54049  0.80261  0.66059  1.0000
  H   H186      1.0  0.45074  0.79045  0.60378  1.0000
  H   H187      1.0  0.4380999999999999  0.66057  0.46492  1.0000
  H   H188      1.0  0.52783  0.67161  0.5233  1.0000
  H   H189      1.0  0.76556  0.80683  0.6929599999999999  1.0000
  H   H190      1.0  0.83403  0.8839  0.74694  1.0000
  H   H191      1.0  0.7517599999999999  0.97026  0.8044899999999999  1.0000
  H   H192      1.0  0.68201  0.89383  0.7499099999999999  1.0000
  H   H193      1.0  0.23765000000000006  0.83591  0.50831  1.0000
  H   H194      1.0  0.4790899999999998  0.15904000000000001  0.32781  1.0000
  H   H195      1.0  0.3276099999999998  0.74202  0.55809  1.0000
  H   H196      1.0  0.35184  0.04435999999999999  0.13501  1.0000
  H   H197      1.0  0.28703  0.011000000000000003  0.03775  1.0000
  H   H198      1.0  0.3919899999999999  0.0781  0.02582  1.0000
  H   H199      1.0  0.4567  0.11189  0.12388  1.0000
  H   H200      1.0  0.2436599999999999  0.048479999999999926  0.9930499999999999  1.0000
  H   H201      1.0  0.18395000000000006  0.98298  0.82204  1.0000
  H   H202      1.0  0.33653  0.0008600000000000154  0.93237  1.0000
  H   H203      1.0  0.21426  0.99537  0.78266  1.0000
  H   H204      1.0  0.22647  0.96098  0.70631  1.0000
  H   H205      1.0  0.33537  0.90156  0.78054  1.0000
  H   H206      1.0  0.32169999999999993  0.9337399999999999  0.8558999999999999  1.0000
  H   H207      1.0  0.19067999999999993  0.08910999999999993  0.9775299999999999  1.0000
  H   H208      1.0  0.10835  0.09676000000000001  0.96166  1.0000
  H   H209      1.0  0.03485999999999991  0.9643499999999999  0.8001899999999998  1.0000
  H   H210      1.0  0.11619000000000007  0.95524  0.8146500000000001  1.0000
  H   H211      1.0  0.45087999999999984  0.9916900000000001  0.34515  1.0000
  H   H212      1.0  0.38303  0.92733  0.31809  1.0000
  H   H213      1.0  0.28007  0.00509999999999999  0.27293  1.0000
  H   H214      1.0  0.3475399999999999  0.06849  0.29937  1.0000
  H   H215      1.0  0.3171599999999999  0.90889  0.33515  1.0000
  H   H216      1.0  0.1694  0.81138  0.1963  1.0000
  H   H217      1.0  0.24254  0.92484  0.19966  1.0000
  H   H218      1.0  0.10165  0.8301  0.1471  1.0000
  H   H219      1.0  0.03113  0.81406  0.05943  1.0000
  H   H220      1.0  0.13139  0.85813  0.02846  1.0000
  H   H221      1.0  0.20279999999999995  0.87432  0.11564  1.0000
  H   H222      1.0  0.32172  0.8382900000000001  0.33131999999999995  1.0000
  H   H223      1.0  0.32299  0.79175  0.3723  1.0000
  H   H224      1.0  0.16722  0.7706900000000001  0.30645  1.0000
  H   H225      1.0  0.16545  0.81657  0.26458  1.0000
  H   H226      1.0  0.35059  0.21093  0.26739  1.0000
  H   H227      1.0  0.28607  0.25259  0.26152  1.0000
  H   H228      1.0  0.3883699999999999  0.3744  0.42991  1.0000
  H   H229      1.0  0.45364  0.33283  0.43432  1.0000
  H   H230      1.0  0.23949  0.26451  0.29249  1.0000
  H   H231      1.0  0.17857  0.38401  0.34008  1.0000
  H   H232      1.0  0.33327  0.41518  0.39666  1.0000
  H   H233      1.0  0.19883000000000003  0.45892  0.33886000000000005  1.0000
  H   H234      1.0  0.21038  0.54847  0.39536  1.0000
  H   H235      1.0  0.34026  0.56211  0.53464  1.0000
  H   H236      1.0  0.33003  0.47271  0.47678  1.0000
  H   H237      1.0  0.19389  0.23458  0.30705  1.0000
  H   H238      1.0  0.11686  0.1663  0.25323  1.0000
  H   H239      1.0  0.03045  0.24838000000000002  0.19581  1.0000
  H   H240      1.0  0.10697999999999999  0.31788  0.25017  1.0000
  H   H241      1.0  0.27056  0.67284  0.50852  1.0000
  H   H242      1.0  0.84563  0.17006  0.32307  1.0000
  H   H243      1.0  0.2287499999999999  0.8159  0.55665  1.0000
  H   H244      1.0  0.78179  0.09042999999999998  0.13396  1.0000
  H   H245      1.0  0.75005  0.02625  0.03706  1.0000
  H   H246      1.0  0.63345  0.94568  0.02425  1.0000
  H   H247      1.0  0.66624  0.010219999999999993  0.12223999999999999  1.0000
  H   H248      1.0  0.7493699999999999  0.9437599999999999  0.9924999999999999  1.0000
  H   H249      1.0  0.63823  0.83788  0.82114  1.0000
  H   H250      1.0  0.5956400000000001  0.9300000000000002  0.9311800000000001  1.0000
  H   H251      1.0  0.56763  0.7859  0.78083  1.0000
  H   H252      1.0  0.47881  0.74436  0.70497  1.0000
  H   H253      1.0  0.44575  0.87906  0.78073  1.0000
  H   H254      1.0  0.5351799999999998  0.92158  0.8557099999999999  1.0000
  H   H255      1.0  0.78714  0.8879599999999999  0.9770899999999999  1.0000
  H   H256      1.0  0.8538299999999998  0.86458  0.9616199999999999  1.0000
  H   H257      1.0  0.7662799999999999  0.83545  0.8004099999999998  1.0000
  H   H258      1.0  0.6991800000000001  0.8588700000000001  0.8144000000000001  1.0000
  H   H259      1.0  0.89456  0.35191  0.34555  1.0000
  H   H260      1.0  0.93569  0.38998  0.31952  1.0000
  H   H261      1.0  0.99251  0.2665  0.27226  1.0000
  H   H262      1.0  0.9508499999999998  0.22857  0.29734  1.0000
  H   H263      1.0  0.017899999999999985  0.42575  0.33573  1.0000
  H   H264      1.0  0.02633  0.38475999999999994  0.19704  1.0000
  H   H265      1.0  0.95686  0.27387  0.19966  1.0000
  H   H266      1.0  0.04511000000000001  0.31717  0.148  1.0000
  H   H267      1.0  0.02817999999999999  0.2457  0.06015999999999999  1.0000
  H   H268      1.0  0.89635  0.1698  0.02774  1.0000
  H   H269      1.0  0.91209  0.24039000000000002  0.11516000000000001  1.0000
  H   H270      1.0  0.009089999999999999  0.49285  0.33177  1.0000
  H   H271      1.0  0.04864000000000002  0.5807  0.37234  1.0000
  H   H272      1.0  0.13843  0.53544  0.30661  1.0000
  H   H273      1.0  0.09870000000000001  0.44765  0.26549  1.0000
  H   H274      1.0  0.91747  0.05435000000000001  0.26585  1.0000
  H   H275      1.0  0.97651  0.006979999999999992  0.26036  1.0000
  H   H276      1.0  0.04239  0.05452999999999999  0.42883  1.0000
  H   H277      1.0  0.9811199999999999  0.10022999999999997  0.43263999999999997  1.0000
  H   H278      1.0  0.05407999999999998  0.027069999999999983  0.2921  1.0000
  H   H279      1.0  0.16311  0.95591  0.34041  1.0000
  H   H280      1.0  0.06411  0.98047  0.39572  1.0000
  H   H281      1.0  0.14224  0.87996  0.33946  1.0000
  H   H282      1.0  0.18694  0.8474700000000001  0.39646  1.0000
  H   H283      1.0  0.19419000000000006  0.97305  0.5344  1.0000
  H   H284      1.0  0.14682999999999996  0.0039799999999999966  0.47594  1.0000
  H   H285      1.0  0.11458000000000002  0.07227000000000003  0.30793  1.0000
  H   H286      1.0  0.13732  0.08706000000000003  0.25406  1.0000
  H   H287      1.0  0.16631999999999997  0.94745  0.19582  1.0000
  H   H288      1.0  0.14471  0.93197  0.2502  1.0000
  H   H289      1.0  0.58539  0.52098  0.00922  1.0000
  H   H290      1.0  0.9070199999999998  0.09857000000000009  0.82763  1.0000
  H   H291      1.0  0.49133  0.47914  0.05724  1.0000
  H   H292      1.0  0.79405  0.033359999999999994  0.6351  1.0000
  H   H293      1.0  0.7615599999999998  0.0015900000000000144  0.53819  1.0000
  H   H294      1.0  0.82833  0.8845600000000001  0.52541  1.0000
  H   H295      1.0  0.86142  0.91728  0.62317  1.0000
  H   H296      1.0  0.79932  0.00015000000000002305  0.4932  1.0000
  H   H297      1.0  0.7335999999999998  0.88827  0.32206  1.0000
  H   H298      1.0  0.75126  0.84685  0.43261  1.0000
  H   H299      1.0  0.7451700000000001  0.8180400000000001  0.28228  1.0000
  H   H300      1.0  0.71056  0.72927  0.20625999999999997  1.0000
  H   H301      1.0  0.65158  0.69626  0.28187  1.0000
  H   H302      1.0  0.68407  0.7856200000000002  0.35680999999999996  1.0000
  H   H303      1.0  0.8398499999999998  0.037529999999999994  0.4774  1.0000
  H   H304      1.0  0.8473  0.10378000000000001  0.46146  1.0000
  H   H305      1.0  0.7143500000000002  0.015629999999999998  0.30051  1.0000
  H   H306      1.0  0.70554  0.9488599999999999  0.31485  1.0000
  H   H307      1.0  0.7418599999999997  0.14441  0.84614  1.0000
  H   H308      1.0  0.67738  0.1848  0.81881  1.0000
  H   H309      1.0  0.75558  0.24216000000000004  0.7736800000000001  1.0000
  H   H310      1.0  0.81905  0.20151  0.8003299999999999  1.0000
  H   H311      1.0  0.65852  0.26722000000000007  0.83515  1.0000
  H   H312      1.0  0.5616  0.27596  0.6965  1.0000
  H   H313      1.0  0.67522  0.20614  0.69986  1.0000
  H   H314      1.0  0.58103  0.29467  0.64805  1.0000
  H   H315      1.0  0.5653  0.27802  0.56073  1.0000
  H   H316      1.0  0.60712  0.14541000000000007  0.52749  1.0000
  H   H317      1.0  0.62377  0.16129000000000004  0.61474  1.0000
  H   H318      1.0  0.58812  0.25945  0.83178  1.0000
  H   H319      1.0  0.54179  0.29955  0.8731  1.0000
  H   H320      1.0  0.52104  0.38895  0.80714  1.0000
  H   H321      1.0  0.5669199999999998  0.34847999999999996  0.7652099999999998  1.0000
  H   H322      1.0  0.96112  0.16677999999999996  0.7675  1.0000
  H   H323      1.0  0.002399999999999961  0.22553000000000006  0.76154  1.0000
  H   H324      1.0  0.12467999999999999  0.29203999999999997  0.92962  1.0000
  H   H325      1.0  0.08366999999999995  0.23107000000000005  0.9342  1.0000
  H   H326      1.0  0.014010000000000019  0.3031  0.79245  1.0000
  H   H327      1.0  0.13364  0.41154  0.83985  1.0000
  H   H328      1.0  0.16487999999999997  0.31404  0.89668  1.0000
  H   H329      1.0  0.20902999999999994  0.39081  0.83932  1.0000
  H   H330      1.0  0.2988199999999999  0.43554999999999994  0.8962199999999999  1.0000
  H   H331      1.0  0.31155  0.44386  0.03452  1.0000
  H   H332      1.0  0.22189999999999988  0.39661  0.97638  1.0000
  H   H333      1.0  0.98391  0.36334  0.80682  1.0000
  H   H334      1.0  0.9156599999999999  0.38624  0.75257  1.0000
  H   H335      1.0  0.9987699999999999  0.41461  0.69569  1.0000
  H   H336      1.0  0.06817  0.39278  0.75036  1.0000
  H   H337      1.0  0.42309  0.48754  0.00925  1.0000
  H   H338      1.0  0.92627  0.7284  0.82655  1.0000
  H   H339      1.0  0.56588  0.57801  0.05838  1.0000
  H   H340      1.0  0.83977  0.60155  0.63555  1.0000
  H   H341      1.0  0.7763399999999999  0.53658  0.53794  1.0000
  H   H342      1.0  0.69756  0.64116  0.52446  1.0000
  H   H343      1.0  0.76145  0.70614  0.62281  1.0000
  H   H344      1.0  0.6943  0.49307  0.49231  1.0000
  H   H345      1.0  0.58847  0.43331  0.32135  1.0000
  H   H346      1.0  0.68136  0.58583  0.43198  1.0000
  H   H347      1.0  0.53704  0.46340999999999993  0.28177  1.0000
  H   H348      1.0  0.49528  0.47612  0.20574  1.0000
  H   H349      1.0  0.62993  0.585  0.28128  1.0000
  H   H350      1.0  0.67261  0.57087  0.35608  1.0000
  H   H351      1.0  0.6386099999999998  0.44036  0.47703  1.0000
  H   H352      1.0  0.61588  0.35837000000000013  0.46173  1.0000
  H   H353      1.0  0.58578  0.2844  0.29989  1.0000
  H   H354      1.0  0.60883  0.36553  0.31397  1.0000
  H   H355      1.0  0.10137999999999998  0.7015499999999999  0.8458699999999999  1.0000
  H   H356      1.0  0.13908999999999996  0.63428  0.81914  1.0000
  H   H357      1.0  0.015550000000000019  0.53064  0.77269  1.0000
  H   H358      1.0  0.9782000000000001  0.59753  0.7987  1.0000
  H   H359      1.0  0.17494999999999988  0.5682099999999999  0.8354799999999999  1.0000
  H   H360      1.0  0.13409999999999994  0.42086  0.69672  1.0000
  H   H361      1.0  0.022999999999999993  0.49277  0.69954  1.0000
  H   H362      1.0  0.06657999999999989  0.35293  0.6479  1.0000
  H   H363      1.0  0.99583  0.28169  0.55962  1.0000
  H   H364      1.0  0.91964  0.38034  0.52643  1.0000
  H   H365      1.0  0.9897000000000001  0.45236  0.61431  1.0000
  H   H366      1.0  0.24261999999999995  0.57293  0.83164  1.0000
  H   H367      1.0  0.33038  0.57392  0.87204  1.0000
  H   H368      1.0  0.2850599999999999  0.4186  0.80682  1.0000
  H   H369      1.0  0.19728000000000007  0.41705  0.76572  1.0000
  H   H370      1.0  0.80386  0.60015  0.7681  1.0000
  H   H371      1.0  0.75686  0.53498  0.76193  1.0000
  H   H372      1.0  0.80466  0.6361600000000001  0.9308  1.0000
  H   H373      1.0  0.85042  0.70194  0.93574  1.0000
  H   H374      1.0  0.77698  0.48829  0.79266  1.0000
  H   H375      1.0  0.7051800000000001  0.4264200000000001  0.8396200000000001  1.0000
  H   H376      1.0  0.73049  0.58111  0.89717  1.0000
  H   H377      1.0  0.6294799999999999  0.44655999999999996  0.8397899999999999  1.0000
  H   H378      1.0  0.5966999999999999  0.45920999999999995  0.8967899999999999  1.0000
  H   H379      1.0  0.72286  0.5896  0.03499  1.0000
  H   H380      1.0  0.75399  0.57823  0.97653  1.0000
  H   H381      1.0  0.82174  0.44303  0.8071  1.0000
  H   H382      1.0  0.8367  0.3664  0.75334  1.0000
  H   H383      1.0  0.6968799999999998  0.27912  0.69511  1.0000
  H   H384      1.0  0.68121  0.3552199999999999  0.7493699999999999  1.0000
  C   C1        1.0  0.0005399999999999914  0.14558  0.304  1.0000
  C   C2        1.0  0.02262999999999999  0.16907  0.36386  1.0000
  C   C3        1.0  0.99894  0.19755  0.388  1.0000
  C   C4        1.0  0.016870000000000003  0.21604  0.4425  1.0000
  C   C5        1.0  0.05908000000000002  0.20693  0.47418  1.0000
  C   C6        1.0  0.08382000000000002  0.18006  0.45041  1.0000
  C   C7        1.0  0.06553  0.16102  0.39567  1.0000
  C   C8        1.0  0.07498999999999996  0.22329  0.53048  1.0000
  C   C9        1.0  0.03865999999999998  0.21714000000000006  0.5403  1.0000
  C   C10       1.0  0.05127999999999996  0.23261  0.59297  1.0000
  C   C11       1.0  0.10153  0.25412  0.63624  1.0000
  C   C12       1.0  0.13883  0.26021  0.62758  1.0000
  C   C13       1.0  0.12506000000000006  0.24467  0.5744  1.0000
  C   C14       1.0  0.19156  0.28203  0.67374  1.0000
  C   C15       1.0  0.20804  0.27567  0.71731  1.0000
  C   C16       1.0  0.25780999999999993  0.29461  0.75999  1.0000
  C   C17       1.0  0.29296  0.3204  0.76021  1.0000
  C   C18       1.0  0.27690000000000003  0.32799000000000006  0.7176900000000002  1.0000
  C   C19       1.0  0.22698999999999997  0.30939  0.67544  1.0000
  C   C20       1.0  0.34609  0.33901  0.80387  1.0000
  C   C21       1.0  0.012040000000000009  0.22746  0.60242  1.0000
  C   C22       1.0  0.9674099999999998  0.18801000000000004  0.56076  1.0000
  C   C23       1.0  0.9302000000000001  0.18368999999999996  0.5694  1.0000
  C   C24       1.0  0.93649  0.21846000000000002  0.61959  1.0000
  C   C25       1.0  0.98041  0.2583  0.66094  1.0000
  C   C26       1.0  0.017730000000000003  0.26268  0.65241  1.0000
  C   C27       1.0  0.96292  0.9814599999999999  0.1298  1.0000
  C   C28       1.0  0.8570599999999998  0.17899  0.16298  1.0000
  C   C29       1.0  0.8299  0.21555  0.17535  1.0000
  C   C30       1.0  0.8337099999999996  0.25505  0.16938999999999999  1.0000
  C   C31       1.0  0.81089  0.29085  0.18456999999999998  1.0000
  C   C32       1.0  0.78416  0.28793  0.20644  1.0000
  C   C33       1.0  0.77903  0.24724999999999997  0.21046  1.0000
  C   C34       1.0  0.80148  0.21133000000000005  0.19496999999999998  1.0000
  C   C35       1.0  0.76578  0.32881  0.23037  1.0000
  C   C36       1.0  0.74125  0.35358  0.20571  1.0000
  C   C37       1.0  0.725  0.3924500000000001  0.23137  1.0000
  C   C38       1.0  0.7343  0.40669  0.28271  1.0000
  C   C39       1.0  0.75952  0.38278  0.30844  1.0000
  C   C40       1.0  0.77441  0.34379  0.28135  1.0000
  C   C41       1.0  0.77054  0.3962  0.36231  1.0000
  C   C42       1.0  0.7382799999999999  0.41357  0.37895  1.0000
  C   C43       1.0  0.7475799999999999  0.42267999999999994  0.42805999999999994  1.0000
  C   C44       1.0  0.7893999999999999  0.41531  0.46217  1.0000
  C   C45       1.0  0.8218400000000001  0.39797  0.44599  1.0000
  C   C46       1.0  0.81246  0.38859  0.39673  1.0000
  C   C47       1.0  0.69938  0.41854  0.20506999999999997  1.0000
  C   C48       1.0  0.71222  0.42567  0.17363  1.0000
  C   C49       1.0  0.69006  0.4518800000000001  0.15064  1.0000
  C   C50       1.0  0.6532799999999996  0.47124  0.15728  1.0000
  C   C51       1.0  0.63923  0.46344  0.18738999999999997  1.0000
  C   C52       1.0  0.6622  0.43786  0.21112  1.0000
  C   C53       1.0  0.49790000000000006  0.36823000000000006  0.8649900000000001  1.0000
  C   C54       1.0  0.83764  0.006459999999999995  0.14251  1.0000
  C   C55       1.0  0.8041399999999997  0.97971  0.1471  1.0000
  C   C56       1.0  0.80587  0.0021499999999999835  0.19602999999999998  1.0000
  C   C57       1.0  0.77228  0.9791  0.19912  1.0000
  C   C58       1.0  0.73574  0.93329  0.15332  1.0000
  C   C59       1.0  0.73546  0.91017  0.10509999999999999  1.0000
  C   C60       1.0  0.7693  0.93306  0.10208  1.0000
  C   C61       1.0  0.6961700000000001  0.91278  0.15498  1.0000
  C   C62       1.0  0.67936  0.94623  0.18524  1.0000
  C   C63       1.0  0.64066  0.9306100000000002  0.1876  1.0000
  C   C64       1.0  0.61923  0.87949  0.16018  1.0000
  C   C65       1.0  0.63471  0.84492  0.12865  1.0000
  C   C66       1.0  0.67285  0.86181  0.12597  1.0000
  C   C67       1.0  0.6091299999999997  0.79111  0.09598  1.0000
  C   C68       1.0  0.5976899999999998  0.76871  0.11802  1.0000
  C   C69       1.0  0.57281  0.71825  0.0864  1.0000
  C   C70       1.0  0.55702  0.68889  0.03077  1.0000
  C   C71       1.0  0.56791  0.71089  0.00818  1.0000
  C   C72       1.0  0.59433  0.76088  0.04066  1.0000
  C   C73       1.0  0.4661099999999999  0.35883999999999994  0.99496  1.0000
  C   C74       1.0  0.6235399999999999  0.96897  0.21758  1.0000
  C   C75       1.0  0.62543  0.012520000000000007  0.21774000000000002  1.0000
  C   C76       1.0  0.61229  0.050730000000000025  0.24775  1.0000
  C   C77       1.0  0.59701  0.04637999999999999  0.27856  1.0000
  C   C78       1.0  0.59508  0.003329999999999997  0.27879  1.0000
  C   C79       1.0  0.60771  0.96479  0.24823999999999996  1.0000
  C   C80       1.0  0.022559999999999986  0.16287  0.19100999999999999  1.0000
  C   C81       1.0  0.7994799999999997  0.42749000000000004  0.51568  1.0000
  C   C82       1.0  0.30381  0.15857  0.30451  1.0000
  C   C83       1.0  0.3413799999999999  0.19501999999999997  0.3645399999999999  1.0000
  C   C84       1.0  0.38896  0.19024  0.38915  1.0000
  C   C85       1.0  0.4255  0.22629  0.44376  1.0000
  C   C86       1.0  0.41518  0.26755  0.47517  1.0000
  C   C87       1.0  0.36686  0.27102999999999994  0.4510199999999999  1.0000
  C   C88       1.0  0.33045  0.2353  0.39613  1.0000
  C   C89       1.0  0.45573  0.30751  0.53152  1.0000
  C   C90       1.0  0.50194  0.32322  0.54131  1.0000
  C   C91       1.0  0.54215  0.36058  0.59392  1.0000
  C   C92       1.0  0.53539  0.38262  0.63728  1.0000
  C   C93       1.0  0.48937999999999987  0.36805  0.62865  1.0000
  C   C94       1.0  0.44972999999999996  0.33041  0.57546  1.0000
  C   C95       1.0  0.48287  0.39241  0.67475  1.0000
  C   C96       1.0  0.5101799999999999  0.44242999999999993  0.7185599999999999  1.0000
  C   C97       1.0  0.50301  0.4661  0.76112  1.0000
  C   C98       1.0  0.4678799999999999  0.44032  0.76092  1.0000
  C   C99       1.0  0.4412499999999999  0.39016999999999996  0.7182299999999999  1.0000
  C   C100      1.0  0.44895  0.36659  0.67609  1.0000
  C   C101      1.0  0.4583700000000001  0.4652200000000001  0.8044500000000001  1.0000
  C   C102      1.0  0.59072  0.3750899999999999  0.60305  1.0000
  C   C103      1.0  0.59328  0.37306  0.56136  1.0000
  C   C104      1.0  0.63896  0.38619  0.56968  1.0000
  C   C105      1.0  0.68314  0.40148  0.61959  1.0000
  C   C106      1.0  0.68097  0.40282  0.66098  1.0000
  C   C107      1.0  0.6352899999999998  0.3898400000000001  0.65278  1.0000
  C   C108      1.0  0.16704  0.14747  0.12878  1.0000
  C   C109      1.0  0.30702  0.98502  0.16512  1.0000
  C   C110      1.0  0.34614  0.9601899999999999  0.17669  1.0000
  C   C111      1.0  0.3360299999999999  0.9143199999999999  0.16987  1.0000
  C   C112      1.0  0.37388999999999994  0.89337  0.1844  1.0000
  C   C113      1.0  0.4225999999999998  0.91812  0.20629999999999998  1.0000
  C   C114      1.0  0.4319899999999998  0.96314  0.21094  1.0000
  C   C115      1.0  0.39423  0.9839399999999999  0.19621999999999998  1.0000
  C   C116      1.0  0.46484000000000003  0.9009399999999999  0.22991  1.0000
  C   C117      1.0  0.46452  0.85136  0.20516  1.0000
  C   C118      1.0  0.50634  0.8380800000000002  0.23082  1.0000
  C   C119      1.0  0.5484  0.87522  0.28227  1.0000
  C   C120      1.0  0.54913  0.92497  0.30809  1.0000
  C   C121      1.0  0.50731  0.93699  0.281  1.0000
  C   C122      1.0  0.59214  0.96532  0.36210999999999993  1.0000
  C   C123      1.0  0.64097  0.96422  0.37869  1.0000
  C   C124      1.0  0.6810099999999998  0.0041999999999999885  0.42784999999999995  1.0000
  C   C125      1.0  0.67362  0.045950000000000005  0.46217  1.0000
  C   C126      1.0  0.62508  0.04735000000000001  0.44615  1.0000
  C   C127      1.0  0.58494  0.007519999999999982  0.39674  1.0000
  C   C128      1.0  0.5055599999999998  0.78558  0.20459  1.0000
  C   C129      1.0  0.46118  0.74703  0.17331000000000002  1.0000
  C   C130      1.0  0.46012000000000003  0.69768  0.15023  1.0000
  C   C131      1.0  0.50345  0.68482  0.15661  1.0000
  C   C132      1.0  0.54771  0.7227200000000001  0.18661  1.0000
  C   C133      1.0  0.54872  0.77219  0.21048  1.0000
  C   C134      1.0  0.36601  0.49689  0.86373  1.0000
  C   C135      1.0  0.30701  0.13732  0.14496  1.0000
  C   C136      1.0  0.34478  0.16857  0.14907  1.0000
  C   C137      1.0  0.3922199999999999  0.19512  0.19769  1.0000
  C   C138      1.0  0.4285499999999998  0.2214  0.20046  1.0000
  C   C139      1.0  0.41869  0.22139  0.15458  1.0000
  C   C140      1.0  0.37054  0.19606000000000004  0.10659  1.0000
  C   C141      1.0  0.33403  0.17002  0.1039  1.0000
  C   C142      1.0  0.45956  0.24343  0.15568  1.0000
  C   C143      1.0  0.50665  0.24007  0.18548  1.0000
  C   C144      1.0  0.5475  0.25769  0.18732000000000001  1.0000
  C   C145      1.0  0.54129  0.28116  0.15974  1.0000
  C   C146      1.0  0.49419  0.28427  0.12853  1.0000
  C   C147      1.0  0.45357  0.26514  0.12646  1.0000
  C   C148      1.0  0.48686  0.30503  0.0956  1.0000
  C   C149      1.0  0.52048  0.34932  0.11731  1.0000
  C   C150      1.0  0.51352  0.36789  0.08553  1.0000
  C   C151      1.0  0.47332  0.3415  0.03005  1.0000
  C   C152      1.0  0.43971  0.29695  0.0077  1.0000
  C   C153      1.0  0.446  0.27975  0.0404  1.0000
  C   C154      1.0  0.52892  0.63632  0.99557  1.0000
  C   C155      1.0  0.59441  0.24888000000000002  0.21685  1.0000
  C   C156      1.0  0.59214  0.20508  0.21618  1.0000
  C   C157      1.0  0.63496  0.19661  0.24625  1.0000
  C   C158      1.0  0.68126  0.23189  0.27781  1.0000
  C   C159      1.0  0.68403  0.27547  0.27866  1.0000
  C   C160      1.0  0.6411300000000001  0.28372  0.24806000000000003  1.0000
  C   C161      1.0  0.16902  0.028190000000000003  0.19142  1.0000
  C   C162      1.0  0.7174999999999998  0.08721  0.51557  1.0000
  C   C163      1.0  0.9085  0.24993  0.8044000000000001  1.0000
  C   C164      1.0  0.9449700000000001  0.27251  0.86438  1.0000
  C   C165      1.0  0.94031  0.2495  0.88891  1.0000
  C   C166      1.0  0.9764800000000001  0.26753  0.9434  1.0000
  C   C167      1.0  0.017690000000000004  0.30938  0.97486  1.0000
  C   C168      1.0  0.021050000000000017  0.33359  0.95082  1.0000
  C   C169      1.0  0.98524  0.3150900000000001  0.8960100000000001  1.0000
  C   C170      1.0  0.05768  0.32532  0.031170000000000003  1.0000
  C   C171      1.0  0.07347  0.28903  0.04095  1.0000
  C   C172      1.0  0.1107  0.30156  0.09358  1.0000
  C   C173      1.0  0.1327  0.35172999999999993  0.13695  1.0000
  C   C174      1.0  0.11813  0.38898  0.12831  1.0000
  C   C175      1.0  0.08046  0.37531  0.07515  1.0000
  C   C176      1.0  0.14242  0.44164  0.17443999999999998  1.0000
  C   C177      1.0  0.19248  0.45834  0.21824  1.0000
  C   C178      1.0  0.21609  0.50815  0.26076  1.0000
  C   C179      1.0  0.19023999999999994  0.54302  0.26062  1.0000
  C   C180      1.0  0.14003999999999997  0.52674  0.21785999999999997  1.0000
  C   C181      1.0  0.11653000000000002  0.47681  0.17578000000000002  1.0000
  C   C182      1.0  0.21514  0.59616  0.30417  1.0000
  C   C183      1.0  0.12506  0.26228  0.10282  1.0000
  C   C184      1.0  0.12258  0.21769  0.06098  1.0000
  C   C185      1.0  0.13527  0.18035  0.06927  1.0000
  C   C186      1.0  0.15066  0.18655  0.11936  1.0000
  C   C187      1.0  0.15255999999999995  0.23049  0.16093  1.0000
  C   C188      1.0  0.13989  0.2679  0.1527  1.0000
  C   C189      1.0  0.89751  0.21126000000000006  0.62921  1.0000
  C   C190      1.0  0.73521  0.10759999999999996  0.66476  1.0000
  C   C191      1.0  0.7104399999999997  0.08035000000000005  0.67658  1.0000
  C   C192      1.0  0.66464  0.08381999999999998  0.6701  1.0000
  C   C193      1.0  0.64384  0.06092999999999998  0.68507  1.0000
  C   C194      1.0  0.66864  0.03433999999999999  0.70703  1.0000
  C   C195      1.0  0.71363  0.02943000000000001  0.71139  1.0000
  C   C196      1.0  0.73428  0.052020000000000025  0.69623  1.0000
  C   C197      1.0  0.65151  0.015820000000000008  0.73071  1.0000
  C   C198      1.0  0.60195  0.99097  0.70578  1.0000
  C   C199      1.0  0.5887  0.97466  0.7313  1.0000
  C   C200      1.0  0.62583  0.98411  0.78267  1.0000
  C   C201      1.0  0.67558  0.009539999999999977  0.80863  1.0000
  C   C202      1.0  0.68758  0.024579999999999994  0.78177  1.0000
  C   C203      1.0  0.71595  0.020459999999999978  0.86246  1.0000
  C   C204      1.0  0.71485  0.98795  0.87858  1.0000
  C   C205      1.0  0.75493  0.99681  0.92745  1.0000
  C   C206      1.0  0.7966699999999999  0.038620000000000064  0.9619200000000001  1.0000
  C   C207      1.0  0.79801  0.07142000000000003  0.94638  1.0000
  C   C208      1.0  0.7581799999999999  0.06234999999999996  0.8972299999999999  1.0000
  C   C209      1.0  0.53618  0.94901  0.70498  1.0000
  C   C210      1.0  0.49751  0.96177  0.67354  1.0000
  C   C211      1.0  0.44814  0.93952  0.65038  1.0000
  C   C212      1.0  0.43535000000000007  0.90274  0.65691  1.0000
  C   C213      1.0  0.47339  0.889  0.68728  1.0000
  C   C214      1.0  0.52288  0.91203  0.71117  1.0000
  C   C215      1.0  0.24623999999999996  0.74806  0.36444999999999994  1.0000
  C   C216      1.0  0.8877399999999999  0.08770000000000006  0.64565  1.0000
  C   C217      1.0  0.9190800000000001  0.05419999999999999  0.64981  1.0000
  C   C218      1.0  0.9454499999999998  0.0555599999999999  0.6984299999999999  1.0000
  C   C219      1.0  0.97164  0.02200999999999998  0.70123  1.0000
  C   C220      1.0  0.97173  0.9859300000000001  0.65535  1.0000
  C   C221      1.0  0.94667  0.98594  0.60739  1.0000
  C   C222      1.0  0.92072  0.019749999999999986  0.60468  1.0000
  C   C223      1.0  0.9936099999999999  0.94617  0.65637  1.0000
  C   C224      1.0  0.98982  0.92883  0.68585  1.0000
  C   C225      1.0  0.007390000000000039  0.8898500000000001  0.6875200000000001  1.0000
  C   C226      1.0  0.03105999999999997  0.8684699999999999  0.66004  1.0000
  C   C227      1.0  0.034499999999999996  0.8844  0.62911  1.0000
  C   C228      1.0  0.01554000000000003  0.92301  0.62728  1.0000
  C   C229      1.0  0.055349999999999996  0.8587800000000001  0.59615  1.0000
  C   C230      1.0  0.09955999999999995  0.8467499999999999  0.61767  1.0000
  C   C231      1.0  0.11804000000000005  0.8217100000000002  0.58573  1.0000
  C   C232      1.0  0.09161  0.8063599999999999  0.53029  1.0000
  C   C233      1.0  0.04724000000000003  0.8179100000000001  0.50818  1.0000
  C   C234      1.0  0.030160000000000003  0.8445199999999999  0.54106  1.0000
  C   C235      1.0  0.38594  0.71746  0.49533  1.0000
  C   C236      1.0  0.99866  0.87261  0.71708  1.0000
  C   C237      1.0  0.9548799999999998  0.87408  0.71663  1.0000
  C   C238      1.0  0.9465999999999996  0.86119  0.74668  1.0000
  C   C239      1.0  0.9821699999999998  0.84674  0.77822  1.0000
  C   C240      1.0  0.025829999999999933  0.84521  0.7789699999999999  1.0000
  C   C241      1.0  0.03381000000000005  0.85743  0.74823  1.0000
  C   C242      1.0  0.7781  0.27203  0.69131  1.0000
  C   C243      1.0  0.83813  0.0482  0.015119999999999998  1.0000
  C   C244      1.0  0.89476  0.5529799999999999  0.8042699999999999  1.0000
  C   C245      1.0  0.9181  0.59071  0.86417  1.0000
  C   C246      1.0  0.94691  0.63849  0.88859  1.0000
  C   C247      1.0  0.96559  0.67507  0.94318  1.0000
  C   C248      1.0  0.95645  0.66463  0.97486  1.0000
  C   C249      1.0  0.92915  0.61623  0.95084  1.0000
  C   C250      1.0  0.9098799999999997  0.5797599999999999  0.8959499999999999  1.0000
  C   C251      1.0  0.97316  0.70516  0.03131  1.0000
  C   C252      1.0  0.96726  0.75134  0.04125  1.0000
  C   C253      1.0  0.98301  0.79161  0.09399  1.0000
  C   C254      1.0  0.004459999999999994  0.78478  0.13724  1.0000
  C   C255      1.0  0.01031  0.73879  0.12846  1.0000
  C   C256      1.0  0.9946  0.69919  0.07522  1.0000
  C   C257      1.0  0.03210999999999997  0.73228  0.17450999999999997  1.0000
  C   C258      1.0  0.025879999999999993  0.75959  0.21826  1.0000
  C   C259      1.0  0.04461999999999999  0.75242  0.26073  1.0000
  C   C260      1.0  0.07007  0.71725  0.26062  1.0000
  C   C261      1.0  0.07747999999999998  0.69054  0.21790999999999996  1.0000
  C   C262      1.0  0.05908999999999999  0.69826  0.17583999999999997  1.0000
  C   C263      1.0  0.08840999999999997  0.70765  0.30403  1.0000
  C   C264      1.0  0.9781  0.84028  0.10344  1.0000
  C   C265      1.0  0.9388499999999997  0.84314  0.061689999999999995  1.0000
  C   C266      1.0  0.93478  0.88892  0.07015  1.0000
  C   C267      1.0  0.96966  0.93287  0.12034999999999998  1.0000
  C   C268      1.0  0.009260000000000003  0.93042  0.16182  1.0000
  C   C269      1.0  0.013389999999999996  0.88463  0.15342  1.0000
  C   C270      1.0  0.7317  0.41835000000000006  0.62906  1.0000
  C   C271      1.0  0.92811  0.5574700000000001  0.66602  1.0000
  C   C272      1.0  0.96451  0.5967399999999999  0.6776399999999999  1.0000
  C   C273      1.0  0.0034199999999999743  0.58655  0.67045  1.0000
  C   C274      1.0  0.03897000000000003  0.62424  0.68477  1.0000
  C   C275      1.0  0.03630999999999998  0.67293  0.70688  1.0000
  C   C276      1.0  0.99607  0.68246  0.71195  1.0000
  C   C277      1.0  0.96056  0.64485  0.69756  1.0000
  C   C278      1.0  0.07731999999999996  0.71499  0.73038  1.0000
  C   C279      1.0  0.10181000000000001  0.7146  0.70527  1.0000
  C   C280      1.0  0.14089000000000004  0.75634  0.73082  1.0000
  C   C281      1.0  0.15569  0.79835  0.78245  1.0000
  C   C282      1.0  0.13224  0.7990500000000001  0.80869  1.0000
  C   C283      1.0  0.09299999999999997  0.75734  0.78176  1.0000
  C   C284      1.0  0.14645  0.84199  0.86292  1.0000
  C   C285      1.0  0.16361999999999988  0.89073  0.87914  1.0000
  C   C286      1.0  0.17292  0.93082  0.92828  1.0000
  C   C287      1.0  0.16619999999999993  0.9234599999999998  0.9629299999999998  1.0000
  C   C288      1.0  0.14958999999999997  0.8750199999999999  0.9474599999999999  1.0000
  C   C289      1.0  0.1397799999999999  0.83485  0.89802  1.0000
  C   C290      1.0  0.16702000000000006  0.75578  0.70454  1.0000
  C   C291      1.0  0.1740599999999999  0.71156  0.6728099999999999  1.0000
  C   C292      1.0  0.20046999999999995  0.71084  0.64998  1.0000
  C   C293      1.0  0.22019999999999995  0.7543399999999999  0.6570699999999999  1.0000
  C   C294      1.0  0.21249999999999994  0.7985  0.68755  1.0000
  C   C295      1.0  0.18670999999999993  0.79917  0.71114  1.0000
  C   C296      1.0  0.11729999999999995  0.6163  0.36402999999999996  1.0000
  C   C297      1.0  0.75603  0.55714  0.6445  1.0000
  C   C298      1.0  0.72883  0.59473  0.64851  1.0000
  C   C299      1.0  0.75082  0.64182  0.69755  1.0000
  C   C300      1.0  0.72771  0.67835  0.7003  1.0000
  C   C301      1.0  0.68232  0.66888  0.65405  1.0000
  C   C302      1.0  0.65958  0.62102  0.60568  1.0000
  C   C303      1.0  0.68257  0.58431  0.60294  1.0000
  C   C304      1.0  0.66195  0.70997  0.65541  1.0000
  C   C305      1.0  0.69557  0.75686  0.68541  1.0000
  C   C306      1.0  0.6801099999999999  0.7978599999999999  0.6876599999999999  1.0000
  C   C307      1.0  0.62899  0.792  0.66026  1.0000
  C   C308      1.0  0.5943  0.74507  0.62879  1.0000
  C   C309      1.0  0.61099  0.70431  0.62633  1.0000
  C   C310      1.0  0.54055  0.73794  0.59593  1.0000
  C   C311      1.0  0.51803  0.77139  0.61787  1.0000
  C   C312      1.0  0.46759  0.76456  0.58607  1.0000
  C   C313      1.0  0.43848999999999994  0.72466  0.53042  1.0000
  C   C314      1.0  0.46065  0.69117  0.5079  1.0000
  C   C315      1.0  0.51062  0.69733  0.5406  1.0000
  C   C316      1.0  0.1089  0.77827  0.4951  1.0000
  C   C317      1.0  0.71874  0.84467  0.71749  1.0000
  C   C318      1.0  0.76213  0.8425  0.7172  1.0000
  C   C319      1.0  0.80064  0.88544  0.74729  1.0000
  C   C320      1.0  0.79677  0.9316799999999998  0.77861  1.0000
  C   C321      1.0  0.7538099999999998  0.93425  0.7792300000000001  1.0000
  C   C322      1.0  0.7149099999999999  0.89126  0.7485299999999999  1.0000
  C   C323      1.0  0.91333  0.41796  0.69046  1.0000
  C   C324      1.0  0.17802  0.96727  0.0161  1.0000
  C   C325      1.0  0.4457599999999999  0.10429  0.19578  1.0000
  C   C326      1.0  0.40838  0.0807  0.13573  1.0000
  C   C327      1.0  0.36061  0.05152  0.11096  1.0000
  C   C328      1.0  0.32423  0.03291  0.05635999999999999  1.0000
  C   C329      1.0  0.33486  0.04247  0.02503  1.0000
  C   C330      1.0  0.38335  0.06995  0.049350000000000005  1.0000
  C   C331      1.0  0.41959999999999986  0.08915  0.10425  1.0000
  C   C332      1.0  0.29445  0.026039999999999994  0.96868  1.0000
  C   C333      1.0  0.24824  0.032039999999999985  0.95886  1.0000
  C   C334      1.0  0.20809999999999995  0.016619999999999947  0.9062199999999999  1.0000
  C   C335      1.0  0.21497999999999992  0.99517  0.86295  1.0000
  C   C336      1.0  0.26101  0.98931  0.87163  1.0000
  C   C337      1.0  0.30055  0.004879999999999998  0.9248  1.0000
  C   C338      1.0  0.26755999999999996  0.9677500000000001  0.82554  1.0000
  C   C339      1.0  0.24021000000000006  0.9741400000000001  0.78201  1.0000
  C   C340      1.0  0.24718999999999994  0.9553599999999999  0.73933  1.0000
  C   C341      1.0  0.2822299999999999  0.9297499999999999  0.7390999999999999  1.0000
  C   C342      1.0  0.309  0.9221900000000001  0.78159  1.0000
  C   C343      1.0  0.30146  0.94063  0.82385  1.0000
  C   C344      1.0  0.29159  0.9113  0.69546  1.0000
  C   C345      1.0  0.15946999999999995  0.021929999999999953  0.8968599999999999  1.0000
  C   C346      1.0  0.15678000000000003  0.06149  0.93862  1.0000
  C   C347      1.0  0.11101999999999998  0.06612  0.93012  1.0000
  C   C348      1.0  0.06695000000000002  0.03148999999999999  0.87991  1.0000
  C   C349      1.0  0.06923000000000003  0.99162  0.83842  1.0000
  C   C350      1.0  0.11498999999999995  0.98695  0.84684  1.0000
  C   C351      1.0  0.58238  0.26837  0.37069  1.0000
  C   C352      1.0  0.44264  0.07022000000000003  0.33538  1.0000
  C   C353      1.0  0.4034  0.03363  0.32345  1.0000
  C   C354      1.0  0.41345  0.99445  0.32994  1.0000
  C   C355      1.0  0.37556  0.95883  0.31521  1.0000
  C   C356      1.0  0.32693  0.96172  0.29344  1.0000
  C   C357      1.0  0.3175  0.0021099999999999977  0.28888  1.0000
  C   C358      1.0  0.35531  0.03776999999999997  0.3038  1.0000
  C   C359      1.0  0.28475  0.9209  0.26984  1.0000
  C   C360      1.0  0.28493  0.89635  0.2947  1.0000
  C   C361      1.0  0.24302  0.8574  0.26893  1.0000
  C   C362      1.0  0.20097  0.84289  0.2175  1.0000
  C   C363      1.0  0.20045  0.86664  0.19169  1.0000
  C   C364      1.0  0.24241000000000001  0.90563  0.21872  1.0000
  C   C365      1.0  0.15763  0.85307  0.13779  1.0000
  C   C366      1.0  0.1087  0.8355100000000002  0.12103999999999998  1.0000
  C   C367      1.0  0.06889  0.82663  0.07202  1.0000
  C   C368      1.0  0.07674  0.83437  0.03821  1.0000
  C   C369      1.0  0.12538  0.85175  0.0545  1.0000
  C   C370      1.0  0.16526999999999994  0.86086  0.10362  1.0000
  C   C371      1.0  0.24362  0.83128  0.29507  1.0000
  C   C372      1.0  0.28799  0.8243100000000001  0.32657  1.0000
  C   C373      1.0  0.28887  0.79814  0.34958  1.0000
  C   C374      1.0  0.24543000000000004  0.77874  0.3429  1.0000
  C   C375      1.0  0.20109  0.78618  0.31243  1.0000
  C   C376      1.0  0.20023  0.8117  0.28862  1.0000
  C   C377      1.0  0.38296  0.88185  0.63534  1.0000
  C   C378      1.0  0.44399000000000005  0.24197000000000002  0.35613  1.0000
  C   C379      1.0  0.40630000000000005  0.26922  0.35156000000000004  1.0000
  C   C380      1.0  0.35904  0.24710000000000001  0.30267  1.0000
  C   C381      1.0  0.32267  0.27058  0.29967  1.0000
  C   C382      1.0  0.33231  0.31651  0.34556  1.0000
  C   C383      1.0  0.38036  0.33934  0.39373  1.0000
  C   C384      1.0  0.41689  0.31599  0.39664  1.0000
  C   C385      1.0  0.29131  0.33736  0.34422  1.0000
  C   C386      1.0  0.24418  0.30405  0.31422  1.0000
  C   C387      1.0  0.20324999999999996  0.31976  0.31224  1.0000
  C   C388      1.0  0.20946  0.37091  0.33979  1.0000
  C   C389      1.0  0.25652  0.4054  0.37104  1.0000
  C   C390      1.0  0.29721  0.38839  0.37333  1.0000
  C   C391      1.0  0.26359  0.45921000000000006  0.40371  1.0000
  C   C392      1.0  0.22999000000000003  0.48150999999999994  0.38161  1.0000
  C   C393      1.0  0.23646  0.53189  0.41324  1.0000
  C   C394      1.0  0.27616  0.56126  0.46898  1.0000
  C   C395      1.0  0.30983  0.5393699999999999  0.49160999999999994  1.0000
  C   C396      1.0  0.30406  0.48947999999999997  0.4591  1.0000
  C   C397      1.0  0.22137  0.89094  0.50448  1.0000
  C   C398      1.0  0.15623  0.28135  0.2826  1.0000
  C   C399      1.0  0.15822  0.23803  0.28288  1.0000
  C   C400      1.0  0.1152  0.19958000000000004  0.25283  1.0000
  C   C401      1.0  0.06888999999999999  0.20338999999999996  0.22150999999999998  1.0000
  C   C402      1.0  0.06646  0.24632  0.22102  1.0000
  C   C403      1.0  0.10956  0.28512  0.25164  1.0000
  C   C404      1.0  0.58083  0.0864  0.30888  1.0000
  C   C405      1.0  0.03341000000000001  0.82245  0.98478  1.0000
  C   C406      1.0  0.74871  0.09046  0.19434  1.0000
  C   C407      1.0  0.7262  0.05400000000000001  0.13439  1.0000
  C   C408      1.0  0.74925  0.05883  0.10992  1.0000
  C   C409      1.0  0.73141  0.02268  0.05546  1.0000
  C   C410      1.0  0.68974  0.98131  0.024040000000000002  1.0000
  C   C411      1.0  0.66542  0.97778  0.04801  1.0000
  C   C412      1.0  0.68372  0.013600000000000001  0.10279  1.0000
  C   C413      1.0  0.6740999999999999  0.94136  0.9677999999999999  1.0000
  C   C414      1.0  0.71062  0.92581  0.95814  1.0000
  C   C415      1.0  0.6983  0.88867  0.90552  1.0000
  C   C416      1.0  0.6481  0.86662  0.86206  1.0000
  C   C417      1.0  0.6106599999999999  0.8809899999999999  0.8705999999999999  1.0000
  C   C418      1.0  0.62414  0.9185  0.92376  1.0000
  C   C419      1.0  0.5579699999999999  0.8566900000000001  0.8244700000000001  1.0000
  C   C420      1.0  0.54123  0.8067  0.78056  1.0000
  C   C421      1.0  0.49132000000000003  0.78307  0.73817  1.0000
  C   C422      1.0  0.45639  0.80888  0.73859  1.0000
  C   C423      1.0  0.47282  0.85908  0.78136  1.0000
  C   C424      1.0  0.5228  0.88256  0.82331  1.0000
  C   C425      1.0  0.4030399999999999  0.78426  0.69548  1.0000
  C   C426      1.0  0.7377899999999998  0.8742899999999999  0.8964499999999999  1.0000
  C   C427      1.0  0.78224  0.87662  0.93828  1.0000
  C   C428      1.0  0.81963  0.86357  0.93001  1.0000
  C   C429      1.0  0.81365  0.84794  0.87995  1.0000
  C   C430      1.0  0.76995  0.84635  0.83846  1.0000
  C   C431      1.0  0.73247  0.8593499999999998  0.8466399999999998  1.0000
  C   C432      1.0  0.78903  0.10212000000000003  0.37009  1.0000
  C   C433      1.0  0.8916  0.26244  0.33321  1.0000
  C   C434      1.0  0.91946  0.28769  0.32227  1.0000
  C   C435      1.0  0.91652  0.33388  0.32995  1.0000
  C   C436      1.0  0.9399  0.35524  0.31582  1.0000
  C   C437      1.0  0.9664899999999997  0.33061  0.2936  1.0000
  C   C438      1.0  0.97105  0.28533  0.28829  1.0000
  C   C439      1.0  0.94782  0.26402  0.30244  1.0000
  C   C440      1.0  0.98495  0.34813  0.27019  1.0000
  C   C441      1.0  0.00958999999999998  0.39773  0.29525  1.0000
  C   C442      1.0  0.025569999999999975  0.41113  0.26959  1.0000
  C   C443      1.0  0.016040000000000006  0.37424  0.21807  1.0000
  C   C444      1.0  0.9907399999999998  0.32451  0.19201  1.0000
  C   C445      1.0  0.9759999999999999  0.3123  0.21891999999999998  1.0000
  C   C446      1.0  0.9796  0.28434  0.13798  1.0000
  C   C447      1.0  0.011939999999999992  0.28554  0.12158999999999999  1.0000
  C   C448      1.0  0.0029099999999999977  0.24555  0.07255  1.0000
  C   C449      1.0  0.9612299999999998  0.20377  0.03835  1.0000
  C   C450      1.0  0.9285199999999998  0.20234  0.054099999999999995  1.0000
  C   C451      1.0  0.93768  0.24216  0.10335  1.0000
  C   C452      1.0  0.05099  0.46354000000000006  0.29572  1.0000
  C   C453      1.0  0.03801999999999999  0.50212  0.32701  1.0000
  C   C454      1.0  0.05993999999999998  0.55138  0.34967  1.0000
  C   C455      1.0  0.09656999999999998  0.56405  0.34281  1.0000
  C   C456      1.0  0.11061  0.52605  0.3127  1.0000
  C   C457      1.0  0.08789999999999998  0.47669  0.2893  1.0000
  C   C458      1.0  0.25115  0.75369  0.63566  1.0000
  C   C459      1.0  0.91226  0.11162000000000002  0.35373  1.0000
  C   C460      1.0  0.94577  0.08024999999999997  0.34975  1.0000
  C   C461      1.0  0.9442900000000001  0.05344999999999997  0.30104  1.0000
  C   C462      1.0  0.97786  0.027219999999999994  0.29835  1.0000
  C   C463      1.0  0.01404  0.02755000000000001  0.34443  1.0000
  C   C464      1.0  0.014139999999999982  0.053079999999999995  0.3925199999999999  1.0000
  C   C465      1.0  0.98032  0.07910999999999997  0.3951  1.0000
  C   C466      1.0  0.05382999999999998  0.005680000000000021  0.3434  1.0000
  C   C467      1.0  0.07115  0.009259999999999992  0.31377  1.0000
  C   C468      1.0  0.11033000000000003  0.9919299999999999  0.3122  1.0000
  C   C469      1.0  0.13172  0.96846  0.33977  1.0000
  C   C470      1.0  0.11568999999999997  0.9651  0.37071  1.0000
  C   C471      1.0  0.07702  0.98398  0.3726  1.0000
  C   C472      1.0  0.14133  0.9444  0.40364  1.0000
  C   C473      1.0  0.15333999999999998  0.9002199999999999  0.38200999999999996  1.0000
  C   C474      1.0  0.17833  0.88179  0.4139  1.0000
  C   C475      1.0  0.1936  0.90827  0.46935  1.0000
  C   C476      1.0  0.18212999999999996  0.95265  0.49155999999999994  1.0000
  C   C477      1.0  0.15558  0.96969  0.45876  1.0000
  C   C478      1.0  0.28291  0.61367  0.50419  1.0000
  C   C479      1.0  0.12779  0.0009500000000000182  0.28289  1.0000
  C   C480      1.0  0.12596  0.04471  0.28352  1.0000
  C   C481      1.0  0.13864  0.053290000000000025  0.25349  1.0000
  C   C482      1.0  0.15348  0.018170000000000002  0.22196  1.0000
  C   C483      1.0  0.15561  0.97464  0.22123  1.0000
  C   C484      1.0  0.14343  0.96627  0.25181  1.0000
  C   C485      1.0  0.7274599999999999  0.22205999999999998  0.30841  1.0000
  C   C486      1.0  0.95183  0.1622000000000001  0.98531  1.0000
  C   C487      1.0  0.85359  0.99999  0.69525  1.0000
  C   C488      1.0  0.8302  0.97745  0.63534  1.0000
  C   C489      1.0  0.80125  0.0006199999999999894  0.6109  1.0000
  C   C490      1.0  0.7831499999999998  0.9828  0.55653  1.0000
  C   C491      1.0  0.79294  0.94101  0.52513  1.0000
  C   C492      1.0  0.8200799999999999  0.91661  0.54909  1.0000
  C   C493      1.0  0.83885  0.93488  0.60378  1.0000
  C   C494      1.0  0.77675  0.92514  0.46888  1.0000
  C   C495      1.0  0.78288  0.96135  0.45901  1.0000
  C   C496      1.0  0.76739  0.94865  0.40629  1.0000
  C   C497      1.0  0.74582  0.89839  0.36303  1.0000
  C   C498      1.0  0.73976  0.86122  0.37176  1.0000
  C   C499      1.0  0.75542  0.8751  0.42497999999999997  1.0000
  C   C500      1.0  0.7178699999999998  0.80846  0.32575  1.0000
  C   C501      1.0  0.72401  0.79168  0.28193  1.0000
  C   C502      1.0  0.70511  0.74186  0.23946  1.0000
  C   C503      1.0  0.6795899999999999  0.7069399999999999  0.23969  1.0000
  C   C504      1.0  0.67219  0.72328  0.28245  1.0000
  C   C505      1.0  0.69076  0.77325  0.32449  1.0000
  C   C506      1.0  0.6611  0.65378  0.1962  1.0000
  C   C507      1.0  0.7725399999999998  0.9878299999999999  0.39686  1.0000
  C   C508      1.0  0.81212  0.03237999999999999  0.43852  1.0000
  C   C509      1.0  0.81663  0.06954000000000003  0.4299700000000001  1.0000
  C   C510      1.0  0.78185  0.06329  0.37982999999999995  1.0000
  C   C511      1.0  0.7418599999999997  0.019529999999999995  0.33859  1.0000
  C   C512      1.0  0.7373399999999996  0.98223  0.34698  1.0000
  C   C513      1.0  0.018410000000000058  0.03878000000000006  0.8704400000000001  1.0000
  C   C514      1.0  0.82045  0.14243  0.83608  1.0000
  C   C515      1.0  0.78396  0.1698  0.82428  1.0000
  C   C516      1.0  0.74467  0.16638000000000003  0.83079  1.0000
  C   C517      1.0  0.70893  0.18933  0.81588  1.0000
  C   C518      1.0  0.7117799999999997  0.21584999999999993  0.79386  1.0000
  C   C519      1.0  0.75242  0.22077000000000005  0.7895500000000001  1.0000
  C   C520      1.0  0.7881799999999997  0.19808999999999993  0.8046399999999999  1.0000
  C   C521      1.0  0.67088  0.23418999999999995  0.7699599999999999  1.0000
  C   C522      1.0  0.6461700000000001  0.25893000000000005  0.7947500000000001  1.0000
  C   C523      1.0  0.6072999999999998  0.27508999999999995  0.7690499999999999  1.0000
  C   C524      1.0  0.59301  0.26554  0.71764  1.0000
  C   C525      1.0  0.61684  0.24011999999999994  0.69179  1.0000
  C   C526      1.0  0.6558399999999999  0.22528  0.7188499999999999  1.0000
  C   C527      1.0  0.60324  0.22900999999999994  0.63786  1.0000
  C   C528      1.0  0.58607  0.26143  0.62159  1.0000
  C   C529      1.0  0.57734  0.25247  0.57274  1.0000
  C   C530      1.0  0.58461  0.21063000000000007  0.53838  1.0000
  C   C531      1.0  0.60122  0.17776  0.55393  1.0000
  C   C532      1.0  0.61051  0.18698  0.60311  1.0000
  C   C533      1.0  0.5812199999999997  0.30086  0.79535  1.0000
  C   C534      1.0  0.5742099999999998  0.28834  0.82701  1.0000
  C   C535      1.0  0.5480699999999998  0.31065999999999994  0.8501599999999999  1.0000
  C   C536      1.0  0.52869  0.34732  0.84346  1.0000
  C   C537      1.0  0.53634  0.36103  0.81306  1.0000
  C   C538      1.0  0.5618599999999999  0.33787999999999996  0.7891699999999999  1.0000
  C   C539      1.0  0.63237  0.50195  0.13577  1.0000
  C   C540      1.0  0.99285  0.16233999999999998  0.85636  1.0000
  C   C541      1.0  0.01975000000000001  0.19542  0.85156  1.0000
  C   C542      1.0  0.99732  0.19369  0.8027  1.0000
  C   C543      1.0  0.02053000000000007  0.22716000000000006  0.7996500000000001  1.0000
  C   C544      1.0  0.06642999999999986  0.26355999999999996  0.8454699999999999  1.0000
  C   C545      1.0  0.08958999999999999  0.26376  0.89356  1.0000
  C   C546      1.0  0.06655999999999998  0.23004000000000005  0.89653  1.0000
  C   C547      1.0  0.08700999999999999  0.30324  0.84412  1.0000
  C   C548      1.0  0.05360999999999999  0.32022  0.81419  1.0000
  C   C549      1.0  0.06938999999999998  0.35909  0.81227  1.0000
  C   C550      1.0  0.12057999999999998  0.38049  0.8397  1.0000
  C   C551      1.0  0.15506999999999999  0.3648399999999999  0.8709399999999999  1.0000
  C   C552      1.0  0.13805000000000003  0.32658  0.87327  1.0000
  C   C553      1.0  0.20888999999999994  0.39041  0.90373  1.0000
  C   C554      1.0  0.23145  0.40210999999999997  0.88193  1.0000
  C   C555      1.0  0.28193  0.42713  0.91374  1.0000
  C   C556      1.0  0.31106  0.44276  0.96929  1.0000
  C   C557      1.0  0.28892000000000007  0.43151999999999996  0.99161  1.0000
  C   C558      1.0  0.23892  0.40498  0.95894  1.0000
  C   C559      1.0  0.64045  0.53282  0.00493  1.0000
  C   C560      1.0  0.03104999999999997  0.37628  0.78254  1.0000
  C   C561      1.0  0.98753  0.37462  0.78263  1.0000
  C   C562      1.0  0.94916  0.38743  0.75241  1.0000
  C   C563      1.0  0.9534200000000002  0.40219  0.72122  1.0000
  C   C564      1.0  0.9965399999999999  0.40401000000000004  0.7209  1.0000
  C   C565      1.0  0.03521999999999999  0.39172  0.75165  1.0000
  C   C566      1.0  0.8373  0.97785  0.80897  1.0000
  C   C567      1.0  0.57337  0.20135  0.48546  1.0000
  C   C568      1.0  0.8406  0.69531  0.69533  1.0000
  C   C569      1.0  0.8042799999999998  0.65789  0.63535  1.0000
  C   C570      1.0  0.80877  0.61018  0.61103  1.0000
  C   C571      1.0  0.77302  0.57373  0.55632  1.0000
  C   C572      1.0  0.73229  0.58426  0.52458  1.0000
  C   C573      1.0  0.72911  0.63269  0.54848  1.0000
  C   C574      1.0  0.76459  0.66907  0.60346  1.0000
  C   C575      1.0  0.6924199999999999  0.54381  0.46815999999999997  1.0000
  C   C576      1.0  0.67653  0.49762  0.45818  1.0000
  C   C577      1.0  0.63923  0.45746  0.40552  1.0000
  C   C578      1.0  0.61737  0.46428  0.36229  1.0000
  C   C579      1.0  0.6321  0.51026  0.37111  1.0000
  C   C580      1.0  0.66973  0.54986  0.42433  1.0000
  C   C581      1.0  0.6077499999999998  0.51677  0.32511  1.0000
  C   C582      1.0  0.5577  0.48949  0.28133  1.0000
  C   C583      1.0  0.534  0.4968  0.23896  1.0000
  C   C584      1.0  0.55974  0.532  0.23920999999999998  1.0000
  C   C585      1.0  0.60995  0.55857  0.2819  1.0000
  C   C586      1.0  0.63355  0.55073  0.32386  1.0000
  C   C587      1.0  0.53457  0.5414  0.19564  1.0000
  C   C588      1.0  0.62466  0.40895  0.39623  1.0000
  C   C589      1.0  0.62722  0.40643999999999997  0.43814999999999993  1.0000
  C   C590      1.0  0.61448  0.36084  0.42993  1.0000
  C   C591      1.0  0.59881  0.31673  0.37979  1.0000
  C   C592      1.0  0.59674  0.31881  0.33806  1.0000
  C   C593      1.0  0.60953  0.36445000000000005  0.34626000000000007  1.0000
  C   C594      1.0  0.85264  0.83085  0.87047  1.0000
  C   C595      1.0  0.012189999999999951  0.6928599999999999  0.8347899999999999  1.0000
  C   C596      1.0  0.03721000000000001  0.65379  0.82332  1.0000
  C   C597      1.0  0.0832599999999999  0.6640799999999999  0.8303599999999999  1.0000
  C   C598      1.0  0.10443000000000004  0.62641  0.81576  1.0000
  C   C599      1.0  0.07979000000000003  0.5776  0.79356  1.0000
  C   C600      1.0  0.03459999999999999  0.56804  0.78875  1.0000
  C   C601      1.0  0.013569999999999992  0.60562  0.80351  1.0000
  C   C602      1.0  0.09729999999999994  0.5355399999999999  0.7699899999999998  1.0000
  C   C603      1.0  0.1469699999999999  0.53596  0.7950099999999999  1.0000
  C   C604      1.0  0.16049  0.49427  0.7694499999999999  1.0000
  C   C605      1.0  0.1235899999999999  0.45220999999999995  0.7178599999999999  1.0000
  C   C606      1.0  0.07378  0.45132  0.6918  1.0000
  C   C607      1.0  0.061490000000000024  0.49302  0.71874  1.0000
  C   C608      1.0  0.033739999999999964  0.40816  0.63766  1.0000
  C   C609      1.0  0.035039999999999995  0.35945  0.62123  1.0000
  C   C610      1.0  0.99534  0.31924  0.57187  1.0000
  C   C611      1.0  0.9536300000000001  0.32639  0.53725  1.0000
  C   C612      1.0  0.9520800000000001  0.3748  0.55313  1.0000
  C   C613      1.0  0.9916299999999999  0.41507  0.60267  1.0000
  C   C614      1.0  0.21301999999999993  0.49499  0.79562  1.0000
  C   C615      1.0  0.25175  0.5392  0.82684  1.0000
  C   C616      1.0  0.30106  0.53993  0.84943  1.0000
  C   C617      1.0  0.31372  0.49649  0.84262  1.0000
  C   C618      1.0  0.27563  0.45242  0.81271  1.0000
  C   C619      1.0  0.22620999999999994  0.45172999999999996  0.78936  1.0000
  C   C620      1.0  0.5029299999999998  0.63257  0.13534  1.0000
  C   C621      1.0  0.86136  0.693  0.85656  1.0000
  C   C622      1.0  0.83023  0.65524  0.85249  1.0000
  C   C623      1.0  0.8033  0.60814  0.80337  1.0000
  C   C624      1.0  0.7771999999999997  0.57146  0.8002299999999999  1.0000
  C   C625      1.0  0.7776799999999999  0.5807499999999999  0.8461999999999998  1.0000
  C   C626      1.0  0.80325  0.62858  0.89466  1.0000
  C   C627      1.0  0.82927  0.66541  0.89777  1.0000
  C   C628      1.0  0.7556999999999998  0.53955  0.84451  1.0000
  C   C629      1.0  0.7591  0.49263999999999997  0.8142699999999999  1.0000
  C   C630      1.0  0.74148  0.45159  0.81201  1.0000
  C   C631      1.0  0.71794  0.45743  0.83954  1.0000
  C   C632      1.0  0.71481  0.5043599999999999  0.8710999999999999  1.0000
  C   C633      1.0  0.73395  0.54518  0.87364  1.0000
  C   C634      1.0  0.69409  0.51158  0.90406  1.0000
  C   C635      1.0  0.64974  0.47805  0.88236  1.0000
  C   C636      1.0  0.63118  0.48512000000000005  0.91423  1.0000
  C   C637      1.0  0.65775  0.52532  0.96972  1.0000
  C   C638      1.0  0.70238  0.55883  0.99208  1.0000
  C   C639      1.0  0.71951  0.55244  0.95927  1.0000
  C   C640      1.0  0.3636  0.47087  0.0047  1.0000
  C   C641      1.0  0.75034  0.40483  0.78218  1.0000
  C   C642      1.0  0.79415  0.40726  0.78274  1.0000
  C   C643      1.0  0.80287  0.3645300000000001  0.75281  1.0000
  C   C644      1.0  0.7678  0.31815  0.72145  1.0000
  C   C645      1.0  0.72407  0.31527  0.72052  1.0000
  C   C646      1.0  0.71559  0.35808  0.75101  1.0000
  C   C647      1.0  0.97282  0.83125  0.80911  1.0000
  C   C648      1.0  0.9124199999999998  0.2825599999999999  0.48364999999999997  1.0000
  O   O1        1.0  0.02513000000000001  0.12024  0.28491  1.0000
  O   O2        1.0  0.9602299999999999  0.1499  0.27463  1.0000
  O   O3        1.0  0.37741  0.35924  0.80078  1.0000
  O   O4        1.0  0.35941  0.33316  0.84361  1.0000
  O   O5        1.0  0.92887  0.98091  0.08827  1.0000
  O   O6        1.0  0.9909599999999998  0.019850000000000007  0.17878  1.0000
  O   O7        1.0  0.88119  0.18382  0.14296  1.0000
  O   O8        1.0  0.85629  0.14575999999999997  0.17216999999999996  1.0000
  O   O9        1.0  0.4818599999999999  0.34372  0.87836  1.0000
  O   O10       1.0  0.48903  0.40816  0.86895  1.0000
  O   O11       1.0  0.83595  0.98122  0.09712  1.0000
  O   O12       1.0  0.88488  0.11631000000000001  0.31482  1.0000
  O   O13       1.0  0.43766  0.33143000000000006  0.9433  1.0000
  O   O14       1.0  0.4913399999999999  0.40615  0.02017  1.0000
  O   O15       1.0  0.9815699999999998  0.16952  0.16458  1.0000
  O   O16       1.0  0.02756  0.12536  0.19427  1.0000
  O   O17       1.0  0.9198899999999998  0.08447  0.15387  1.0000
  O   O18       1.0  0.49226  0.51689  0.94607  1.0000
  O   O19       1.0  0.83379  0.01463  0.02403  1.0000
  O   O20       1.0  0.87384  0.08847000000000001  0.04768  1.0000
  O   O21       1.0  0.26029  0.16508  0.28483  1.0000
  O   O22       1.0  0.31493  0.12454999999999998  0.27564  1.0000
  O   O23       1.0  0.42384  0.44185  0.80117  1.0000
  O   O24       1.0  0.4849  0.51092  0.84437  1.0000
  O   O25       1.0  0.16045  0.10673  0.08752  1.0000
  O   O26       1.0  0.18745  0.15804  0.17765  1.0000
  O   O27       1.0  0.26229  0.95956  0.14297  1.0000
  O   O28       1.0  0.3180599999999999  0.028349999999999997  0.1768  1.0000
  O   O29       1.0  0.39562  0.5348  0.87728  1.0000
  O   O30       1.0  0.37873  0.46078  0.86743  1.0000
  O   O31       1.0  0.26313  0.11720999999999998  0.09959  1.0000
  O   O32       1.0  0.43227999999999994  0.19789  0.31759  1.0000
  O   O33       1.0  0.5050999999999998  0.61206  0.94388  1.0000
  O   O34       1.0  0.52938  0.61422  0.02078  1.0000
  O   O35       1.0  0.18359  0.99504  0.16504  1.0000
  O   O36       1.0  0.16707  0.06888  0.1945  1.0000
  O   O37       1.0  0.23517  0.06933  0.15498  1.0000
  O   O38       1.0  0.45271  0.42938  0.94578  1.0000
  O   O39       1.0  0.19258  0.009779999999999999  0.025659999999999995  1.0000
  O   O40       1.0  0.17355  0.95974  0.04801  1.0000
  O   O41       1.0  0.91533  0.2732699999999999  0.7845099999999999  1.0000
  O   O42       1.0  0.8741  0.21022  0.77572  1.0000
  O   O43       1.0  0.1917  0.6273  0.30072  1.0000
  O   O44       1.0  0.26081  0.60985  0.34418999999999994  1.0000
  O   O45       1.0  0.85654  0.1768  0.58802  1.0000
  O   O46       1.0  0.9083800000000001  0.23944000000000001  0.67827  1.0000
  O   O47       1.0  0.70955  0.12969  0.64218  1.0000
  O   O48       1.0  0.77873  0.10847000000000005  0.67673  1.0000
  O   O49       1.0  0.28451  0.73261  0.37855  1.0000
  O   O50       1.0  0.20999  0.73879  0.36798  1.0000
  O   O51       1.0  0.8675199999999998  0.08589999999999999  0.60018  1.0000
  O   O52       1.0  0.94864  0.1355  0.81824  1.0000
  O   O53       1.0  0.36173  0.68963  0.44365  1.0000
  O   O54       1.0  0.36377000000000004  0.74197  0.5207  1.0000
  O   O55       1.0  0.74465  0.2311  0.66453  1.0000
  O   O56       1.0  0.81925  0.27699  0.69517  1.0000
  O   O57       1.0  0.81883  0.16873999999999995  0.65454  1.0000
  O   O58       1.0  0.17903999999999998  0.7424999999999999  0.4457999999999999  1.0000
  O   O59       1.0  0.7600199999999999  0.08158  0.52558  1.0000
  O   O60       1.0  0.71015  0.12414000000000007  0.54728  1.0000
  O   O61       1.0  0.8696999999999998  0.5090099999999999  0.7846299999999999  1.0000
  O   O62       1.0  0.8991299999999998  0.56438  0.77522  1.0000
  O   O63       1.0  0.10808000000000001  0.67282  0.30046  1.0000
  O   O64       1.0  0.08299  0.7342899999999999  0.34413999999999995  1.0000
  O   O65       1.0  0.73121  0.41246  0.58814  1.0000
  O   O66       1.0  0.7701699999999999  0.43840999999999997  0.6778399999999999  1.0000
  O   O67       1.0  0.93126  0.51283  0.64277  1.0000
  O   O68       1.0  0.89708  0.56859  0.67878  1.0000
  O   O69       1.0  0.09292999999999997  0.64577  0.37781  1.0000
  O   O70       1.0  0.15701  0.62911  0.36747  1.0000
  O   O71       1.0  0.73141  0.51361  0.59837  1.0000
  O   O72       1.0  0.86583  0.68173  0.81758  1.0000
  O   O73       1.0  0.08150000000000002  0.75484  0.44345  1.0000
  O   O74       1.0  0.1562499999999999  0.77837  0.52035  1.0000
  O   O75       1.0  0.9208599999999996  0.43197  0.66409  1.0000
  O   O76       1.0  0.8754199999999998  0.41673999999999994  0.6931799999999999  1.0000
  O   O77       1.0  0.83727  0.48477  0.65447  1.0000
  O   O78       1.0  0.26636  0.70347  0.44599  1.0000
  O   O79       1.0  0.7681999999999998  0.44426  0.52723  1.0000
  O   O80       1.0  0.83843  0.42111  0.54609  1.0000
  O   O81       1.0  0.48929  0.13092  0.21592  1.0000
  O   O82       1.0  0.43446  0.09868999999999999  0.22425999999999996  1.0000
  O   O83       1.0  0.3264  0.8915800000000002  0.69871  1.0000
  O   O84       1.0  0.26484  0.91679  0.65549  1.0000
  O   O85       1.0  0.58984  0.26914  0.41229  1.0000
  O   O86       1.0  0.56123  0.22989  0.32177  1.0000
  O   O87       1.0  0.4873  0.06675000000000003  0.35736  1.0000
  O   O88       1.0  0.43172  0.10206000000000001  0.32408  1.0000
  O   O89       1.0  0.3535599999999999  0.9062299999999999  0.62167  1.0000
  O   O90       1.0  0.36998  0.8419899999999999  0.63149  1.0000
  O   O91       1.0  0.4876  0.26698  0.40192  1.0000
  O   O92       1.0  0.3186599999999999  0.13159  0.18325  1.0000
  O   O93       1.0  0.2446  0.91818  0.55613  1.0000
  O   O94       1.0  0.22108999999999998  0.8436  0.47905999999999993  1.0000
  O   O95       1.0  0.56615  0.07925  0.33496  1.0000
  O   O96       1.0  0.58241  0.12406000000000002  0.30587  1.0000
  O   O97       1.0  0.51533  0.16483000000000003  0.34651000000000004  1.0000
  O   O98       1.0  0.296  0.73331  0.55373  1.0000
  O   O99       1.0  0.5605  0.2352  0.47687  1.0000
  O   O100      1.0  0.57661  0.16122  0.45287  1.0000
  O   O101      1.0  0.72501  0.08392  0.21412  1.0000
  O   O102      1.0  0.78868  0.12456999999999999  0.22316  1.0000
  O   O103      1.0  0.37217  0.80804  0.69939  1.0000
  O   O104      1.0  0.38901  0.73859  0.65537  1.0000
  O   O105      1.0  0.8242800000000001  0.14251  0.41105  1.0000
  O   O106      1.0  0.76007  0.09171000000000003  0.32132  1.0000
  O   O107      1.0  0.8702999999999997  0.28856  0.3568299999999999  1.0000
  O   O108      1.0  0.88961  0.21850000000000003  0.31964  1.0000
  O   O109      1.0  0.26629  0.71524  0.62109  1.0000
  O   O110      1.0  0.26092  0.79014  0.63279  1.0000
  O   O111      1.0  0.91473  0.13299999999999998  0.39969  1.0000
  O   O112      1.0  0.86454  0.0506  0.18092999999999998  1.0000
  O   O113      1.0  0.31045  0.63781  0.55589  1.0000
  O   O114      1.0  0.25825  0.63586  0.47903  1.0000
  O   O115      1.0  0.76828  0.25566  0.33514  1.0000
  O   O116      1.0  0.72273  0.18124  0.30509  1.0000
  O   O117      1.0  0.8299299999999996  0.18079999999999996  0.34386999999999995  1.0000
  O   O118      1.0  0.2566  0.82059  0.55328  1.0000
  O   O119      1.0  0.9180999999999999  0.24005  0.47313  1.0000
  O   O120      1.0  0.87544  0.29005  0.45221  1.0000
  O   O121      1.0  0.88009  0.97658  0.71517  1.0000
  O   O122      1.0  0.8480899999999999  0.03983999999999998  0.7239699999999999  1.0000
  O   O123      1.0  0.64103  0.62263  0.19958  1.0000
  O   O124      1.0  0.66681  0.64018  0.15627  1.0000
  O   O125      1.0  0.018970000000000032  0.07288000000000003  0.912  1.0000
  O   O126      1.0  0.98008  0.01111000000000004  0.82134  1.0000
  O   O127      1.0  0.81689  0.11981999999999998  0.85797  1.0000
  O   O128      1.0  0.85233  0.14190000000000003  0.82463  1.0000
  O   O129      1.0  0.65674  0.51785  0.12215  1.0000
  O   O130      1.0  0.59241  0.51083  0.13193  1.0000
  O   O131      1.0  0.018330000000000034  0.16449000000000003  0.90203  1.0000
  O   O132      1.0  0.88208  0.11448  0.68405  1.0000
  O   O133      1.0  0.66804  0.56113  0.05659  1.0000
  O   O134      1.0  0.593  0.50808  0.9798  1.0000
  O   O135      1.0  0.83089  0.018670000000000006  0.83629  1.0000
  O   O136      1.0  0.8743999999999997  0.9729799999999998  0.8047399999999999  1.0000
  O   O137      1.0  0.91444  0.08123999999999999  0.84652  1.0000
  O   O138      1.0  0.48314  0.50691  0.05394  1.0000
  O   O139      1.0  0.98483  0.16694  0.97568  1.0000
  O   O140      1.0  0.91218  0.12583999999999998  0.95351  1.0000
  O   O141      1.0  0.83522  0.73929  0.71495  1.0000
  O   O142      1.0  0.8737400000000001  0.68373  0.72441  1.0000
  O   O143      1.0  0.55781  0.57574  0.19860999999999998  1.0000
  O   O144      1.0  0.48875  0.51501  0.15604  1.0000
  O   O145      1.0  0.8932699999999997  0.8372299999999999  0.9115899999999999  1.0000
  O   O146      1.0  0.84204  0.81003  0.82152  1.0000
  O   O147      1.0  0.03805000000000004  0.73739  0.85708  1.0000
  O   O148      1.0  0.9686199999999999  0.68163  0.82273  1.0000
  O   O149      1.0  0.46512  0.60318  0.12223  1.0000
  O   O150      1.0  0.53896  0.6197400000000001  0.13129  1.0000
  O   O151      1.0  0.88296  0.73657  0.90263  1.0000
  O   O152      1.0  0.7995999999999999  0.5684599999999999  0.6834599999999998  1.0000
  O   O153      1.0  0.38773  0.49389  0.056339999999999994  1.0000
  O   O154      1.0  0.3858999999999999  0.47121  0.97989  1.0000
  O   O155      1.0  0.007480000000000034  0.81885  0.83704  1.0000
  O   O156      1.0  0.93157  0.8311399999999999  0.8050799999999999  1.0000
  O   O157      1.0  0.9331299999999998  0.76467  0.84609  1.0000
  O   O158      1.0  0.5704  0.54658  0.05427  1.0000
  O   O159      1.0  0.99062  0.80565  0.97336  1.0000
  O   O160      1.0  0.041800000000000045  0.82904  0.95442  1.0000
