data_image0
_chemical_formula_structural       Zn24H192C288I48N96
_chemical_formula_sum              "Zn24 H192 C288 I48 N96"
_cell_length_a       13.802
_cell_length_b       27.90027
_cell_length_c       44.89255
_cell_angle_alpha    90.0
_cell_angle_beta     90.0
_cell_angle_gamma    90.0

_symmetry_space_group_name_H-M    'P 1'
_symmetry_Int_Tables_number       1

loop_
  _symmetry_equiv_pos_as_xyz
  'x,y,z'

loop_
  _atom_site_type_symbol
  _atom_site_label
  _atom_site_symmetry_multiplicity
  _atom_site_fract_x
  _atom_site_fract_y
  _atom_site_fract_z
  _atom_site_occupancy
  Zn  Zn1       1.0  0.12263  0.4747000000000001  0.41436  1.0000
  Zn  Zn2       1.0  0.35429  0.45590000000000014  0.58709  1.0000
  Zn  Zn3       1.0  0.81605  0.74  0.17952  1.0000
  Zn  Zn4       1.0  0.87737  0.025300000000000007  0.91436  1.0000
  Zn  Zn5       1.0  0.64571  0.04410000000000001  0.08709  1.0000
  Zn  Zn6       1.0  0.18395  0.7600000000000002  0.6795200000000001  1.0000
  Zn  Zn7       1.0  0.62262  0.5253  0.08564  1.0000
  Zn  Zn8       1.0  0.85429  0.5441000000000003  0.9129100000000001  1.0000
  Zn  Zn9       1.0  0.31605  0.2600000000000001  0.32049000000000005  1.0000
  Zn  Zn10      1.0  0.37737  0.9747  0.58564  1.0000
  Zn  Zn11      1.0  0.14571  0.9559000000000002  0.41291000000000005  1.0000
  Zn  Zn12      1.0  0.68395  0.24000000000000005  0.82049  1.0000
  Zn  Zn13      1.0  0.87737  0.5253  0.58564  1.0000
  Zn  Zn14      1.0  0.64571  0.5441000000000003  0.41291000000000005  1.0000
  Zn  Zn15      1.0  0.18395  0.2600000000000001  0.82049  1.0000
  Zn  Zn16      1.0  0.12263  0.9747  0.08564  1.0000
  Zn  Zn17      1.0  0.35429  0.9559000000000002  0.9129100000000001  1.0000
  Zn  Zn18      1.0  0.81605  0.24000000000000005  0.32049000000000005  1.0000
  Zn  Zn19      1.0  0.37737  0.4747000000000001  0.91436  1.0000
  Zn  Zn20      1.0  0.14571  0.45590000000000014  0.08709  1.0000
  Zn  Zn21      1.0  0.68395  0.74  0.6795200000000001  1.0000
  Zn  Zn22      1.0  0.62262  0.025300000000000007  0.41436  1.0000
  Zn  Zn23      1.0  0.85429  0.04410000000000001  0.58709  1.0000
  Zn  Zn24      1.0  0.31605  0.7600000000000002  0.17952  1.0000
  H   H1        1.0  0.9883  0.4695000000000001  0.46683  1.0000
  H   H2        1.0  0.81749  0.44345  0.47713  1.0000
  H   H3        1.0  0.9759  0.4186200000000001  0.38015  1.0000
  H   H4        1.0  0.80339  0.3912  0.3866400000000001  1.0000
  H   H5        1.0  0.53069  0.28117  0.33149  1.0000
  H   H6        1.0  0.62884  0.32357  0.36998  1.0000
  H   H7        1.0  0.27237  0.31604  0.37398  1.0000
  H   H8        1.0  0.36095  0.35758000000000006  0.41537  1.0000
  H   H9        1.0  0.28589  0.42623000000000005  0.52602  1.0000
  H   H10       1.0  0.36304  0.4021000000000001  0.47736000000000006  1.0000
  H   H11       1.0  0.54836  0.47429  0.55967  1.0000
  H   H12       1.0  0.6360299999999999  0.45191000000000003  0.51284  1.0000
  H   H13       1.0  0.05262  0.9228300000000003  0.35633  1.0000
  H   H14       1.0  0.02132  0.84522  0.32874  1.0000
  H   H15       1.0  0.13288  0.8498400000000003  0.43260000000000004  1.0000
  H   H16       1.0  0.09925  0.7696900000000002  0.40891000000000005  1.0000
  H   H17       1.0  0.11572999999999999  0.57958  0.43247  1.0000
  H   H18       1.0  0.08356  0.6597400000000002  0.40824  1.0000
  H   H19       1.0  0.05637  0.50702  0.35428  1.0000
  H   H20       1.0  0.01804  0.58385  0.32714  1.0000
  H   H21       1.0  0.8603800000000001  0.6566400000000002  0.22078  1.0000
  H   H22       1.0  0.92722  0.64477  0.2725  1.0000
  H   H23       1.0  0.93757  0.7999800000000002  0.22032000000000002  1.0000
  H   H24       1.0  0.00392  0.7947500000000002  0.27247  1.0000
  H   H25       1.0  0.0117  0.0305  0.96683  1.0000
  H   H26       1.0  0.18251  0.05655000000000002  0.97713  1.0000
  H   H27       1.0  0.0241  0.08138000000000001  0.88015  1.0000
  H   H28       1.0  0.19661  0.10880000000000002  0.88664  1.0000
  H   H29       1.0  0.4693  0.21883000000000005  0.83149  1.0000
  H   H30       1.0  0.37116  0.17643  0.86999  1.0000
  H   H31       1.0  0.72762  0.18396  0.87398  1.0000
  H   H32       1.0  0.63905  0.14242000000000005  0.91537  1.0000
  H   H33       1.0  0.71411  0.07377000000000003  0.02602000000000001  1.0000
  H   H34       1.0  0.63696  0.0979  0.97736  1.0000
  H   H35       1.0  0.45164  0.025710000000000007  0.05967000000000001  1.0000
  H   H36       1.0  0.36397  0.04808  0.01284  1.0000
  H   H37       1.0  0.94738  0.5771700000000002  0.8563300000000003  1.0000
  H   H38       1.0  0.97868  0.6547800000000003  0.8287500000000002  1.0000
  H   H39       1.0  0.8671199999999999  0.6501500000000002  0.9326100000000003  1.0000
  H   H40       1.0  0.90075  0.73031  0.90892  1.0000
  H   H41       1.0  0.88426  0.9204100000000001  0.9324700000000001  1.0000
  H   H42       1.0  0.91644  0.84026  0.90824  1.0000
  H   H43       1.0  0.94363  0.9929800000000002  0.8542800000000002  1.0000
  H   H44       1.0  0.98196  0.91614  0.8271400000000001  1.0000
  H   H45       1.0  0.13962  0.84336  0.72078  1.0000
  H   H46       1.0  0.07278  0.8552300000000003  0.7725  1.0000
  H   H47       1.0  0.06242999999999999  0.7000100000000002  0.72032  1.0000
  H   H48       1.0  0.99608  0.7052500000000003  0.7724800000000002  1.0000
  H   H49       1.0  0.4883  0.5304900000000001  0.03318  1.0000
  H   H50       1.0  0.31748999999999994  0.5565500000000001  0.02288  1.0000
  H   H51       1.0  0.4759  0.5813700000000003  0.11985000000000001  1.0000
  H   H52       1.0  0.30339  0.6088  0.11336  1.0000
  H   H53       1.0  0.03069  0.7188300000000002  0.16851  1.0000
  H   H54       1.0  0.12884  0.6764300000000002  0.13002000000000002  1.0000
  H   H55       1.0  0.77237  0.6839600000000002  0.12602  1.0000
  H   H56       1.0  0.86095  0.6424200000000002  0.08463  1.0000
  H   H57       1.0  0.78589  0.5737700000000002  0.97399  1.0000
  H   H58       1.0  0.86304  0.5979  0.02265  1.0000
  H   H59       1.0  0.04836  0.5257100000000001  0.94034  1.0000
  H   H60       1.0  0.13603  0.5480800000000002  0.98717  1.0000
  H   H61       1.0  0.55262  0.07717  0.14367  1.0000
  H   H62       1.0  0.52132  0.15478  0.17126000000000002  1.0000
  H   H63       1.0  0.63288  0.15016  0.0674  1.0000
  H   H64       1.0  0.59925  0.23031000000000001  0.09109  1.0000
  H   H65       1.0  0.61573  0.4204200000000001  0.06753  1.0000
  H   H66       1.0  0.58356  0.34026000000000006  0.09176  1.0000
  H   H67       1.0  0.55637  0.49298000000000003  0.14572  1.0000
  H   H68       1.0  0.51804  0.41615  0.17286  1.0000
  H   H69       1.0  0.36038  0.3433600000000001  0.27923  1.0000
  H   H70       1.0  0.42722  0.35523  0.2275  1.0000
  H   H71       1.0  0.43757  0.20001000000000005  0.27968  1.0000
  H   H72       1.0  0.50392  0.20525000000000004  0.22753  1.0000
  H   H73       1.0  0.5117  0.9695  0.53318  1.0000
  H   H74       1.0  0.68251  0.9434500000000002  0.52288  1.0000
  H   H75       1.0  0.5241  0.9186200000000002  0.6198500000000001  1.0000
  H   H76       1.0  0.69661  0.8912000000000001  0.61337  1.0000
  H   H77       1.0  0.9693  0.78117  0.66851  1.0000
  H   H78       1.0  0.8711599999999999  0.82357  0.63002  1.0000
  H   H79       1.0  0.22761999999999996  0.81604  0.62602  1.0000
  H   H80       1.0  0.13905  0.85758  0.58464  1.0000
  H   H81       1.0  0.21411  0.92623  0.47399  1.0000
  H   H82       1.0  0.13696  0.9020900000000001  0.52265  1.0000
  H   H83       1.0  0.95164  0.9742900000000002  0.44033  1.0000
  H   H84       1.0  0.86397  0.9519100000000003  0.48716  1.0000
  H   H85       1.0  0.44737999999999994  0.42283  0.64367  1.0000
  H   H86       1.0  0.47868  0.34522  0.67126  1.0000
  H   H87       1.0  0.36712  0.3498400000000001  0.5674  1.0000
  H   H88       1.0  0.40075  0.26969000000000004  0.59109  1.0000
  H   H89       1.0  0.38426  0.07958  0.56754  1.0000
  H   H90       1.0  0.41644  0.15974000000000005  0.59176  1.0000
  H   H91       1.0  0.44363  0.007020000000000001  0.64573  1.0000
  H   H92       1.0  0.48196  0.08385000000000002  0.67286  1.0000
  H   H93       1.0  0.6396199999999999  0.15664000000000003  0.77923  1.0000
  H   H94       1.0  0.57278  0.14477  0.7275000000000001  1.0000
  H   H95       1.0  0.56242  0.2999900000000001  0.77969  1.0000
  H   H96       1.0  0.49608  0.2947500000000001  0.72753  1.0000
  H   H97       1.0  0.0117  0.5304900000000001  0.53318  1.0000
  H   H98       1.0  0.18251  0.5565500000000001  0.52288  1.0000
  H   H99       1.0  0.0241  0.5813700000000003  0.6198500000000001  1.0000
  H   H100      1.0  0.19661  0.6088  0.61337  1.0000
  H   H101      1.0  0.4693  0.7188300000000002  0.66851  1.0000
  H   H102      1.0  0.37116  0.6764300000000002  0.63002  1.0000
  H   H103      1.0  0.72762  0.6839600000000002  0.62602  1.0000
  H   H104      1.0  0.63905  0.6424200000000002  0.58464  1.0000
  H   H105      1.0  0.71411  0.5737700000000002  0.47399  1.0000
  H   H106      1.0  0.63696  0.5979  0.52265  1.0000
  H   H107      1.0  0.45164  0.5257100000000001  0.44033  1.0000
  H   H108      1.0  0.36397  0.5480800000000002  0.48716  1.0000
  H   H109      1.0  0.94738  0.07717  0.64367  1.0000
  H   H110      1.0  0.97868  0.15478  0.67126  1.0000
  H   H111      1.0  0.8671199999999999  0.15016  0.5674  1.0000
  H   H112      1.0  0.90075  0.23031000000000001  0.59109  1.0000
  H   H113      1.0  0.88426  0.4204200000000001  0.56754  1.0000
  H   H114      1.0  0.91644  0.34026000000000006  0.59176  1.0000
  H   H115      1.0  0.94363  0.49298000000000003  0.64573  1.0000
  H   H116      1.0  0.98196  0.41615  0.67286  1.0000
  H   H117      1.0  0.13962  0.3433600000000001  0.77923  1.0000
  H   H118      1.0  0.07278  0.35523  0.7275000000000001  1.0000
  H   H119      1.0  0.06242999999999999  0.20001000000000005  0.77969  1.0000
  H   H120      1.0  0.99608  0.20525000000000004  0.72753  1.0000
  H   H121      1.0  0.9883  0.9695  0.03318  1.0000
  H   H122      1.0  0.81749  0.9434500000000002  0.02288  1.0000
  H   H123      1.0  0.9759  0.9186200000000002  0.11985000000000001  1.0000
  H   H124      1.0  0.80339  0.8912000000000001  0.11336  1.0000
  H   H125      1.0  0.53069  0.78117  0.16851  1.0000
  H   H126      1.0  0.62884  0.82357  0.13002000000000002  1.0000
  H   H127      1.0  0.27237  0.81604  0.12602  1.0000
  H   H128      1.0  0.36095  0.85758  0.08463  1.0000
  H   H129      1.0  0.28589  0.92623  0.97399  1.0000
  H   H130      1.0  0.36304  0.9020900000000001  0.02265  1.0000
  H   H131      1.0  0.54836  0.9742900000000002  0.94034  1.0000
  H   H132      1.0  0.6360299999999999  0.9519100000000003  0.98717  1.0000
  H   H133      1.0  0.05262  0.42283  0.14367  1.0000
  H   H134      1.0  0.02132  0.34522  0.17126000000000002  1.0000
  H   H135      1.0  0.13288  0.3498400000000001  0.0674  1.0000
  H   H136      1.0  0.09925  0.26969000000000004  0.09109  1.0000
  H   H137      1.0  0.11572999999999999  0.07958  0.06753  1.0000
  H   H138      1.0  0.08356  0.15974000000000005  0.09176  1.0000
  H   H139      1.0  0.05637  0.007020000000000001  0.14572  1.0000
  H   H140      1.0  0.01804  0.08385000000000002  0.17286  1.0000
  H   H141      1.0  0.8603800000000001  0.15664000000000003  0.27923  1.0000
  H   H142      1.0  0.92722  0.14477  0.2275  1.0000
  H   H143      1.0  0.93757  0.2999900000000001  0.27968  1.0000
  H   H144      1.0  0.00392  0.2947500000000001  0.22753  1.0000
  H   H145      1.0  0.5117  0.4695000000000001  0.96683  1.0000
  H   H146      1.0  0.68251  0.44345  0.97713  1.0000
  H   H147      1.0  0.5241  0.4186200000000001  0.88015  1.0000
  H   H148      1.0  0.69661  0.3912  0.88664  1.0000
  H   H149      1.0  0.9693  0.28117  0.83149  1.0000
  H   H150      1.0  0.8711599999999999  0.32357  0.86999  1.0000
  H   H151      1.0  0.22761999999999996  0.31604  0.87398  1.0000
  H   H152      1.0  0.13905  0.35758000000000006  0.91537  1.0000
  H   H153      1.0  0.21411  0.42623000000000005  0.02602000000000001  1.0000
  H   H154      1.0  0.13696  0.4021000000000001  0.97736  1.0000
  H   H155      1.0  0.95164  0.47429  0.05967000000000001  1.0000
  H   H156      1.0  0.86397  0.45191000000000003  0.01284  1.0000
  H   H157      1.0  0.44737999999999994  0.9228300000000003  0.8563300000000003  1.0000
  H   H158      1.0  0.47868  0.84522  0.8287500000000002  1.0000
  H   H159      1.0  0.36712  0.8498400000000003  0.9326100000000003  1.0000
  H   H160      1.0  0.40075  0.7696900000000002  0.90892  1.0000
  H   H161      1.0  0.38426  0.57958  0.9324700000000001  1.0000
  H   H162      1.0  0.41644  0.6597400000000002  0.90824  1.0000
  H   H163      1.0  0.44363  0.50702  0.8542800000000002  1.0000
  H   H164      1.0  0.48196  0.58385  0.8271400000000001  1.0000
  H   H165      1.0  0.6396199999999999  0.6566400000000002  0.72078  1.0000
  H   H166      1.0  0.57278  0.64477  0.7725  1.0000
  H   H167      1.0  0.56242  0.7999800000000002  0.72032  1.0000
  H   H168      1.0  0.49608  0.7947500000000002  0.7724800000000002  1.0000
  H   H169      1.0  0.4883  0.0305  0.46683  1.0000
  H   H170      1.0  0.31748999999999994  0.05655000000000002  0.47713  1.0000
  H   H171      1.0  0.4759  0.08138000000000001  0.38015  1.0000
  H   H172      1.0  0.30339  0.10880000000000002  0.3866400000000001  1.0000
  H   H173      1.0  0.03069  0.21883000000000005  0.33149  1.0000
  H   H174      1.0  0.12884  0.17643  0.36998  1.0000
  H   H175      1.0  0.77237  0.18396  0.37398  1.0000
  H   H176      1.0  0.86095  0.14242000000000005  0.41537  1.0000
  H   H177      1.0  0.78589  0.07377000000000003  0.52602  1.0000
  H   H178      1.0  0.86304  0.0979  0.47736000000000006  1.0000
  H   H179      1.0  0.04836  0.025710000000000007  0.55967  1.0000
  H   H180      1.0  0.13603  0.04808  0.51284  1.0000
  H   H181      1.0  0.55262  0.5771700000000002  0.35633  1.0000
  H   H182      1.0  0.52132  0.6547800000000003  0.32874  1.0000
  H   H183      1.0  0.63288  0.6501500000000002  0.43260000000000004  1.0000
  H   H184      1.0  0.59925  0.73031  0.40891000000000005  1.0000
  H   H185      1.0  0.61573  0.9204100000000001  0.43247  1.0000
  H   H186      1.0  0.58356  0.84026  0.40824  1.0000
  H   H187      1.0  0.55637  0.9929800000000002  0.35428  1.0000
  H   H188      1.0  0.51804  0.91614  0.32714  1.0000
  H   H189      1.0  0.36038  0.84336  0.22078  1.0000
  H   H190      1.0  0.42722  0.8552300000000003  0.2725  1.0000
  H   H191      1.0  0.43757  0.7000100000000002  0.22032000000000002  1.0000
  H   H192      1.0  0.50392  0.7052500000000003  0.27247  1.0000
  C   C1        1.0  0.9443999999999999  0.45195000000000013  0.44986  1.0000
  C   C2        1.0  0.85005  0.43722  0.45543000000000006  1.0000
  C   C3        1.0  0.9370699999999998  0.4237900000000001  0.40106  1.0000
  C   C4        1.0  0.84213  0.4083200000000001  0.40486  1.0000
  C   C5        1.0  0.7973  0.4153400000000001  0.43252000000000007  1.0000
  C   C6        1.0  0.69477  0.4019000000000001  0.43708  1.0000
  C   C7        1.0  0.49576  0.29885  0.35029  1.0000
  C   C8        1.0  0.55028  0.3218  0.37209000000000003  1.0000
  C   C9        1.0  0.35121  0.31751000000000007  0.37455000000000005  1.0000
  C   C10       1.0  0.40063  0.3405300000000001  0.39738  1.0000
  C   C11       1.0  0.50203  0.34272  0.39635  1.0000
  C   C12       1.0  0.55597  0.36805  0.42011000000000004  1.0000
  C   C13       1.0  0.3633  0.43064  0.52199  1.0000
  C   C14       1.0  0.40634  0.41725  0.49523000000000006  1.0000
  C   C15       1.0  0.51063  0.4576600000000001  0.54098  1.0000
  C   C16       1.0  0.55865  0.4452600000000001  0.51493  1.0000
  C   C17       1.0  0.50636  0.4237700000000001  0.4917100000000001  1.0000
  C   C18       1.0  0.55658  0.4080000000000001  0.46419  1.0000
  C   C19       1.0  0.063  0.8878700000000002  0.3667500000000001  1.0000
  C   C20       1.0  0.0452  0.8451500000000002  0.35179  1.0000
  C   C21       1.0  0.10691  0.8470800000000003  0.40976  1.0000
  C   C22       1.0  0.08911999999999999  0.80282  0.39657  1.0000
  C   C23       1.0  0.058809999999999994  0.8015700000000002  0.3667500000000001  1.0000
  C   C24       1.0  0.04175999999999999  0.7556800000000002  0.35091  1.0000
  C   C25       1.0  0.09413999999999999  0.58259  0.40919000000000005  1.0000
  C   C26       1.0  0.07655999999999999  0.62661  0.39572  1.0000
  C   C27       1.0  0.05971  0.54172  0.3653700000000001  1.0000
  C   C28       1.0  0.03988  0.58425  0.35039  1.0000
  C   C29       1.0  0.04999  0.62785  0.3655900000000001  1.0000
  C   C30       1.0  0.03547  0.6742700000000003  0.35017  1.0000
  C   C31       1.0  0.8943599999999999  0.68587  0.23299000000000003  1.0000
  C   C32       1.0  0.9303799999999999  0.6796000000000002  0.26168  1.0000
  C   C33       1.0  0.93703  0.76652  0.23283000000000004  1.0000
  C   C34       1.0  0.9731899999999999  0.7634000000000002  0.26167  1.0000
  C   C35       1.0  0.96836  0.7195000000000003  0.27676000000000006  1.0000
  C   C36       1.0  0.99982  0.7166700000000003  0.30828  1.0000
  C   C37       1.0  0.0556  0.04804000000000001  0.94986  1.0000
  C   C38       1.0  0.14993999999999996  0.06278  0.95543  1.0000
  C   C39       1.0  0.06293  0.07621000000000003  0.9010600000000001  1.0000
  C   C40       1.0  0.15787  0.09168  0.9048600000000001  1.0000
  C   C41       1.0  0.2027  0.08466  0.9325200000000001  1.0000
  C   C42       1.0  0.30523  0.0981  0.93709  1.0000
  C   C43       1.0  0.50424  0.20115000000000005  0.8503  1.0000
  C   C44       1.0  0.44972  0.17820000000000005  0.8720900000000001  1.0000
  C   C45       1.0  0.64878  0.18249000000000007  0.87455  1.0000
  C   C46       1.0  0.59937  0.15946  0.8973800000000002  1.0000
  C   C47       1.0  0.49796  0.15728  0.89635  1.0000
  C   C48       1.0  0.44402  0.13195  0.9201100000000001  1.0000
  C   C49       1.0  0.6367  0.06936  0.02199  1.0000
  C   C50       1.0  0.59366  0.08274  0.99524  1.0000
  C   C51       1.0  0.48937  0.042340000000000017  0.04097  1.0000
  C   C52       1.0  0.44135  0.054740000000000004  0.014920000000000001  1.0000
  C   C53       1.0  0.49363  0.07623000000000002  0.9917100000000002  1.0000
  C   C54       1.0  0.44341  0.09199000000000003  0.96419  1.0000
  C   C55       1.0  0.937  0.61213  0.8667600000000001  1.0000
  C   C56       1.0  0.9548  0.6548500000000003  0.8518000000000001  1.0000
  C   C57       1.0  0.89309  0.6529100000000002  0.90977  1.0000
  C   C58       1.0  0.91088  0.6971800000000002  0.8965700000000001  1.0000
  C   C59       1.0  0.94118  0.69843  0.86675  1.0000
  C   C60       1.0  0.95824  0.7443200000000002  0.85091  1.0000
  C   C61       1.0  0.90586  0.9174100000000001  0.9091900000000002  1.0000
  C   C62       1.0  0.92343  0.8733900000000002  0.89572  1.0000
  C   C63       1.0  0.94029  0.9582700000000002  0.86537  1.0000
  C   C64       1.0  0.9601199999999999  0.9157500000000002  0.8503900000000001  1.0000
  C   C65       1.0  0.95001  0.8721500000000002  0.86559  1.0000
  C   C66       1.0  0.96453  0.8257200000000002  0.85018  1.0000
  C   C67       1.0  0.10563999999999998  0.8141200000000001  0.7329900000000003  1.0000
  C   C68       1.0  0.06962  0.8203900000000002  0.7616800000000001  1.0000
  C   C69       1.0  0.06297  0.7334800000000001  0.73283  1.0000
  C   C70       1.0  0.0268  0.7366  0.7616700000000001  1.0000
  C   C71       1.0  0.03163  0.7805  0.7767600000000001  1.0000
  C   C72       1.0  0.00018  0.7833200000000002  0.80828  1.0000
  C   C73       1.0  0.4444  0.5480400000000001  0.05014  1.0000
  C   C74       1.0  0.35006  0.5627800000000001  0.04458  1.0000
  C   C75       1.0  0.43707  0.5762100000000002  0.09894  1.0000
  C   C76       1.0  0.34213  0.59168  0.09514000000000003  1.0000
  C   C77       1.0  0.2973  0.5846600000000002  0.06748  1.0000
  C   C78       1.0  0.19477  0.5981  0.06292  1.0000
  C   C79       1.0  0.99576  0.7011500000000003  0.14971  1.0000
  C   C80       1.0  0.05028  0.6782000000000002  0.12791  1.0000
  C   C81       1.0  0.85121  0.6824900000000003  0.12545  1.0000
  C   C82       1.0  0.90062  0.65946  0.10263  1.0000
  C   C83       1.0  0.00204  0.6572700000000001  0.10365  1.0000
  C   C84       1.0  0.05598  0.63195  0.07989000000000002  1.0000
  C   C85       1.0  0.8633  0.5693600000000001  0.97801  1.0000
  C   C86       1.0  0.90634  0.5827400000000003  0.00477  1.0000
  C   C87       1.0  0.01063  0.54234  0.95903  1.0000
  C   C88       1.0  0.05865  0.5547400000000002  0.98508  1.0000
  C   C89       1.0  0.00637  0.5762300000000001  0.0083  1.0000
  C   C90       1.0  0.05658  0.5919900000000002  0.03582  1.0000
  C   C91       1.0  0.563  0.11213000000000002  0.13325  1.0000
  C   C92       1.0  0.5452  0.15485000000000004  0.14821000000000004  1.0000
  C   C93       1.0  0.60691  0.15291000000000005  0.09024  1.0000
  C   C94       1.0  0.58912  0.19718000000000005  0.10344  1.0000
  C   C95       1.0  0.55881  0.19843000000000005  0.13326  1.0000
  C   C96       1.0  0.54176  0.24432000000000006  0.14909000000000003  1.0000
  C   C97       1.0  0.59414  0.4174100000000001  0.09081  1.0000
  C   C98       1.0  0.57656  0.3733900000000001  0.10428  1.0000
  C   C99       1.0  0.55971  0.45827  0.13463  1.0000
  C   C100      1.0  0.53988  0.41575  0.14962000000000003  1.0000
  C   C101      1.0  0.54999  0.37215  0.13441  1.0000
  C   C102      1.0  0.53547  0.32572000000000007  0.14983  1.0000
  C   C103      1.0  0.39436  0.3141300000000001  0.26701  1.0000
  C   C104      1.0  0.43038  0.3204  0.23832000000000003  1.0000
  C   C105      1.0  0.4370299999999999  0.23348000000000005  0.26717  1.0000
  C   C106      1.0  0.4732  0.23660000000000006  0.23834000000000002  1.0000
  C   C107      1.0  0.46835999999999994  0.2805000000000001  0.22324  1.0000
  C   C108      1.0  0.49982  0.28333  0.19172000000000003  1.0000
  C   C109      1.0  0.5556  0.95195  0.55015  1.0000
  C   C110      1.0  0.64994  0.9372200000000003  0.54458  1.0000
  C   C111      1.0  0.56293  0.9237900000000002  0.59894  1.0000
  C   C112      1.0  0.65787  0.9083200000000001  0.59514  1.0000
  C   C113      1.0  0.7027  0.91534  0.56748  1.0000
  C   C114      1.0  0.80523  0.9019000000000003  0.5629200000000001  1.0000
  C   C115      1.0  0.00424  0.7988500000000002  0.64971  1.0000
  C   C116      1.0  0.94972  0.8218000000000002  0.62792  1.0000
  C   C117      1.0  0.14879  0.8175000000000002  0.62545  1.0000
  C   C118      1.0  0.09937  0.84053  0.60263  1.0000
  C   C119      1.0  0.99796  0.8427200000000002  0.6036600000000001  1.0000
  C   C120      1.0  0.94402  0.8680500000000001  0.57989  1.0000
  C   C121      1.0  0.1367  0.9306400000000002  0.47801  1.0000
  C   C122      1.0  0.09365999999999998  0.9172500000000002  0.50477  1.0000
  C   C123      1.0  0.98937  0.9576600000000002  0.45903000000000005  1.0000
  C   C124      1.0  0.94134  0.9452500000000003  0.48508  1.0000
  C   C125      1.0  0.99363  0.92377  0.5083  1.0000
  C   C126      1.0  0.94341  0.9080000000000003  0.53582  1.0000
  C   C127      1.0  0.437  0.38787  0.63325  1.0000
  C   C128      1.0  0.4548  0.34515  0.64821  1.0000
  C   C129      1.0  0.39309  0.3470900000000001  0.59024  1.0000
  C   C130      1.0  0.41088  0.30282000000000003  0.6034400000000001  1.0000
  C   C131      1.0  0.44118  0.30157  0.6332600000000002  1.0000
  C   C132      1.0  0.45824  0.25568  0.64909  1.0000
  C   C133      1.0  0.40586  0.08259  0.5908100000000001  1.0000
  C   C134      1.0  0.42343  0.12661000000000003  0.60428  1.0000
  C   C135      1.0  0.44029  0.04173000000000002  0.63463  1.0000
  C   C136      1.0  0.46012  0.08425000000000003  0.6496200000000001  1.0000
  C   C137      1.0  0.45001  0.12785000000000002  0.63441  1.0000
  C   C138      1.0  0.46453  0.17427000000000006  0.64983  1.0000
  C   C139      1.0  0.60564  0.18587000000000006  0.76701  1.0000
  C   C140      1.0  0.56961  0.17960000000000007  0.73832  1.0000
  C   C141      1.0  0.56297  0.26652  0.76717  1.0000
  C   C142      1.0  0.5268  0.2634  0.7383400000000001  1.0000
  C   C143      1.0  0.53163  0.2195  0.72324  1.0000
  C   C144      1.0  0.50018  0.21667  0.69172  1.0000
  C   C145      1.0  0.0556  0.5480400000000001  0.55015  1.0000
  C   C146      1.0  0.14993999999999996  0.5627800000000001  0.54458  1.0000
  C   C147      1.0  0.06293  0.5762100000000002  0.59894  1.0000
  C   C148      1.0  0.15787  0.59168  0.59514  1.0000
  C   C149      1.0  0.2027  0.5846600000000002  0.56748  1.0000
  C   C150      1.0  0.30523  0.5981  0.5629200000000001  1.0000
  C   C151      1.0  0.50424  0.7011500000000003  0.64971  1.0000
  C   C152      1.0  0.44972  0.6782000000000002  0.62792  1.0000
  C   C153      1.0  0.64878  0.6824900000000003  0.62545  1.0000
  C   C154      1.0  0.59937  0.65946  0.60263  1.0000
  C   C155      1.0  0.49796  0.6572700000000001  0.6036600000000001  1.0000
  C   C156      1.0  0.44402  0.63195  0.57989  1.0000
  C   C157      1.0  0.6367  0.5693600000000001  0.47801  1.0000
  C   C158      1.0  0.59366  0.5827400000000003  0.50477  1.0000
  C   C159      1.0  0.48937  0.54234  0.45903000000000005  1.0000
  C   C160      1.0  0.44135  0.5547400000000002  0.48508  1.0000
  C   C161      1.0  0.49363  0.5762300000000001  0.5083  1.0000
  C   C162      1.0  0.44341  0.5919900000000002  0.53582  1.0000
  C   C163      1.0  0.937  0.11213000000000002  0.63325  1.0000
  C   C164      1.0  0.9548  0.15485000000000004  0.64821  1.0000
  C   C165      1.0  0.89309  0.15291000000000005  0.59024  1.0000
  C   C166      1.0  0.91088  0.19718000000000005  0.6034400000000001  1.0000
  C   C167      1.0  0.94118  0.19843000000000005  0.6332600000000002  1.0000
  C   C168      1.0  0.95824  0.24432000000000006  0.64909  1.0000
  C   C169      1.0  0.90586  0.4174100000000001  0.5908100000000001  1.0000
  C   C170      1.0  0.92343  0.3733900000000001  0.60428  1.0000
  C   C171      1.0  0.94029  0.45827  0.63463  1.0000
  C   C172      1.0  0.9601199999999999  0.41575  0.6496200000000001  1.0000
  C   C173      1.0  0.95001  0.37215  0.63441  1.0000
  C   C174      1.0  0.96453  0.32572000000000007  0.64983  1.0000
  C   C175      1.0  0.10563999999999998  0.3141300000000001  0.76701  1.0000
  C   C176      1.0  0.06962  0.3204  0.73832  1.0000
  C   C177      1.0  0.06297  0.23348000000000005  0.76717  1.0000
  C   C178      1.0  0.0268  0.23660000000000006  0.7383400000000001  1.0000
  C   C179      1.0  0.03163  0.2805000000000001  0.72324  1.0000
  C   C180      1.0  0.00018  0.28333  0.69172  1.0000
  C   C181      1.0  0.9443999999999999  0.95195  0.05014  1.0000
  C   C182      1.0  0.85005  0.9372200000000003  0.04458  1.0000
  C   C183      1.0  0.9370699999999998  0.9237900000000002  0.09894  1.0000
  C   C184      1.0  0.84213  0.9083200000000001  0.09514000000000003  1.0000
  C   C185      1.0  0.7973  0.91534  0.06748  1.0000
  C   C186      1.0  0.69477  0.9019000000000003  0.06292  1.0000
  C   C187      1.0  0.49576  0.7988500000000002  0.14971  1.0000
  C   C188      1.0  0.55028  0.8218000000000002  0.12791  1.0000
  C   C189      1.0  0.35121  0.8175000000000002  0.12545  1.0000
  C   C190      1.0  0.40063  0.84053  0.10263  1.0000
  C   C191      1.0  0.50203  0.8427200000000002  0.10365  1.0000
  C   C192      1.0  0.55597  0.8680500000000001  0.07989000000000002  1.0000
  C   C193      1.0  0.3633  0.9306400000000002  0.97801  1.0000
  C   C194      1.0  0.40634  0.9172500000000002  0.00477  1.0000
  C   C195      1.0  0.51063  0.9576600000000002  0.95903  1.0000
  C   C196      1.0  0.55865  0.9452500000000003  0.98508  1.0000
  C   C197      1.0  0.50636  0.92377  0.0083  1.0000
  C   C198      1.0  0.55658  0.9080000000000003  0.03582  1.0000
  C   C199      1.0  0.063  0.38787  0.13325  1.0000
  C   C200      1.0  0.0452  0.34515  0.14821000000000004  1.0000
  C   C201      1.0  0.10691  0.3470900000000001  0.09024  1.0000
  C   C202      1.0  0.08911999999999999  0.30282000000000003  0.10344  1.0000
  C   C203      1.0  0.058809999999999994  0.30157  0.13326  1.0000
  C   C204      1.0  0.04175999999999999  0.25568  0.14909000000000003  1.0000
  C   C205      1.0  0.09413999999999999  0.08259  0.09081  1.0000
  C   C206      1.0  0.07655999999999999  0.12661000000000003  0.10428  1.0000
  C   C207      1.0  0.05971  0.04173000000000002  0.13463  1.0000
  C   C208      1.0  0.03988  0.08425000000000003  0.14962000000000003  1.0000
  C   C209      1.0  0.04999  0.12785000000000002  0.13441  1.0000
  C   C210      1.0  0.03547  0.17427000000000006  0.14983  1.0000
  C   C211      1.0  0.8943599999999999  0.18587000000000006  0.26701  1.0000
  C   C212      1.0  0.9303799999999999  0.17960000000000007  0.23832000000000003  1.0000
  C   C213      1.0  0.93703  0.26652  0.26717  1.0000
  C   C214      1.0  0.9731899999999999  0.2634  0.23834000000000002  1.0000
  C   C215      1.0  0.96836  0.2195  0.22324  1.0000
  C   C216      1.0  0.99982  0.21667  0.19172000000000003  1.0000
  C   C217      1.0  0.55559  0.45195000000000013  0.94986  1.0000
  C   C218      1.0  0.64994  0.43722  0.95543  1.0000
  C   C219      1.0  0.56293  0.4237900000000001  0.9010600000000001  1.0000
  C   C220      1.0  0.65787  0.4083200000000001  0.9048600000000001  1.0000
  C   C221      1.0  0.7027  0.4153400000000001  0.9325200000000001  1.0000
  C   C222      1.0  0.80523  0.4019000000000001  0.93709  1.0000
  C   C223      1.0  0.00424  0.29885  0.8503  1.0000
  C   C224      1.0  0.94972  0.3218  0.8720900000000001  1.0000
  C   C225      1.0  0.14879  0.31751000000000007  0.87455  1.0000
  C   C226      1.0  0.09937  0.3405300000000001  0.8973800000000002  1.0000
  C   C227      1.0  0.99796  0.34272  0.89635  1.0000
  C   C228      1.0  0.94402  0.36805  0.9201100000000001  1.0000
  C   C229      1.0  0.1367  0.43064  0.02199  1.0000
  C   C230      1.0  0.09365999999999998  0.41725  0.99524  1.0000
  C   C231      1.0  0.98937  0.4576600000000001  0.04097  1.0000
  C   C232      1.0  0.94134  0.4452600000000001  0.014920000000000001  1.0000
  C   C233      1.0  0.99363  0.4237700000000001  0.9917100000000002  1.0000
  C   C234      1.0  0.94341  0.4080000000000001  0.96419  1.0000
  C   C235      1.0  0.437  0.8878700000000002  0.8667600000000001  1.0000
  C   C236      1.0  0.4548  0.8451500000000002  0.8518000000000001  1.0000
  C   C237      1.0  0.39309  0.8470800000000003  0.90977  1.0000
  C   C238      1.0  0.41088  0.80282  0.8965700000000001  1.0000
  C   C239      1.0  0.44118  0.8015700000000002  0.86675  1.0000
  C   C240      1.0  0.45824  0.7556800000000002  0.85091  1.0000
  C   C241      1.0  0.40586  0.58259  0.9091900000000002  1.0000
  C   C242      1.0  0.42343  0.62661  0.89572  1.0000
  C   C243      1.0  0.44029  0.54172  0.86537  1.0000
  C   C244      1.0  0.46012  0.58425  0.8503900000000001  1.0000
  C   C245      1.0  0.45001  0.62785  0.86559  1.0000
  C   C246      1.0  0.46453  0.6742700000000003  0.85018  1.0000
  C   C247      1.0  0.60564  0.68587  0.7329900000000003  1.0000
  C   C248      1.0  0.56961  0.6796000000000002  0.7616800000000001  1.0000
  C   C249      1.0  0.56297  0.76652  0.73283  1.0000
  C   C250      1.0  0.5268  0.7634000000000002  0.7616700000000001  1.0000
  C   C251      1.0  0.53163  0.7195000000000003  0.7767600000000001  1.0000
  C   C252      1.0  0.50018  0.7166700000000003  0.80828  1.0000
  C   C253      1.0  0.4444  0.04804000000000001  0.44986  1.0000
  C   C254      1.0  0.35006  0.06278  0.45543000000000006  1.0000
  C   C255      1.0  0.43707  0.07621000000000003  0.40106  1.0000
  C   C256      1.0  0.34213  0.09168  0.40486  1.0000
  C   C257      1.0  0.2973  0.08466  0.43252000000000007  1.0000
  C   C258      1.0  0.19477  0.0981  0.43708  1.0000
  C   C259      1.0  0.99576  0.20115000000000005  0.35029  1.0000
  C   C260      1.0  0.05028  0.17820000000000005  0.37209000000000003  1.0000
  C   C261      1.0  0.85121  0.18249000000000007  0.37455000000000005  1.0000
  C   C262      1.0  0.90062  0.15946  0.39738  1.0000
  C   C263      1.0  0.00204  0.15728  0.39635  1.0000
  C   C264      1.0  0.05597  0.13195  0.42011000000000004  1.0000
  C   C265      1.0  0.8633  0.06936  0.52199  1.0000
  C   C266      1.0  0.90634  0.08274  0.49523000000000006  1.0000
  C   C267      1.0  0.01063  0.042340000000000017  0.54098  1.0000
  C   C268      1.0  0.05865  0.054740000000000004  0.51493  1.0000
  C   C269      1.0  0.00637  0.07623000000000002  0.4917100000000001  1.0000
  C   C270      1.0  0.05658  0.09199000000000003  0.46419  1.0000
  C   C271      1.0  0.563  0.61213  0.3667500000000001  1.0000
  C   C272      1.0  0.5452  0.6548500000000003  0.35179  1.0000
  C   C273      1.0  0.60691  0.6529100000000002  0.40976  1.0000
  C   C274      1.0  0.58912  0.6971800000000002  0.39657  1.0000
  C   C275      1.0  0.55881  0.69843  0.3667500000000001  1.0000
  C   C276      1.0  0.54176  0.7443200000000002  0.35091  1.0000
  C   C277      1.0  0.59414  0.9174100000000001  0.40919000000000005  1.0000
  C   C278      1.0  0.57656  0.8733900000000002  0.39572  1.0000
  C   C279      1.0  0.55971  0.9582700000000002  0.3653700000000001  1.0000
  C   C280      1.0  0.53988  0.9157500000000002  0.35039  1.0000
  C   C281      1.0  0.54999  0.8721500000000002  0.3655900000000001  1.0000
  C   C282      1.0  0.53547  0.8257200000000002  0.35017  1.0000
  C   C283      1.0  0.39436  0.8141200000000001  0.23299000000000003  1.0000
  C   C284      1.0  0.43038  0.8203900000000002  0.26168  1.0000
  C   C285      1.0  0.4370299999999999  0.7334800000000001  0.23283000000000004  1.0000
  C   C286      1.0  0.4732  0.7366  0.26167  1.0000
  C   C287      1.0  0.46835999999999994  0.7805  0.27676000000000006  1.0000
  C   C288      1.0  0.49982  0.7833200000000002  0.30828  1.0000
  I   I1        1.0  0.19786  0.49430000000000013  0.4657000000000001  1.0000
  I   I2        1.0  0.20152  0.4271000000000001  0.37252  1.0000
  I   I3        1.0  0.44701  0.51799  0.61723  1.0000
  I   I4        1.0  0.1724  0.43737  0.5833  1.0000
  I   I5        1.0  0.81726  0.83057  0.16904  1.0000
  I   I6        1.0  0.65519  0.69547  0.18805  1.0000
  I   I7        1.0  0.80213  0.0056900000000000015  0.9657000000000002  1.0000
  I   I8        1.0  0.79848  0.07289  0.8725200000000001  1.0000
  I   I9        1.0  0.55299  0.9820000000000001  0.11723000000000001  1.0000
  I   I10       1.0  0.8276  0.06262000000000001  0.08329  1.0000
  I   I11       1.0  0.18274  0.6694300000000002  0.66904  1.0000
  I   I12       1.0  0.3448  0.8045300000000002  0.6880500000000002  1.0000
  I   I13       1.0  0.69786  0.5056900000000001  0.0343  1.0000
  I   I14       1.0  0.70152  0.5728900000000001  0.12748000000000004  1.0000
  I   I15       1.0  0.94701  0.4820000000000001  0.8827700000000002  1.0000
  I   I16       1.0  0.6723999999999999  0.5626200000000002  0.9167100000000001  1.0000
  I   I17       1.0  0.31726  0.16943000000000003  0.33096  1.0000
  I   I18       1.0  0.15519000000000002  0.30453  0.31196  1.0000
  I   I19       1.0  0.30214  0.9943000000000002  0.5343  1.0000
  I   I20       1.0  0.29847999999999997  0.9271  0.62748  1.0000
  I   I21       1.0  0.05299  0.01799  0.38277  1.0000
  I   I22       1.0  0.3276  0.9373700000000003  0.41671  1.0000
  I   I23       1.0  0.68274  0.3305700000000001  0.83097  1.0000
  I   I24       1.0  0.8448  0.19547000000000003  0.81196  1.0000
  I   I25       1.0  0.80213  0.5056900000000001  0.5343  1.0000
  I   I26       1.0  0.79848  0.5728900000000001  0.62748  1.0000
  I   I27       1.0  0.55299  0.4820000000000001  0.38277  1.0000
  I   I28       1.0  0.8276  0.5626200000000002  0.41671  1.0000
  I   I29       1.0  0.18274  0.16943000000000003  0.83097  1.0000
  I   I30       1.0  0.3448  0.30453  0.81196  1.0000
  I   I31       1.0  0.19786  0.9943000000000002  0.0343  1.0000
  I   I32       1.0  0.20152  0.9271  0.12748000000000004  1.0000
  I   I33       1.0  0.44701  0.01799  0.8827700000000002  1.0000
  I   I34       1.0  0.1724  0.9373700000000003  0.9167100000000001  1.0000
  I   I35       1.0  0.81726  0.3305700000000001  0.33096  1.0000
  I   I36       1.0  0.65519  0.19547000000000003  0.31196  1.0000
  I   I37       1.0  0.30214  0.49430000000000013  0.9657000000000002  1.0000
  I   I38       1.0  0.29847999999999997  0.4271000000000001  0.8725200000000001  1.0000
  I   I39       1.0  0.05299  0.51799  0.11723000000000001  1.0000
  I   I40       1.0  0.3276  0.43737  0.08329  1.0000
  I   I41       1.0  0.68274  0.83057  0.66904  1.0000
  I   I42       1.0  0.8448  0.69547  0.6880500000000002  1.0000
  I   I43       1.0  0.69786  0.0056900000000000015  0.4657000000000001  1.0000
  I   I44       1.0  0.70152  0.07289  0.37252  1.0000
  I   I45       1.0  0.94701  0.9820000000000001  0.61723  1.0000
  I   I46       1.0  0.6723999999999999  0.06262000000000001  0.5833  1.0000
  I   I47       1.0  0.31726  0.6694300000000002  0.16904  1.0000
  I   I48       1.0  0.15519000000000002  0.8045300000000002  0.18805  1.0000
  N   N1        1.0  0.9871  0.4455900000000001  0.42311  1.0000
  N   N2        1.0  0.39788  0.2966300000000001  0.35152  1.0000
  N   N3        1.0  0.41474  0.44962000000000013  0.5447  1.0000
  N   N4        1.0  0.65166  0.3745900000000001  0.41631  1.0000
  N   N5        1.0  0.50512  0.3834700000000001  0.4439  1.0000
  N   N6        1.0  0.65076  0.4193400000000001  0.4615600000000001  1.0000
  N   N7        1.0  0.09438  0.8888800000000002  0.39518000000000003  1.0000
  N   N8        1.0  0.08727  0.5408800000000001  0.39420000000000005  1.0000
  N   N9        1.0  0.89615  0.7287300000000002  0.21898  1.0000
  N   N10       1.0  0.0523  0.7144600000000001  0.36607000000000006  1.0000
  N   N11       1.0  0.00801  0.67342  0.32135  1.0000
  N   N12       1.0  0.01683  0.7586800000000002  0.32206  1.0000
  N   N13       1.0  0.0129  0.054410000000000014  0.9231100000000001  1.0000
  N   N14       1.0  0.60212  0.20337  0.8515200000000002  1.0000
  N   N15       1.0  0.58526  0.050380000000000015  0.044700000000000004  1.0000
  N   N16       1.0  0.34834  0.12541000000000002  0.9163100000000002  1.0000
  N   N17       1.0  0.49488  0.11652  0.9439  1.0000
  N   N18       1.0  0.34924  0.08066000000000002  0.9615600000000001  1.0000
  N   N19       1.0  0.90561  0.6111100000000003  0.8951800000000002  1.0000
  N   N20       1.0  0.91273  0.95911  0.8942  1.0000
  N   N21       1.0  0.10384  0.7712700000000002  0.71899  1.0000
  N   N22       1.0  0.9477  0.78554  0.8660800000000001  1.0000
  N   N23       1.0  0.99198  0.8265800000000001  0.8213500000000002  1.0000
  N   N24       1.0  0.9831599999999999  0.7413200000000002  0.8220600000000001  1.0000
  N   N25       1.0  0.4871  0.5544  0.0769  1.0000
  N   N26       1.0  0.89788  0.7033700000000002  0.14848  1.0000
  N   N27       1.0  0.91474  0.55038  0.9553000000000003  1.0000
  N   N28       1.0  0.15166  0.62541  0.0837  1.0000
  N   N29       1.0  0.00512  0.61652  0.0561  1.0000
  N   N30       1.0  0.15076  0.5806600000000001  0.03844  1.0000
  N   N31       1.0  0.59438  0.11111000000000003  0.10482  1.0000
  N   N32       1.0  0.58727  0.45911000000000013  0.10580000000000002  1.0000
  N   N33       1.0  0.39616  0.27127  0.28102000000000005  1.0000
  N   N34       1.0  0.5523  0.2855400000000001  0.13393  1.0000
  N   N35       1.0  0.50801  0.32658  0.17865  1.0000
  N   N36       1.0  0.51683  0.24132000000000003  0.17795  1.0000
  N   N37       1.0  0.5129  0.94559  0.5769  1.0000
  N   N38       1.0  0.10212  0.79663  0.64848  1.0000
  N   N39       1.0  0.08526  0.94962  0.4553  1.0000
  N   N40       1.0  0.84834  0.8745900000000002  0.5837  1.0000
  N   N41       1.0  0.99488  0.8834700000000001  0.5561  1.0000
  N   N42       1.0  0.84924  0.9193300000000002  0.53844  1.0000
  N   N43       1.0  0.40562  0.38889  0.60483  1.0000
  N   N44       1.0  0.41273  0.04089000000000001  0.60581  1.0000
  N   N45       1.0  0.60384  0.22873000000000004  0.78102  1.0000
  N   N46       1.0  0.4477  0.21446000000000007  0.63393  1.0000
  N   N47       1.0  0.49198  0.17342000000000005  0.67865  1.0000
  N   N48       1.0  0.48317  0.25868  0.67795  1.0000
  N   N49       1.0  0.0129  0.5544  0.5769  1.0000
  N   N50       1.0  0.60212  0.7033700000000002  0.64848  1.0000
  N   N51       1.0  0.58526  0.55038  0.4553  1.0000
  N   N52       1.0  0.34834  0.62541  0.5837  1.0000
  N   N53       1.0  0.49488  0.61652  0.5561  1.0000
  N   N54       1.0  0.34924  0.5806600000000001  0.53844  1.0000
  N   N55       1.0  0.90561  0.11111000000000003  0.60483  1.0000
  N   N56       1.0  0.91273  0.45911000000000013  0.60581  1.0000
  N   N57       1.0  0.10384  0.27127  0.78102  1.0000
  N   N58       1.0  0.9477  0.2855400000000001  0.63393  1.0000
  N   N59       1.0  0.99198  0.32658  0.67865  1.0000
  N   N60       1.0  0.9831599999999999  0.24132000000000003  0.67795  1.0000
  N   N61       1.0  0.9871  0.94559  0.0769  1.0000
  N   N62       1.0  0.39788  0.79663  0.14848  1.0000
  N   N63       1.0  0.41474  0.94962  0.9553000000000003  1.0000
  N   N64       1.0  0.65166  0.8745900000000002  0.0837  1.0000
  N   N65       1.0  0.50512  0.8834700000000001  0.0561  1.0000
  N   N66       1.0  0.65076  0.9193300000000002  0.03844  1.0000
  N   N67       1.0  0.09438  0.38889  0.10482  1.0000
  N   N68       1.0  0.08727  0.04089000000000001  0.10580000000000002  1.0000
  N   N69       1.0  0.89615  0.22873000000000004  0.28102000000000005  1.0000
  N   N70       1.0  0.0523  0.21446000000000007  0.13393  1.0000
  N   N71       1.0  0.00801  0.17342000000000005  0.17865  1.0000
  N   N72       1.0  0.01683  0.25868  0.17795  1.0000
  N   N73       1.0  0.5129  0.4455900000000001  0.9231100000000001  1.0000
  N   N74       1.0  0.10212  0.2966300000000001  0.8515200000000002  1.0000
  N   N75       1.0  0.08526  0.44962000000000013  0.044700000000000004  1.0000
  N   N76       1.0  0.84834  0.3745900000000001  0.9163100000000002  1.0000
  N   N77       1.0  0.99487  0.3834700000000001  0.9439  1.0000
  N   N78       1.0  0.84924  0.4193400000000001  0.9615600000000001  1.0000
  N   N79       1.0  0.40562  0.8888800000000002  0.8951800000000002  1.0000
  N   N80       1.0  0.41273  0.5408800000000001  0.8942  1.0000
  N   N81       1.0  0.60384  0.7287300000000002  0.71899  1.0000
  N   N82       1.0  0.4477  0.7144600000000001  0.8660800000000001  1.0000
  N   N83       1.0  0.49198  0.67342  0.8213500000000002  1.0000
  N   N84       1.0  0.48317  0.7586800000000002  0.8220600000000001  1.0000
  N   N85       1.0  0.4871  0.054410000000000014  0.42311  1.0000
  N   N86       1.0  0.89788  0.20337  0.35152  1.0000
  N   N87       1.0  0.91474  0.050380000000000015  0.5447  1.0000
  N   N88       1.0  0.15166  0.12541000000000002  0.41631  1.0000
  N   N89       1.0  0.00512  0.11652  0.4439  1.0000
  N   N90       1.0  0.15076  0.08066000000000002  0.4615600000000001  1.0000
  N   N91       1.0  0.59438  0.6111100000000003  0.39518000000000003  1.0000
  N   N92       1.0  0.58727  0.95911  0.39420000000000005  1.0000
  N   N93       1.0  0.39616  0.7712700000000002  0.21898  1.0000
  N   N94       1.0  0.5523  0.78554  0.36607000000000006  1.0000
  N   N95       1.0  0.50801  0.8265800000000001  0.32135  1.0000
  N   N96       1.0  0.51683  0.7413200000000002  0.32206  1.0000
