data_image0
_chemical_formula_structural       Cu40H560W12C336N136O120
_chemical_formula_sum              "Cu40 H560 W12 C336 N136 O120"
_cell_length_a       20.4395
_cell_length_b       21.22875
_cell_length_c       32.05342000000001
_cell_angle_alpha    90.01683000000001
_cell_angle_beta     89.95596
_cell_angle_gamma    90.03824

_space_group_name_H-M_alt    "P 1"
_space_group_IT_number       1

loop_
  _space_group_symop_operation_xyz
  'x, y, z'

loop_
  _atom_site_type_symbol
  _atom_site_label
  _atom_site_symmetry_multiplicity
  _atom_site_fract_x
  _atom_site_fract_y
  _atom_site_fract_z
  _atom_site_occupancy
  Cu  Cu1       1.0  0.71994  0.27209  0.27265  1.0000
  Cu  Cu2       1.0  0.76283  0.64348  0.26075  1.0000
  Cu  Cu3       1.0  0.44404  0.63365  0.34664  1.0000
  Cu  Cu4       1.0  0.32097  0.62987  0.39448  1.0000
  Cu  Cu5       1.0  0.02719  0.94123  0.48067  1.0000
  Cu  Cu6       1.0  0.78189  0.77209  0.22804  1.0000
  Cu  Cu7       1.0  0.73949  0.14362  0.23953  1.0000
  Cu  Cu8       1.0  0.05589000000000001  0.1329  0.15354999999999994  1.0000
  Cu  Cu9       1.0  0.18004  0.13072  0.10714  1.0000
  Cu  Cu10      1.0  0.46441000000000004  0.44735  0.02226  1.0000
  Cu  Cu11      1.0  0.72034  0.22818000000000002  0.72792  1.0000
  Cu  Cu12      1.0  0.76311  0.85737  0.73904  1.0000
  Cu  Cu13      1.0  0.44432000000000005  0.86671  0.6534299999999997  1.0000
  Cu  Cu14      1.0  0.3207  0.8691699999999999  0.60596  1.0000
  Cu  Cu15      1.0  0.03324  0.55464  0.51843  1.0000
  Cu  Cu16      1.0  0.7827400000000001  0.72946  0.77246  1.0000
  Cu  Cu17      1.0  0.7382  0.35684  0.76063  1.0000
  Cu  Cu18      1.0  0.05489  0.36621  0.84636  1.0000
  Cu  Cu19      1.0  0.17834  0.3687  0.8929699999999998  1.0000
  Cu  Cu20      1.0  0.4644  0.05142000000000001  0.97779  1.0000
  Cu  Cu21      1.0  0.28243  0.72784  0.7282  1.0000
  Cu  Cu22      1.0  0.23834000000000002  0.35675  0.73994  1.0000
  Cu  Cu23      1.0  0.55561  0.36538  0.65404  1.0000
  Cu  Cu24      1.0  0.67968  0.36787  0.6074  1.0000
  Cu  Cu25      1.0  0.9649299999999998  0.05165  0.52227  1.0000
  Cu  Cu26      1.0  0.22001  0.22789999999999996  0.77297  1.0000
  Cu  Cu27      1.0  0.26239  0.8561699999999999  0.76064  1.0000
  Cu  Cu28      1.0  0.9441700000000001  0.86668  0.84702  1.0000
  Cu  Cu29      1.0  0.82086  0.86995  0.8946  1.0000
  Cu  Cu30      1.0  0.53296  0.55556  0.98083  1.0000
  Cu  Cu31      1.0  0.28277  0.7706399999999999  0.27269  1.0000
  Cu  Cu32      1.0  0.2391  0.14329  0.25989  1.0000
  Cu  Cu33      1.0  0.55542  0.13361  0.34609  1.0000
  Cu  Cu34      1.0  0.6794300000000001  0.13101  0.39254  1.0000
  Cu  Cu35      1.0  0.96956  0.44493  0.47678  1.0000
  Cu  Cu36      1.0  0.22007  0.27199  0.22671  1.0000
  Cu  Cu37      1.0  0.2626  0.64304  0.23899999999999993  1.0000
  Cu  Cu38      1.0  0.94405  0.63359  0.15380999999999995  1.0000
  Cu  Cu39      1.0  0.8209200000000001  0.63055  0.10632  1.0000
  Cu  Cu40      1.0  0.53212  0.94306  0.01952  1.0000
  H   H1        1.0  0.74815  0.34922  0.19613  1.0000
  H   H2        1.0  0.6574  0.24617  0.3515199999999999  1.0000
  H   H3        1.0  0.6621100000000001  0.07235  0.30081999999999987  1.0000
  H   H4        1.0  0.79233  0.23978999999999998  0.17946999999999994  1.0000
  H   H5        1.0  0.39951  0.69586  0.26973  1.0000
  H   H6        1.0  0.46505  0.58813  0.43408999999999986  1.0000
  H   H7        1.0  0.36369  0.61462  0.47399  1.0000
  H   H8        1.0  0.23093000000000002  0.66875  0.32952  1.0000
  H   H9        1.0  0.8845500000000001  0.9084  0.4741399999999999  1.0000
  H   H10       1.0  0.17818  0.94366  0.46547  1.0000
  H   H11       1.0  0.85491  0.40425  0.2807899999999999  1.0000
  H   H12       1.0  0.7713500000000001  0.40935  0.2648099999999999  1.0000
  H   H13       1.0  0.84883  0.39826  0.20576  1.0000
  H   H14       1.0  0.87776  0.32617  0.22526  1.0000
  H   H15       1.0  0.8100900000000001  0.3736  0.35421  1.0000
  H   H16       1.0  0.73646  0.39258999999999994  0.3275499999999999  1.0000
  H   H17       1.0  0.71312  0.33232  0.38985  1.0000
  H   H18       1.0  0.76339  0.26843  0.37352  1.0000
  H   H19       1.0  0.8980500000000001  0.30647  0.29931  1.0000
  H   H20       1.0  0.85062  0.26936  0.3382499999999999  1.0000
  H   H21       1.0  0.87936  0.18579  0.29112  1.0000
  H   H22       1.0  0.8568500000000001  0.22963  0.24617  1.0000
  H   H23       1.0  0.62103  0.15907  0.14724  1.0000
  H   H24       1.0  0.58576  0.13342  0.19437999999999994  1.0000
  H   H25       1.0  0.597  0.24502999999999997  0.20324999999999993  1.0000
  H   H26       1.0  0.67784  0.24665999999999996  0.18348  1.0000
  H   H27       1.0  0.7045  0.014199999999999999  0.19893  1.0000
  H   H28       1.0  0.62559  0.02926  0.17725  1.0000
  H   H29       1.0  0.61399  0.9973500000000001  0.24996  1.0000
  H   H30       1.0  0.58997  0.07705  0.24546  1.0000
  H   H31       1.0  0.76983  0.07235  0.15937  1.0000
  H   H32       1.0  0.70507  0.08957  0.12427  1.0000
  H   H33       1.0  0.72483  0.20434999999999998  0.13157  1.0000
  H   H34       1.0  0.7952000000000001  0.16298  0.11481  1.0000
  H   H35       1.0  0.52165  0.77148  0.40615  1.0000
  H   H36       1.0  0.47255  0.79093  0.3628399999999999  1.0000
  H   H37       1.0  0.39540000000000003  0.7699200000000002  0.41762  1.0000
  H   H38       1.0  0.43557000000000007  0.69995  0.43356  1.0000
  H   H39       1.0  0.59082  0.63392  0.3591299999999999  1.0000
  H   H40       1.0  0.6084  0.70249  0.38890999999999987  1.0000
  H   H41       1.0  0.53225  0.66829  0.4445  1.0000
  H   H42       1.0  0.59075  0.60884  0.43307  1.0000
  H   H43       1.0  0.56815  0.68753  0.30311  1.0000
  H   H44       1.0  0.56927  0.7669  0.32174999999999987  1.0000
  H   H45       1.0  0.50186  0.7569900000000002  0.25856  1.0000
  H   H46       1.0  0.45217  0.78016  0.30119  1.0000
  H   H47       1.0  0.26888  0.49078000000000005  0.35444  1.0000
  H   H48       1.0  0.30285  0.45113000000000003  0.39767  1.0000
  H   H49       1.0  0.40677  0.51334  0.39032  1.0000
  H   H50       1.0  0.38608  0.48335000000000006  0.34065  1.0000
  H   H51       1.0  0.2549  0.56757  0.4719599999999999  1.0000
  H   H52       1.0  0.25252  0.48607  0.4602099999999999  1.0000
  H   H53       1.0  0.37531  0.4846  0.45461  1.0000
  H   H54       1.0  0.34584  0.5111  0.50383  1.0000
  H   H55       1.0  0.1759  0.5145  0.39867  1.0000
  H   H56       1.0  0.18389000000000003  0.58906  0.4240599999999999  1.0000
  H   H57       1.0  0.1415  0.6016  0.3533  1.0000
  H   H58       1.0  0.21028999999999998  0.56299  0.33124  1.0000
  H   H59       1.0  0.8988400000000001  0.8224000000000001  0.41561  1.0000
  H   H60       1.0  0.8901500000000001  0.9042700000000001  0.40588999999999986  1.0000
  H   H61       1.0  0.018  0.83098  0.42069  1.0000
  H   H62       1.0  0.98977  0.86155  0.37229  1.0000
  H   H63       1.0  0.18514  0.9749199999999999  0.40024  1.0000
  H   H64       1.0  0.11628000000000001  0.024680000000000004  0.40882  1.0000
  H   H65       1.0  0.09311  0.9248500000000001  0.36585  1.0000
  H   H66       1.0  0.11377  0.87978  0.41066  1.0000
  H   H67       1.0  0.95799  0.9705800000000001  0.3721599999999999  1.0000
  H   H68       1.0  0.027960000000000002  0.01577  0.38261  1.0000
  H   H69       1.0  0.90836  0.0006300000000000001  0.43879  1.0000
  H   H70       1.0  0.9447600000000002  0.07096  0.4197  1.0000
  H   H71       1.0  0.75254  0.8469299999999998  0.30284  1.0000
  H   H72       1.0  0.84564  0.74737  0.15021999999999994  1.0000
  H   H73       1.0  0.8378200000000001  0.57112  0.19893  1.0000
  H   H74       1.0  0.70927  0.73886  0.32078  1.0000
  H   H75       1.0  0.10135000000000001  0.19522  0.22942  1.0000
  H   H76       1.0  0.03871  0.09113  0.06554  1.0000
  H   H77       1.0  0.14104  0.11947  0.02946  1.0000
  H   H78       1.0  0.27085  0.16839  0.17222  1.0000
  H   H79       1.0  0.56643  0.39188000000000006  0.02095  1.0000
  H   H80       1.0  0.32103000000000004  0.44273  0.03645  1.0000
  H   H81       1.0  0.64555  0.9028399999999999  0.2193  1.0000
  H   H82       1.0  0.72876  0.9087300000000001  0.23592  1.0000
  H   H83       1.0  0.65054  0.89633  0.29448  1.0000
  H   H84       1.0  0.62235  0.8243  0.27438  1.0000
  H   H85       1.0  0.6914  0.8721199999999999  0.14591  1.0000
  H   H86       1.0  0.76385  0.8933699999999999  0.17326  1.0000
  H   H87       1.0  0.79127  0.8336699999999999  0.11176  1.0000
  H   H88       1.0  0.74146  0.76869  0.12701  1.0000
  H   H89       1.0  0.60386  0.80425  0.20048  1.0000
  H   H90       1.0  0.65234  0.76816  0.16181  1.0000
  H   H91       1.0  0.62358  0.68408  0.20881  1.0000
  H   H92       1.0  0.6461  0.72782  0.25379  1.0000
  H   H93       1.0  0.88087  0.65835  0.35306  1.0000
  H   H94       1.0  0.91622  0.63372  0.30566  1.0000
  H   H95       1.0  0.90478  0.7455  0.29795  1.0000
  H   H96       1.0  0.8237200000000001  0.74637  0.31744  1.0000
  H   H97       1.0  0.79793  0.51381  0.30109999999999987  1.0000
  H   H98       1.0  0.8771  0.52939  0.3222199999999999  1.0000
  H   H99       1.0  0.88829  0.49771  0.24964  1.0000
  H   H100      1.0  0.91068  0.57798  0.25361  1.0000
  H   H101      1.0  0.73241  0.57151  0.34061  1.0000
  H   H102      1.0  0.7972499999999999  0.58863  0.37569  1.0000
  H   H103      1.0  0.77699  0.70329  0.36905  1.0000
  H   H104      1.0  0.70605  0.66172  0.38483  1.0000
  H   H105      1.0  0.97952  0.2713  0.09428  1.0000
  H   H106      1.0  0.02728  0.29084  0.13820999999999994  1.0000
  H   H107      1.0  0.10640000000000001  0.27035  0.08446  1.0000
  H   H108      1.0  0.06655  0.20068  0.06753  1.0000
  H   H109      1.0  0.90978  0.13308  0.13995  1.0000
  H   H110      1.0  0.8925100000000001  0.20209  0.1106  1.0000
  H   H111      1.0  0.96966  0.16978  0.05531999999999999  1.0000
  H   H112      1.0  0.9118400000000001  0.10927  0.06582  1.0000
  H   H113      1.0  0.93185  0.18585  0.19689  1.0000
  H   H114      1.0  0.93058  0.26548  0.17896999999999993  1.0000
  H   H115      1.0  0.9978000000000001  0.25458  0.24215999999999993  1.0000
  H   H116      1.0  0.04745  0.27901  0.19977999999999996  1.0000
  H   H117      1.0  0.23110000000000003  0.99043  0.14592  1.0000
  H   H118      1.0  0.19776  0.9516800000000001  0.10208999999999997  1.0000
  H   H119      1.0  0.09407  0.01394  0.10915  1.0000
  H   H120      1.0  0.11363000000000001  0.98302  0.15874  1.0000
  H   H121      1.0  0.24758  0.06948  0.02934  1.0000
  H   H122      1.0  0.24782  0.9876200000000002  0.03994  1.0000
  H   H123      1.0  0.12517  0.98838  0.04436  1.0000
  H   H124      1.0  0.15619  0.01772  0.99611  1.0000
  H   H125      1.0  0.32481  0.014190000000000001  0.10238  1.0000
  H   H126      1.0  0.31771  0.08951  0.07767  1.0000
  H   H127      1.0  0.35914  0.10121  0.14845  1.0000
  H   H128      1.0  0.2907  0.06108  0.17005  1.0000
  H   H129      1.0  0.59834  0.31969  0.09294  1.0000
  H   H130      1.0  0.60752  0.40222  0.09154  1.0000
  H   H131      1.0  0.478  0.32962  0.08131  1.0000
  H   H132      1.0  0.50721  0.36116  0.12928  1.0000
  H   H133      1.0  0.31343  0.47357999999999995  0.10145  1.0000
  H   H134      1.0  0.38224  0.52404  0.09378999999999997  1.0000
  H   H135      1.0  0.4069  0.42423  0.13635  1.0000
  H   H136      1.0  0.38518  0.37924  0.0916  1.0000
  H   H137      1.0  0.54297  0.46759000000000006  0.12912  1.0000
  H   H138      1.0  0.47321  0.51414  0.12038999999999997  1.0000
  H   H139      1.0  0.58883  0.4973  0.06084  1.0000
  H   H140      1.0  0.55871  0.5682  0.08359999999999997  1.0000
  H   H141      1.0  0.74823  0.15251  0.80339  1.0000
  H   H142      1.0  0.65806  0.25405  0.64924  1.0000
  H   H143      1.0  0.6623  0.42801999999999996  0.69926  1.0000
  H   H144      1.0  0.79227  0.26168  0.82053  1.0000
  H   H145      1.0  0.3993  0.80498  0.73052  1.0000
  H   H146      1.0  0.46529  0.9107900000000001  0.5661  1.0000
  H   H147      1.0  0.36402  0.8835500000000001  0.52752  1.0000
  H   H148      1.0  0.23125  0.83007  0.6706499999999997  1.0000
  H   H149      1.0  0.91999  0.6024  0.5188299999999998  1.0000
  H   H150      1.0  0.17556  0.55755  0.5353  1.0000
  H   H151      1.0  0.85617  0.09715  0.71951  1.0000
  H   H152      1.0  0.77253  0.09159  0.73536  1.0000
  H   H153      1.0  0.84933  0.10334  0.79463  1.0000
  H   H154      1.0  0.87837  0.17538  0.77495  1.0000
  H   H155      1.0  0.81169  0.12771  0.646  1.0000
  H   H156      1.0  0.73797  0.10810000000000002  0.6725499999999998  1.0000
  H   H157      1.0  0.71305  0.16869  0.61097  1.0000
  H   H158      1.0  0.76472  0.23215  0.62638  1.0000
  H   H159      1.0  0.89878  0.19567  0.70088  1.0000
  H   H160      1.0  0.85102  0.23231  0.6620399999999997  1.0000
  H   H161      1.0  0.8790600000000001  0.31607  0.70924  1.0000
  H   H162      1.0  0.85675  0.27197  0.7541699999999998  1.0000
  H   H163      1.0  0.61987  0.34139  0.8529  1.0000
  H   H164      1.0  0.58478  0.36617  0.80554  1.0000
  H   H165      1.0  0.59649  0.25439  0.79774  1.0000
  H   H166      1.0  0.67758  0.25372  0.81709  1.0000
  H   H167      1.0  0.70277  0.48635000000000006  0.80131  1.0000
  H   H168      1.0  0.6237  0.47052  0.8226  1.0000
  H   H169      1.0  0.61265  0.50273  0.75002  1.0000
  H   H170      1.0  0.58968  0.4225999999999999  0.7539899999999998  1.0000
  H   H171      1.0  0.7683  0.42876000000000003  0.84062  1.0000
  H   H172      1.0  0.70354  0.4109400000000001  0.87569  1.0000
  H   H173      1.0  0.72454  0.2964  0.8685  1.0000
  H   H174      1.0  0.79441  0.33864  0.88523  1.0000
  H   H175      1.0  0.52134  0.72799  0.59466  1.0000
  H   H176      1.0  0.47246000000000005  0.70913  0.63827  1.0000
  H   H177      1.0  0.39506  0.72969  0.58358  1.0000
  H   H178      1.0  0.43539000000000005  0.7994600000000001  0.56727  1.0000
  H   H179      1.0  0.59135  0.86591  0.6408199999999998  1.0000
  H   H180      1.0  0.6087800000000001  0.79683  0.6116  1.0000
  H   H181      1.0  0.5324  0.83022  0.55584  1.0000
  H   H182      1.0  0.59086  0.8900299999999999  0.56673  1.0000
  H   H183      1.0  0.5683  0.81337  0.6972399999999997  1.0000
  H   H184      1.0  0.56916  0.73368  0.67923  1.0000
  H   H185      1.0  0.50174  0.74518  0.7424  1.0000
  H   H186      1.0  0.45231  0.72067  0.69999  1.0000
  H   H187      1.0  0.26781  0.00793  0.64575  1.0000
  H   H188      1.0  0.30152  0.047839999999999994  0.60251  1.0000
  H   H189      1.0  0.40591999999999995  0.9865700000000001  0.60975  1.0000
  H   H190      1.0  0.38499  0.01629  0.6594299999999997  1.0000
  H   H191      1.0  0.25503  0.9308800000000002  0.5282999999999998  1.0000
  H   H192      1.0  0.25263  0.012449999999999998  0.53965  1.0000
  H   H193      1.0  0.37522  0.01409  0.5457999999999997  1.0000
  H   H194      1.0  0.34666  0.98609  0.4966899999999999  1.0000
  H   H195      1.0  0.17524  0.9839699999999999  0.60166  1.0000
  H   H196      1.0  0.18338  0.90953  0.57601  1.0000
  H   H197      1.0  0.14098  0.89601  0.6467199999999997  1.0000
  H   H198      1.0  0.20927000000000004  0.93555  0.66886  1.0000
  H   H199      1.0  0.9016100000000001  0.68456  0.5876599999999997  1.0000
  H   H200      1.0  0.8890000000000001  0.60236  0.58843  1.0000
  H   H201      1.0  0.02096  0.67102  0.57863  1.0000
  H   H202      1.0  0.98974  0.64022  0.62626  1.0000
  H   H203      1.0  0.18171  0.52322  0.5999  1.0000
  H   H204      1.0  0.11194000000000001  0.47468  0.59038  1.0000
  H   H205      1.0  0.08856  0.57378  0.63447  1.0000
  H   H206      1.0  0.11265000000000001  0.6196  0.59072  1.0000
  H   H207      1.0  0.9517099999999998  0.53411  0.6251899999999998  1.0000
  H   H208      1.0  0.02058  0.48619000000000007  0.6169099999999997  1.0000
  H   H209      1.0  0.90706  0.50565  0.5561  1.0000
  H   H210      1.0  0.93601  0.43418000000000007  0.57839  1.0000
  H   H211      1.0  0.75688  0.64873  0.69475  1.0000
  H   H212      1.0  0.8446  0.7540799999999999  0.85176  1.0000
  H   H213      1.0  0.8376800000000001  0.92954  0.80096  1.0000
  H   H214      1.0  0.71268  0.76013  0.67722  1.0000
  H   H215      1.0  0.10122999999999999  0.30353  0.77029  1.0000
  H   H216      1.0  0.03613  0.40959  0.93318  1.0000
  H   H217      1.0  0.1381  0.37909  0.9700099999999998  1.0000
  H   H218      1.0  0.26904  0.3314  0.82777  1.0000
  H   H219      1.0  0.56413  0.11138999999999999  0.97974  1.0000
  H   H220      1.0  0.32106000000000007  0.05576  0.96346  1.0000
  H   H221      1.0  0.64636  0.59883  0.77905  1.0000
  H   H222      1.0  0.73033  0.59172  0.76446  1.0000
  H   H223      1.0  0.65391  0.60351  0.7047  1.0000
  H   H224      1.0  0.62795  0.6774  0.72311  1.0000
  H   H225      1.0  0.69055  0.62853  0.85342  1.0000
  H   H226      1.0  0.76408  0.60798  0.82698  1.0000
  H   H227      1.0  0.7885300000000001  0.66735  0.8891499999999998  1.0000
  H   H228      1.0  0.73926  0.73222  0.8732699999999998  1.0000
  H   H229      1.0  0.60435  0.6959  0.79805  1.0000
  H   H230      1.0  0.65145  0.73208  0.83739  1.0000
  H   H231      1.0  0.62358  0.8164099999999999  0.7905099999999998  1.0000
  H   H232      1.0  0.64723  0.77319  0.7455099999999998  1.0000
  H   H233      1.0  0.8817800000000001  0.84302  0.64699  1.0000
  H   H234      1.0  0.9165600000000002  0.86786  0.6944299999999998  1.0000
  H   H235      1.0  0.90574  0.7562200000000001  0.70244  1.0000
  H   H236      1.0  0.82491  0.75445  0.68264  1.0000
  H   H237      1.0  0.79774  0.98706  0.69893  1.0000
  H   H238      1.0  0.8770100000000001  0.97195  0.6777899999999998  1.0000
  H   H239      1.0  0.88827  0.0035499999999999998  0.75026  1.0000
  H   H240      1.0  0.9105  0.92326  0.74645  1.0000
  H   H241      1.0  0.73222  0.92874  0.65947  1.0000
  H   H242      1.0  0.7975000000000001  0.91319  0.6244599999999998  1.0000
  H   H243      1.0  0.7794600000000002  0.79834  0.62992  1.0000
  H   H244      1.0  0.7086  0.8393  0.61354  1.0000
  H   H245      1.0  0.9786000000000001  0.22831  0.90605  1.0000
  H   H246      1.0  0.02634  0.20802  0.86224  1.0000
  H   H247      1.0  0.10535  0.22917  0.91597  1.0000
  H   H248      1.0  0.06563  0.29916  0.93232  1.0000
  H   H249      1.0  0.9086600000000001  0.36525  0.85925  1.0000
  H   H250      1.0  0.8915200000000001  0.29659  0.8889699999999998  1.0000
  H   H251      1.0  0.9686  0.33075  0.94416  1.0000
  H   H252      1.0  0.9094500000000001  0.38977  0.9333899999999998  1.0000
  H   H253      1.0  0.93196  0.3125  0.80277  1.0000
  H   H254      1.0  0.9305099999999998  0.23300000000000004  0.82103  1.0000
  H   H255      1.0  0.9984300000000002  0.24329  0.75804  1.0000
  H   H256      1.0  0.04776  0.2197  0.80071  1.0000
  H   H257      1.0  0.23008000000000003  0.50816  0.8543799999999998  1.0000
  H   H258      1.0  0.19736000000000004  0.54759  0.8981899999999998  1.0000
  H   H259      1.0  0.09259  0.48656000000000005  0.89124  1.0000
  H   H260      1.0  0.11269  0.51748  0.8417  1.0000
  H   H261      1.0  0.24463  0.42915  0.97111  1.0000
  H   H262      1.0  0.24516  0.51106  0.9606899999999998  1.0000
  H   H263      1.0  0.12256  0.51033  0.95574  1.0000
  H   H264      1.0  0.1529  0.48070000000000007  0.00402  1.0000
  H   H265      1.0  0.32343  0.48421999999999993  0.89869  1.0000
  H   H266      1.0  0.31522  0.4088  0.92317  1.0000
  H   H267      1.0  0.35772000000000004  0.39646  0.85285  1.0000
  H   H268      1.0  0.29093  0.43828  0.83067  1.0000
  H   H269      1.0  0.59892  0.17884  0.90628  1.0000
  H   H270      1.0  0.60766  0.09642999999999999  0.9095299999999997  1.0000
  H   H271      1.0  0.4781  0.16917  0.91826  1.0000
  H   H272      1.0  0.50787  0.13703  0.8706  1.0000
  H   H273      1.0  0.31391  0.02472  0.8984699999999999  1.0000
  H   H274      1.0  0.38266  0.9743400000000001  0.9063199999999998  1.0000
  H   H275      1.0  0.40753  0.07408  0.86368  1.0000
  H   H276      1.0  0.38549  0.11913  0.9083399999999998  1.0000
  H   H277      1.0  0.54383  0.031  0.8713  1.0000
  H   H278      1.0  0.47396  0.9843800000000001  0.8798499999999998  1.0000
  H   H279      1.0  0.58885  0.0017300000000000002  0.93984  1.0000
  H   H280      1.0  0.55936  0.93066  0.9169499999999998  1.0000
  H   H281      1.0  0.25519  0.64941  0.8040799999999998  1.0000
  H   H282      1.0  0.34513  0.75373  0.64969  1.0000
  H   H283      1.0  0.33787  0.92771  0.69883  1.0000
  H   H284      1.0  0.21086000000000002  0.7598800000000001  0.8218599999999998  1.0000
  H   H285      1.0  0.60114  0.30351  0.7303  1.0000
  H   H286      1.0  0.53611  0.40768  0.56655  1.0000
  H   H287      1.0  0.63859  0.37926  0.52959  1.0000
  H   H288      1.0  0.77055  0.33198  0.67236  1.0000
  H   H289      1.0  0.06736  0.10953  0.5204999999999997  1.0000
  H   H290      1.0  0.82102  0.05587  0.53669  1.0000
  H   H291      1.0  0.14643  0.59627  0.71999  1.0000
  H   H292      1.0  0.23002  0.59006  0.7357599999999997  1.0000
  H   H293      1.0  0.1531  0.6026  0.79508  1.0000
  H   H294      1.0  0.12573  0.67527  0.7756699999999997  1.0000
  H   H295      1.0  0.19265  0.62643  0.64625  1.0000
  H   H296      1.0  0.26554  0.60648  0.67349  1.0000
  H   H297      1.0  0.2918  0.66625  0.61188  1.0000
  H   H298      1.0  0.24075  0.7304  0.62686  1.0000
  H   H299      1.0  0.10444000000000002  0.69374  0.70093  1.0000
  H   H300      1.0  0.1524  0.73005  0.66205  1.0000
  H   H301      1.0  0.12358  0.81434  0.7086599999999997  1.0000
  H   H302      1.0  0.14596  0.77117  0.7538899999999997  1.0000
  H   H303      1.0  0.38001  0.84257  0.85333  1.0000
  H   H304      1.0  0.4155  0.8675600000000001  0.80607  1.0000
  H   H305      1.0  0.40494  0.75575  0.7979799999999998  1.0000
  H   H306      1.0  0.32384  0.7541  0.8174  1.0000
  H   H307      1.0  0.29633  0.98619  0.80057  1.0000
  H   H308      1.0  0.37539  0.9715  0.82211  1.0000
  H   H309      1.0  0.38669  0.00248  0.74929  1.0000
  H   H310      1.0  0.41048  0.92271  0.7539899999999998  1.0000
  H   H311      1.0  0.23068  0.9279299999999999  0.84018  1.0000
  H   H312      1.0  0.29556  0.9126  0.87548  1.0000
  H   H313      1.0  0.27702  0.79722  0.86986  1.0000
  H   H314      1.0  0.20624999999999996  0.8387799999999999  0.8858799999999998  1.0000
  H   H315      1.0  0.47913  0.22697  0.59462  1.0000
  H   H316      1.0  0.52721  0.20758  0.63839  1.0000
  H   H317      1.0  0.60588  0.22831  0.5844199999999998  1.0000
  H   H318      1.0  0.56592  0.29797  0.5677299999999997  1.0000
  H   H319      1.0  0.40899  0.36457  0.64095  1.0000
  H   H320      1.0  0.39152000000000003  0.29537  0.61185  1.0000
  H   H321      1.0  0.46813  0.32848  0.5560299999999998  1.0000
  H   H322      1.0  0.40965  0.38822000000000007  0.56676  1.0000
  H   H323      1.0  0.43214  0.31194  0.69755  1.0000
  H   H324      1.0  0.43091000000000007  0.23233  0.67938  1.0000
  H   H325      1.0  0.4987  0.24317  0.7424  1.0000
  H   H326      1.0  0.54805  0.2193  0.69975  1.0000
  H   H327      1.0  0.73076  0.5081  0.64602  1.0000
  H   H328      1.0  0.69595  0.54687  0.6026799999999998  1.0000
  H   H329      1.0  0.59291  0.4838199999999999  0.61065  1.0000
  H   H330      1.0  0.61354  0.51502  0.66002  1.0000
  H   H331      1.0  0.7446900000000001  0.42999  0.529  1.0000
  H   H332      1.0  0.74458  0.51172  0.53998  1.0000
  H   H333      1.0  0.62198  0.50986  0.54574  1.0000
  H   H334      1.0  0.65233  0.48212  0.49691  1.0000
  H   H335      1.0  0.8234500000000001  0.48521  0.6013099999999998  1.0000
  H   H336      1.0  0.81607  0.40976  0.57679  1.0000
  H   H337      1.0  0.85934  0.39823  0.64706  1.0000
  H   H338      1.0  0.79164  0.43854  0.6694099999999997  1.0000
  H   H339      1.0  0.09873  0.17957  0.59358  1.0000
  H   H340      1.0  0.10783  0.09717  0.59059  1.0000
  H   H341      1.0  0.978  0.16953  0.58187  1.0000
  H   H342      1.0  0.00785  0.13751  0.62949  1.0000
  H   H343      1.0  0.81435  0.024330000000000004  0.6017  1.0000
  H   H344      1.0  0.88347  0.97446  0.59343  1.0000
  H   H345      1.0  0.9073  0.07438  0.6362599999999998  1.0000
  H   H346      1.0  0.88547  0.11922000000000002  0.5915099999999998  1.0000
  H   H347      1.0  0.04431000000000001  0.0318  0.6287099999999998  1.0000
  H   H348      1.0  0.9744600000000001  0.98504  0.62052  1.0000
  H   H349      1.0  0.08892  0.00172  0.55997  1.0000
  H   H350      1.0  0.05937  0.931  0.58325  1.0000
  H   H351      1.0  0.24801000000000004  0.15252  0.6966799999999997  1.0000
  H   H352      1.0  0.15737  0.25241  0.85155  1.0000
  H   H353      1.0  0.16174  0.42907  0.8013999999999998  1.0000
  H   H354      1.0  0.29215  0.26169  0.67966  1.0000
  H   H355      1.0  0.89958  0.80496  0.76965  1.0000
  H   H356      1.0  0.965  0.91008  0.93563  1.0000
  H   H357      1.0  0.863  0.8837000000000002  0.9736299999999998  1.0000
  H   H358      1.0  0.7311  0.8327700000000001  0.82937  1.0000
  H   H359      1.0  0.42007  0.60229  0.9797099999999997  1.0000
  H   H360      1.0  0.67579  0.55723  0.9653999999999998  1.0000
  H   H361      1.0  0.35575  0.09692  0.7803299999999997  1.0000
  H   H362      1.0  0.27212  0.09156  0.7644999999999997  1.0000
  H   H363      1.0  0.34936  0.10359  0.70533  1.0000
  H   H364      1.0  0.37801  0.17562  0.7251499999999997  1.0000
  H   H365      1.0  0.31195  0.12735  0.85409  1.0000
  H   H366      1.0  0.23844  0.10700999999999998  0.8276099999999997  1.0000
  H   H367      1.0  0.21416  0.16691  0.8899099999999998  1.0000
  H   H368      1.0  0.26347  0.23158000000000004  0.87354  1.0000
  H   H369      1.0  0.39846000000000004  0.19523  0.79928  1.0000
  H   H370      1.0  0.35075  0.23188  0.8382  1.0000
  H   H371      1.0  0.37899000000000005  0.31564  0.79102  1.0000
  H   H372      1.0  0.35642000000000007  0.2717  0.7461  1.0000
  H   H373      1.0  0.11991  0.34097  0.64799  1.0000
  H   H374      1.0  0.08486  0.36583  0.69538  1.0000
  H   H375      1.0  0.09692  0.25402  0.70323  1.0000
  H   H376      1.0  0.17801  0.25363  0.68379  1.0000
  H   H377      1.0  0.20258  0.48622  0.6993  1.0000
  H   H378      1.0  0.12361000000000001  0.47021  0.67796  1.0000
  H   H379      1.0  0.11223  0.50264  0.75054  1.0000
  H   H380      1.0  0.08937  0.42249  0.74661  1.0000
  H   H381      1.0  0.26814  0.42878999999999995  0.65989  1.0000
  H   H382      1.0  0.20321  0.41104000000000007  0.6249899999999998  1.0000
  H   H383      1.0  0.22452  0.2965  0.63181  1.0000
  H   H384      1.0  0.29428  0.33898  0.61506  1.0000
  H   H385      1.0  0.02121  0.72771  0.90544  1.0000
  H   H386      1.0  0.97188  0.7095  0.86194  1.0000
  H   H387      1.0  0.8949200000000002  0.72956  0.9169299999999998  1.0000
  H   H388      1.0  0.93546  0.79908  0.93358  1.0000
  H   H389      1.0  0.09075000000000001  0.8665300000000001  0.86009  1.0000
  H   H390      1.0  0.10839  0.79707  0.88878  1.0000
  H   H391      1.0  0.03219  0.8293099999999999  0.94495  1.0000
  H   H392      1.0  0.09081  0.8890300000000001  0.93439  1.0000
  H   H393      1.0  0.06836  0.81391  0.80337  1.0000
  H   H394      1.0  0.06938  0.73425  0.8212799999999998  1.0000
  H   H395      1.0  0.0024300000000000007  0.74536  0.75803  1.0000
  H   H396      1.0  0.95263  0.72089  0.80032  1.0000
  H   H397      1.0  0.76934  0.0098  0.8553  1.0000
  H   H398      1.0  0.80431  0.04866000000000001  0.89858  1.0000
  H   H399      1.0  0.9072600000000001  0.98563  0.89066  1.0000
  H   H400      1.0  0.8866900000000001  0.01633  0.84119  1.0000
  H   H401      1.0  0.75525  0.9321000000000002  0.9723599999999998  1.0000
  H   H402      1.0  0.75375  0.013670000000000002  0.9611  1.0000
  H   H403      1.0  0.8765700000000001  0.013979999999999998  0.95523  1.0000
  H   H404      1.0  0.84683  0.9871499999999999  0.00435  1.0000
  H   H405      1.0  0.67662  0.98629  0.8993999999999998  1.0000
  H   H406      1.0  0.68398  0.91129  0.92441  1.0000
  H   H407      1.0  0.6416  0.89954  0.85355  1.0000
  H   H408      1.0  0.7104  0.93868  0.8318  1.0000
  H   H409      1.0  0.40325999999999995  0.68409  0.91073  1.0000
  H   H410      1.0  0.39083  0.60187  0.91031  1.0000
  H   H411      1.0  0.52253  0.67101  0.91972  1.0000
  H   H412      1.0  0.49198  0.63912  0.87224  1.0000
  H   H413      1.0  0.68391  0.52364  0.90084  1.0000
  H   H414      1.0  0.61411  0.47469  0.90926  1.0000
  H   H415      1.0  0.59124  0.57384  0.8653699999999998  1.0000
  H   H416      1.0  0.61434  0.6196  0.90939  1.0000
  H   H417      1.0  0.45435  0.53342  0.8737499999999998  1.0000
  H   H418      1.0  0.52335  0.48588  0.8825099999999998  1.0000
  H   H419      1.0  0.4079400000000001  0.50493  0.9418999999999997  1.0000
  H   H420      1.0  0.43842000000000003  0.43344  0.9204499999999998  1.0000
  H   H421      1.0  0.25906  0.8503000000000001  0.19508  1.0000
  H   H422      1.0  0.34293  0.74546  0.35245  1.0000
  H   H423      1.0  0.33778  0.57126  0.30095  1.0000
  H   H424      1.0  0.21352000000000002  0.74059  0.17775  1.0000
  H   H425      1.0  0.60153  0.19522  0.27007  1.0000
  H   H426      1.0  0.53585  0.09085  0.4333799999999999  1.0000
  H   H427      1.0  0.63859  0.11926000000000002  0.47008  1.0000
  H   H428      1.0  0.77075  0.16828  0.3277  1.0000
  H   H429      1.0  0.0516  0.34248  0.4767999999999999  1.0000
  H   H430      1.0  0.82096  0.44274  0.46305  1.0000
  H   H431      1.0  0.1469  0.90224  0.27858  1.0000
  H   H432      1.0  0.23126  0.90862  0.26459  1.0000
  H   H433      1.0  0.15736  0.8956100000000001  0.2037  1.0000
  H   H434      1.0  0.12967  0.8225999999999999  0.22272999999999996  1.0000
  H   H435      1.0  0.19015  0.8727600000000001  0.35326  1.0000
  H   H436      1.0  0.26431  0.8921400000000002  0.32721  1.0000
  H   H437      1.0  0.28766  0.83252  0.3893399999999999  1.0000
  H   H438      1.0  0.23668  0.76867  0.37377  1.0000
  H   H439      1.0  0.10401  0.80495  0.29762  1.0000
  H   H440      1.0  0.15053  0.76876  0.33717  1.0000
  H   H441      1.0  0.12322  0.6843  0.29024  1.0000
  H   H442      1.0  0.14704  0.72754  0.24531  1.0000
  H   H443      1.0  0.38138  0.65774  0.1468  1.0000
  H   H444      1.0  0.4163200000000001  0.63206  0.19397999999999996  1.0000
  H   H445      1.0  0.40598  0.7436  0.20298999999999995  1.0000
  H   H446      1.0  0.3252  0.74589  0.18309  1.0000
  H   H447      1.0  0.29677  0.51358  0.19898  1.0000
  H   H448      1.0  0.37602  0.52823  0.17767  1.0000
  H   H449      1.0  0.38746  0.49711999999999995  0.2502  1.0000
  H   H450      1.0  0.41032  0.57722  0.24598999999999993  1.0000
  H   H451      1.0  0.23148  0.57227  0.15927  1.0000
  H   H452      1.0  0.29681  0.58752  0.1242  1.0000
  H   H453      1.0  0.27934  0.70277  0.13  1.0000
  H   H454      1.0  0.20847  0.66206  0.11339999999999997  1.0000
  H   H455      1.0  0.47935  0.27224  0.4053599999999999  1.0000
  H   H456      1.0  0.52772  0.29139  0.36159  1.0000
  H   H457      1.0  0.60604  0.27041  0.41562  1.0000
  H   H458      1.0  0.56561  0.20089000000000004  0.4323299999999999  1.0000
  H   H459      1.0  0.4086199999999999  0.13485  0.35922  1.0000
  H   H460      1.0  0.39178  0.20398000000000002  0.38858  1.0000
  H   H461      1.0  0.46847000000000005  0.17032  0.444  1.0000
  H   H462      1.0  0.40950000000000003  0.11093  0.43341  1.0000
  H   H463      1.0  0.432  0.18717  0.3025799999999999  1.0000
  H   H464      1.0  0.43128999999999995  0.26686  0.32052  1.0000
  H   H465      1.0  0.49895  0.2554  0.25752  1.0000
  H   H466      1.0  0.54838  0.27943  0.3000599999999999  1.0000
  H   H467      1.0  0.73119  0.9916000000000001  0.35345  1.0000
  H   H468      1.0  0.6968  0.95211  0.39672  1.0000
  H   H469      1.0  0.59322  0.01439  0.38918  1.0000
  H   H470      1.0  0.61393  0.98373  0.3397  1.0000
  H   H471      1.0  0.74461  0.069  0.4707099999999999  1.0000
  H   H472      1.0  0.74474  0.98731  0.45957  1.0000
  H   H473      1.0  0.62219  0.98864  0.45395  1.0000
  H   H474      1.0  0.65251  0.01625  0.50276  1.0000
  H   H475      1.0  0.82392  0.014890000000000002  0.3983699999999999  1.0000
  H   H476      1.0  0.8158  0.0902  0.42308  1.0000
  H   H477      1.0  0.85942  0.10207  0.35287  1.0000
  H   H478      1.0  0.7920100000000001  0.061459999999999994  0.33039  1.0000
  H   H479      1.0  0.09245  0.31457  0.40949999999999986  1.0000
  H   H480      1.0  0.10751000000000001  0.39616  0.40369  1.0000
  H   H481      1.0  0.9740700000000001  0.33065  0.4151199999999999  1.0000
  H   H482      1.0  0.00546  0.36215  0.36794  1.0000
  H   H483      1.0  0.81405  0.47851  0.39876  1.0000
  H   H484      1.0  0.8840800000000001  0.52673  0.40816999999999987  1.0000
  H   H485      1.0  0.905  0.42837  0.36274  1.0000
  H   H486      1.0  0.88366  0.38213  0.4069799999999999  1.0000
  H   H487      1.0  0.04353  0.46864  0.3698299999999999  1.0000
  H   H488      1.0  0.97431  0.51578  0.37884  1.0000
  H   H489      1.0  0.08876  0.49557  0.43878  1.0000
  H   H490      1.0  0.06058000000000001  0.56774  0.41638  1.0000
  H   H491      1.0  0.24772000000000002  0.34935  0.3035  1.0000
  H   H492      1.0  0.15807  0.24608000000000002  0.14831  1.0000
  H   H493      1.0  0.16234  0.07014  0.19898  1.0000
  H   H494      1.0  0.29194  0.23977  0.32004  1.0000
  H   H495      1.0  0.89941  0.69652  0.23050999999999994  1.0000
  H   H496      1.0  0.9648800000000001  0.58853  0.06598999999999997  1.0000
  H   H497      1.0  0.86246  0.61638  0.02677  1.0000
  H   H498      1.0  0.73116  0.66849  0.17078  1.0000
  H   H499      1.0  0.41436  0.89665  0.02272  1.0000
  H   H500      1.0  0.67557  0.9438199999999999  0.03456999999999998  1.0000
  H   H501      1.0  0.35487  0.40421999999999997  0.21901  1.0000
  H   H502      1.0  0.27122  0.40904999999999997  0.23476  1.0000
  H   H503      1.0  0.34853  0.3983300000000001  0.29389  1.0000
  H   H504      1.0  0.3775  0.32613  0.27458  1.0000
  H   H505      1.0  0.31125  0.37298  0.14533  1.0000
  H   H506      1.0  0.23744  0.39247  0.17177  1.0000
  H   H507      1.0  0.21402000000000002  0.33168  0.10971  1.0000
  H   H508      1.0  0.2644  0.26793  0.12618  1.0000
  H   H509      1.0  0.39849000000000007  0.30618  0.20048  1.0000
  H   H510      1.0  0.35128  0.2689  0.16158  1.0000
  H   H511      1.0  0.37962  0.18557  0.20902  1.0000
  H   H512      1.0  0.35677  0.22974  0.25379  1.0000
  H   H513      1.0  0.12000000000000001  0.15923  0.3517  1.0000
  H   H514      1.0  0.08535  0.13355  0.30442999999999987  1.0000
  H   H515      1.0  0.09678  0.24514  0.29574  1.0000
  H   H516      1.0  0.17768  0.24657  0.31539  1.0000
  H   H517      1.0  0.20382  0.01391  0.30123  1.0000
  H   H518      1.0  0.12488  0.02961  0.32268  1.0000
  H   H519      1.0  0.11303  0.99624  0.25046  1.0000
  H   H520      1.0  0.09014  0.07641  0.25383  1.0000
  H   H521      1.0  0.26909  0.07264  0.34035  1.0000
  H   H522      1.0  0.20386000000000004  0.08986  0.3751  1.0000
  H   H523      1.0  0.22387  0.20478  0.36772  1.0000
  H   H524      1.0  0.29379  0.16322  0.3849599999999999  1.0000
  H   H525      1.0  0.02167  0.77103  0.0942  1.0000
  H   H526      1.0  0.97367  0.79106  0.138  1.0000
  H   H527      1.0  0.89523  0.7703800000000001  0.08382  1.0000
  H   H528      1.0  0.9346100000000002  0.70002  0.06775999999999997  1.0000
  H   H529      1.0  0.09092000000000001  0.63337  0.14088  1.0000
  H   H530      1.0  0.10869000000000001  0.70207  0.11138999999999998  1.0000
  H   H531      1.0  0.03186  0.66872  0.0559  1.0000
  H   H532      1.0  0.09045  0.60913  0.06674999999999998  1.0000
  H   H533      1.0  0.0683  0.68643  0.19725999999999994  1.0000
  H   H534      1.0  0.07016  0.7658800000000001  0.17893  1.0000
  H   H535      1.0  0.0026  0.7556799999999999  0.24219  1.0000
  H   H536      1.0  0.9534500000000001  0.7802999999999999  0.19970999999999994  1.0000
  H   H537      1.0  0.76861  0.49111  0.14543999999999996  1.0000
  H   H538      1.0  0.80255  0.45153000000000004  0.10212  1.0000
  H   H539      1.0  0.90662  0.51353  0.10953  1.0000
  H   H540      1.0  0.8858900000000001  0.48323999999999995  0.15911  1.0000
  H   H541      1.0  0.75521  0.56841  0.02822  1.0000
  H   H542      1.0  0.75291  0.48681  0.03953  1.0000
  H   H543      1.0  0.87603  0.48611000000000004  0.04537  1.0000
  H   H544      1.0  0.8461300000000002  0.51269  0.99635  1.0000
  H   H545      1.0  0.6762  0.51441  0.10145  1.0000
  H   H546      1.0  0.68367  0.58902  0.07598  1.0000
  H   H547      1.0  0.64125  0.60191  0.14671  1.0000
  H   H548      1.0  0.70981  0.56287  0.16876  1.0000
  H   H549      1.0  0.40469  0.8147699999999999  0.09173  1.0000
  H   H550      1.0  0.39124  0.8968300000000001  0.09189  1.0000
  H   H551      1.0  0.52341  0.82899  0.08170999999999998  1.0000
  H   H552      1.0  0.49356  0.8613399999999999  0.12924  1.0000
  H   H553      1.0  0.68406  0.9778000000000001  0.09909  1.0000
  H   H554      1.0  0.61397  0.026249999999999996  0.09078  1.0000
  H   H555      1.0  0.59225  0.9271200000000002  0.13487999999999994  1.0000
  H   H556      1.0  0.61521  0.88135  0.09082999999999997  1.0000
  H   H557      1.0  0.45501  0.96705  0.127  1.0000
  H   H558      1.0  0.52375  0.01464  0.11765  1.0000
  H   H559      1.0  0.40786  0.9944699999999999  0.05891  1.0000
  H   H560      1.0  0.43875000000000003  0.06637  0.07950999999999997  1.0000
  W   W1        1.0  0.57804  0.47230999999999995  0.25723  1.0000
  W   W2        1.0  0.9238  0.97224  0.24417999999999995  1.0000
  W   W3        1.0  0.57816  0.02758  0.74279  1.0000
  W   W4        1.0  0.92302  0.52832  0.75663  1.0000
  W   W5        1.0  0.42377  0.52765  0.74372  1.0000
  W   W6        1.0  0.07812  0.027269999999999996  0.75733  1.0000
  W   W7        1.0  0.42302  0.97172  0.25696  1.0000
  W   W8        1.0  0.07822  0.4722100000000001  0.24231  1.0000
  W   W9        1.0  0.18015  0.74969  0.50006  1.0000
  W   W10       1.0  0.3216  0.24957999999999997  0.9996099999999999  1.0000
  W   W11       1.0  0.82196  0.24941000000000002  0.49974  1.0000
  W   W12       1.0  0.68075  0.74964  0.0003999999999999999  1.0000
  C   C1        1.0  0.62925  0.38568  0.25772  1.0000
  C   C2        1.0  0.65007  0.54483  0.25864  1.0000
  C   C3        1.0  0.52489  0.53756  0.29451  1.0000
  C   C4        1.0  0.50705  0.42364  0.22053  1.0000
  C   C5        1.0  0.51771  0.4171  0.29833  1.0000
  C   C6        1.0  0.63094  0.47112  0.31514  1.0000
  C   C7        1.0  0.63223  0.45727000000000007  0.20037  1.0000
  C   C8        1.0  0.54029  0.54208  0.21504999999999994  1.0000
  C   C9        1.0  0.2527  0.70559  0.46321  1.0000
  C   C10       1.0  0.10664000000000001  0.82098  0.50111  1.0000
  C   C11       1.0  0.22107  0.83121  0.47018  1.0000
  C   C12       1.0  0.13981  0.74869  0.43815  1.0000
  C   C13       1.0  0.81364  0.37776000000000004  0.26729  1.0000
  C   C14       1.0  0.8345800000000001  0.35654  0.22396  1.0000
  C   C15       1.0  0.76948  0.35398  0.33595  1.0000
  C   C16       1.0  0.73196  0.30691  0.36243  1.0000
  C   C17       1.0  0.8515300000000001  0.2819  0.30504  1.0000
  C   C18       1.0  0.8455000000000001  0.22194  0.27925  1.0000
  C   C19       1.0  0.63013  0.15417  0.18091999999999994  1.0000
  C   C20       1.0  0.6429  0.21802999999999997  0.20133  1.0000
  C   C21       1.0  0.66214  0.04592  0.19996999999999995  1.0000
  C   C22       1.0  0.63221  0.04524  0.24348999999999996  1.0000
  C   C23       1.0  0.73141  0.10679  0.15204999999999994  1.0000
  C   C24       1.0  0.7621500000000001  0.17035  0.14156  1.0000
  C   C25       1.0  0.48557000000000006  0.75243  0.38402  1.0000
  C   C26       1.0  0.424  0.72937  0.40637  1.0000
  C   C27       1.0  0.5698  0.66828  0.38091  1.0000
  C   C28       1.0  0.54801  0.63435  0.4206  1.0000
  C   C29       1.0  0.53851  0.72487  0.3173199999999999  1.0000
  C   C30       1.0  0.4815  0.74111  0.28867  1.0000
  C   C31       1.0  0.30186  0.4965  0.38112  1.0000
  C   C32       1.0  0.36965000000000003  0.5154  0.36561  1.0000
  C   C33       1.0  0.27933  0.53027  0.45406999999999986  1.0000
  C   C34       1.0  0.349  0.52275  0.47038999999999986  1.0000
  C   C35       1.0  0.20322  0.55909  0.39903  1.0000
  C   C36       1.0  0.19416  0.59238  0.35749  1.0000
  C   C37       1.0  0.9199299999999999  0.86908  0.42231  1.0000
  C   C38       1.0  0.99002  0.86935  0.40629  1.0000
  C   C39       1.0  0.13747  0.9785100000000001  0.41619  1.0000
  C   C40       1.0  0.09392  0.92518  0.40025  1.0000
  C   C41       1.0  0.9911800000000001  0.9855000000000002  0.39717999999999987  1.0000
  C   C42       1.0  0.95544  0.023  0.43094  1.0000
  C   C43       1.0  0.87148  0.88619  0.2442  1.0000
  C   C44       1.0  0.85137  0.04447  0.24246999999999994  1.0000
  C   C45       1.0  0.9758000000000001  0.03722  0.20611  1.0000
  C   C46       1.0  0.99516  0.924  0.28085  1.0000
  C   C47       1.0  0.98445  0.9168900000000001  0.20343999999999995  1.0000
  C   C48       1.0  0.87104  0.9700700000000001  0.18617999999999996  1.0000
  C   C49       1.0  0.8716  0.9576500000000001  0.30192  1.0000
  C   C50       1.0  0.96202  0.04278  0.28561  1.0000
  C   C51       1.0  0.24931  0.21142  0.041739999999999985  1.0000
  C   C52       1.0  0.3922800000000001  0.32414  0.00386  1.0000
  C   C53       1.0  0.27603  0.33306  0.02562  1.0000
  C   C54       1.0  0.36726  0.24086  0.06  1.0000
  C   C55       1.0  0.68683  0.8767100000000001  0.23304  1.0000
  C   C56       1.0  0.6653  0.8549500000000001  0.2761  1.0000
  C   C57       1.0  0.73215  0.8538  0.16466  1.0000
  C   C58       1.0  0.77174  0.80766  0.13870999999999994  1.0000
  C   C59       1.0  0.65084  0.78038  0.19504  1.0000
  C   C60       1.0  0.6573399999999999  0.72037  0.22067  1.0000
  C   C61       1.0  0.87182  0.65403  0.31933  1.0000
  C   C62       1.0  0.85895  0.71826  0.29948  1.0000
  C   C63       1.0  0.84008  0.5458  0.29976999999999987  1.0000
  C   C64       1.0  0.8692200000000001  0.54527  0.25604  1.0000
  C   C65       1.0  0.7708  0.60597  0.34801  1.0000
  C   C66       1.0  0.73989  0.66933  0.35855  1.0000
  C   C67       1.0  0.01507  0.25235  0.11678  1.0000
  C   C68       1.0  0.0773  0.22968000000000002  0.09506  1.0000
  C   C69       1.0  0.9310900000000001  0.16795  0.11865  1.0000
  C   C70       1.0  0.9540500000000001  0.1351  0.07875999999999997  1.0000
  C   C71       1.0  0.96147  0.22351000000000001  0.18303999999999995  1.0000
  C   C72       1.0  0.01835  0.23952  0.21192  1.0000
  C   C73       1.0  0.19866  0.99673  0.11904  1.0000
  C   C74       1.0  0.13065  0.01546  0.13418  1.0000
  C   C75       1.0  0.22215  0.03222  0.04666  1.0000
  C   C76       1.0  0.15259  0.027000000000000003  0.02985  1.0000
  C   C77       1.0  0.29788  0.05901  0.10226999999999997  1.0000
  C   C78       1.0  0.3066  0.09137  0.14417  1.0000
  C   C79       1.0  0.57768  0.36299  0.07950999999999997  1.0000
  C   C80       1.0  0.50737  0.36752  0.09514  1.0000
  C   C81       1.0  0.36156  0.47768  0.08621  1.0000
  C   C82       1.0  0.40526  0.42461  0.10199  1.0000
  C   C83       1.0  0.50903  0.4838199999999999  0.10487  1.0000
  C   C84       1.0  0.54413  0.52183  0.0712  1.0000
  C   C85       1.0  0.62991  0.11397  0.74265  1.0000
  C   C86       1.0  0.65012  0.95513  0.74101  1.0000
  C   C87       1.0  0.52517  0.96265  0.70533  1.0000
  C   C88       1.0  0.50688  0.07584  0.77951  1.0000
  C   C89       1.0  0.51781  0.08269  0.7017999999999998  1.0000
  C   C90       1.0  0.63121  0.02941  0.68486  1.0000
  C   C91       1.0  0.63161  0.04208  0.79995  1.0000
  C   C92       1.0  0.54009  0.95734  0.78459  1.0000
  C   C93       1.0  0.25259  0.79335  0.5372  1.0000
  C   C94       1.0  0.10729  0.67779  0.49827  1.0000
  C   C95       1.0  0.22032000000000002  0.66824  0.53047  1.0000
  C   C96       1.0  0.13938  0.75118  0.56182  1.0000
  C   C97       1.0  0.81468  0.12342  0.73293  1.0000
  C   C98       1.0  0.83523  0.1449  0.77626  1.0000
  C   C99       1.0  0.77084  0.14694  0.66426  1.0000
  C   C100      1.0  0.73318  0.19407  0.638  1.0000
  C   C101      1.0  0.85198  0.21975  0.69525  1.0000
  C   C102      1.0  0.8454  0.27966  0.72111  1.0000
  C   C103      1.0  0.62916  0.34587  0.8191999999999998  1.0000
  C   C104      1.0  0.64223  0.28177  0.7992199999999998  1.0000
  C   C105      1.0  0.6606700000000001  0.45428  0.80001  1.0000
  C   C106      1.0  0.6314  0.45502  0.75635  1.0000
  C   C107      1.0  0.73015  0.39396999999999993  0.84793  1.0000
  C   C108      1.0  0.76152  0.3308  0.8584799999999998  1.0000
  C   C109      1.0  0.48551  0.74738  0.6168599999999997  1.0000
  C   C110      1.0  0.42385  0.77029  0.59461  1.0000
  C   C111      1.0  0.57025  0.83121  0.61932  1.0000
  C   C112      1.0  0.54828  0.8645199999999998  0.57949  1.0000
  C   C113      1.0  0.53856  0.77585  0.68333  1.0000
  C   C114      1.0  0.48145  0.7601700000000001  0.7121  1.0000
  C   C115      1.0  0.30089  0.00248  0.61908  1.0000
  C   C116      1.0  0.36883  0.98414  0.63449  1.0000
  C   C117      1.0  0.27922  0.9683000000000002  0.54619  1.0000
  C   C118      1.0  0.3492  0.97548  0.53029  1.0000
  C   C119      1.0  0.2026  0.93943  0.60112  1.0000
  C   C120      1.0  0.19354000000000002  0.9059100000000001  0.64261  1.0000
  C   C121      1.0  0.92074  0.63962  0.57572  1.0000
  C   C122      1.0  0.9905199999999998  0.63364  0.5921199999999998  1.0000
  C   C123      1.0  0.13399  0.52085  0.58402  1.0000
  C   C124      1.0  0.09114  0.57436  0.6001199999999998  1.0000
  C   C125      1.0  0.98599  0.51752  0.60119  1.0000
  C   C126      1.0  0.95143  0.48072000000000004  0.56669  1.0000
  C   C127      1.0  0.87323  0.6156  0.75775  1.0000
  C   C128      1.0  0.85093  0.45566  0.7582199999999998  1.0000
  C   C129      1.0  0.9745900000000001  0.46227  0.79409  1.0000
  C   C130      1.0  0.99337  0.57723  0.71939  1.0000
  C   C131      1.0  0.9846300000000001  0.5826  0.79741  1.0000
  C   C132      1.0  0.87  0.53011  0.81456  1.0000
  C   C133      1.0  0.86739  0.54406  0.70042  1.0000
  C   C134      1.0  0.9610800000000002  0.45912000000000003  0.71419  1.0000
  C   C135      1.0  0.24826  0.28766  0.95794  1.0000
  C   C136      1.0  0.39233  0.17497  0.9953599999999998  1.0000
  C   C137      1.0  0.27599  0.16576  0.97389  1.0000
  C   C138      1.0  0.36673  0.25858  0.93898  1.0000
  C   C139      1.0  0.6887600000000001  0.62431  0.76611  1.0000
  C   C140      1.0  0.66978  0.64529  0.72233  1.0000
  C   C141      1.0  0.73182  0.64727  0.83524  1.0000
  C   C142      1.0  0.77016  0.69351  0.8619499999999998  1.0000
  C   C143      1.0  0.65097  0.72013  0.8041  1.0000
  C   C144      1.0  0.65773  0.78041  0.77875  1.0000
  C   C145      1.0  0.87236  0.84727  0.6806799999999997  1.0000
  C   C146      1.0  0.85971  0.78303  0.7006  1.0000
  C   C147      1.0  0.84002  0.95529  0.7002299999999998  1.0000
  C   C148      1.0  0.8691299999999998  0.95599  0.7439399999999998  1.0000
  C   C149      1.0  0.77108  0.89488  0.6519  1.0000
  C   C150      1.0  0.74138  0.83132  0.64032  1.0000
  C   C151      1.0  0.01423  0.24684999999999999  0.88341  1.0000
  C   C152      1.0  0.07645  0.26968  0.90501  1.0000
  C   C153      1.0  0.92996  0.33091  0.88087  1.0000
  C   C154      1.0  0.9522  0.36473  0.9204999999999998  1.0000
  C   C155      1.0  0.9614000000000001  0.27499  0.8168699999999998  1.0000
  C   C156      1.0  0.01861  0.25888  0.78826  1.0000
  C   C157      1.0  0.19751000000000002  0.50247  0.88129  1.0000
  C   C158      1.0  0.12917  0.48466  0.86617  1.0000
  C   C159      1.0  0.21951  0.46649  0.9537499999999998  1.0000
  C   C160      1.0  0.1497  0.47159  0.97025  1.0000
  C   C161      1.0  0.29612  0.4396  0.8985399999999998  1.0000
  C   C162      1.0  0.30533  0.40746  0.85659  1.0000
  C   C163      1.0  0.57787  0.13633  0.92059  1.0000
  C   C164      1.0  0.50773  0.13118  0.9047699999999997  1.0000
  C   C165      1.0  0.36194  0.02068  0.9138099999999998  1.0000
  C   C166      1.0  0.40571  0.07379  0.89804  1.0000
  C   C167      1.0  0.50964  0.01477  0.89544  1.0000
  C   C168      1.0  0.54443  0.97696  0.92927  1.0000
  C   C169      1.0  0.37298  0.61436  0.7432  1.0000
  C   C170      1.0  0.35095  0.45567  0.74213  1.0000
  C   C171      1.0  0.47564000000000006  0.46193  0.7061299999999998  1.0000
  C   C172      1.0  0.49470000000000003  0.5762  0.7806299999999998  1.0000
  C   C173      1.0  0.48489  0.58259  0.70297  1.0000
  C   C174      1.0  0.37139  0.52938  0.68556  1.0000
  C   C175      1.0  0.36987  0.54292  0.8007399999999998  1.0000
  C   C176      1.0  0.46135000000000004  0.45772000000000007  0.7857199999999998  1.0000
  C   C177      1.0  0.74929  0.28775  0.54178  1.0000
  C   C178      1.0  0.89255  0.17488  0.50435  1.0000
  C   C179      1.0  0.77634  0.16593  0.52584  1.0000
  C   C180      1.0  0.8675399999999999  0.25928  0.5601  1.0000
  C   C181      1.0  0.18817000000000003  0.62223  0.7333799999999998  1.0000
  C   C182      1.0  0.16819  0.64396  0.77679  1.0000
  C   C183      1.0  0.2332  0.64552  0.6648999999999998  1.0000
  C   C184      1.0  0.27185  0.69221  0.63873  1.0000
  C   C185      1.0  0.15118  0.71799  0.69531  1.0000
  C   C186      1.0  0.15736  0.7782799999999999  0.7207399999999998  1.0000
  C   C187      1.0  0.37117000000000006  0.84682  0.8195799999999998  1.0000
  C   C188      1.0  0.35892  0.78261  0.79957  1.0000
  C   C189      1.0  0.33871  0.9545000000000001  0.7995999999999998  1.0000
  C   C190      1.0  0.36841  0.95472  0.756  1.0000
  C   C191      1.0  0.26954  0.89419  0.84793  1.0000
  C   C192      1.0  0.23956  0.83067  0.85933  1.0000
  C   C193      1.0  0.51478  0.24603999999999998  0.61703  1.0000
  C   C194      1.0  0.57685  0.26888  0.59518  1.0000
  C   C195      1.0  0.43009  0.32976  0.6195199999999997  1.0000
  C   C196      1.0  0.4521800000000001  0.36283  0.57962  1.0000
  C   C197      1.0  0.4617  0.2744  0.68351  1.0000
  C   C198      1.0  0.51886  0.25854  0.71212  1.0000
  C   C199      1.0  0.69762  0.50172  0.6195  1.0000
  C   C200      1.0  0.6301  0.48256  0.63534  1.0000
  C   C201      1.0  0.71941  0.46685  0.54677  1.0000
  C   C202      1.0  0.64943  0.47185  0.53057  1.0000
  C   C203      1.0  0.79677  0.44023000000000007  0.60156  1.0000
  C   C204      1.0  0.8067  0.40808  0.64342  1.0000
  C   C205      1.0  0.07786  0.13685  0.57945  1.0000
  C   C206      1.0  0.007700000000000002  0.13159  0.5953099999999998  1.0000
  C   C207      1.0  0.86228  0.02066  0.58615  1.0000
  C   C208      1.0  0.9058  0.07398  0.60189  1.0000
  C   C209      1.0  0.01003  0.01533  0.60472  1.0000
  C   C210      1.0  0.04446  0.97722  0.5708199999999998  1.0000
  C   C211      1.0  0.12973  0.11377  0.75768  1.0000
  C   C212      1.0  0.14971  0.95443  0.7586499999999998  1.0000
  C   C213      1.0  0.02517  0.9623700000000001  0.7949399999999998  1.0000
  C   C214      1.0  0.007070000000000001  0.07585  0.72066  1.0000
  C   C215      1.0  0.01787  0.08235  0.79848  1.0000
  C   C216      1.0  0.13148  0.028639999999999995  0.81509  1.0000
  C   C217      1.0  0.13181  0.0419  0.70024  1.0000
  C   C218      1.0  0.03989000000000001  0.9573299999999999  0.7154199999999997  1.0000
  C   C219      1.0  0.7528700000000002  0.79379  0.9633499999999998  1.0000
  C   C220      1.0  0.60763  0.67793  0.00184  1.0000
  C   C221      1.0  0.7211  0.66792  0.9704  1.0000
  C   C222      1.0  0.64049  0.75045  0.9385299999999998  1.0000
  C   C223      1.0  0.31431000000000003  0.12332999999999998  0.76703  1.0000
  C   C224      1.0  0.33499  0.14503  0.72377  1.0000
  C   C225      1.0  0.27084  0.1462  0.83593  1.0000
  C   C226      1.0  0.23261000000000004  0.1926  0.8625  1.0000
  C   C227      1.0  0.35171  0.21937  0.80498  1.0000
  C   C228      1.0  0.34523  0.27931  0.77921  1.0000
  C   C229      1.0  0.12925  0.34555  0.68166  1.0000
  C   C230      1.0  0.14255  0.28155  0.70171  1.0000
  C   C231      1.0  0.16051  0.45412  0.7006  1.0000
  C   C232      1.0  0.13106  0.45495  0.74422  1.0000
  C   C233      1.0  0.22999000000000003  0.39398  0.6526199999999998  1.0000
  C   C234      1.0  0.26145  0.33093  0.64184  1.0000
  C   C235      1.0  0.9852400000000001  0.74747  0.8834999999999997  1.0000
  C   C236      1.0  0.92376  0.77028  0.90611  1.0000
  C   C237      1.0  0.06976  0.8314599999999999  0.8813699999999998  1.0000
  C   C238      1.0  0.04799  0.86402  0.92155  1.0000
  C   C239      1.0  0.03861  0.77629  0.8171499999999998  1.0000
  C   C240      1.0  0.9817800000000001  0.7604000000000001  0.78825  1.0000
  C   C241      1.0  0.8025699999999999  0.00349  0.88179  1.0000
  C   C242      1.0  0.87004  0.98414  0.86599  1.0000
  C   C243      1.0  0.78003  0.9693300000000001  0.9546099999999997  1.0000
  C   C244      1.0  0.84981  0.97592  0.97085  1.0000
  C   C245      1.0  0.70352  0.9414799999999999  0.89955  1.0000
  C   C246      1.0  0.69425  0.90879  0.8578  1.0000
  C   C247      1.0  0.42255  0.63931  0.92277  1.0000
  C   C248      1.0  0.4923  0.63331  0.9064399999999998  1.0000
  C   C249      1.0  0.63569  0.52091  0.91608  1.0000
  C   C250      1.0  0.59315  0.57434  0.8997299999999998  1.0000
  C   C251      1.0  0.48830000000000007  0.51708  0.8979599999999998  1.0000
  C   C252      1.0  0.45291  0.48027000000000003  0.9320999999999998  1.0000
  C   C253      1.0  0.37374000000000007  0.88428  0.25848  1.0000
  C   C254      1.0  0.3514  0.0447  0.2581  1.0000
  C   C255      1.0  0.47502  0.03764  0.29415999999999987  1.0000
  C   C256      1.0  0.49355000000000004  0.9222800000000001  0.22022999999999995  1.0000
  C   C257      1.0  0.4842000000000001  0.9180100000000001  0.29832  1.0000
  C   C258      1.0  0.36953  0.9707  0.3147  1.0000
  C   C259      1.0  0.36753  0.95509  0.20074  1.0000
  C   C260      1.0  0.46138000000000007  0.04047  0.21425  1.0000
  C   C261      1.0  0.7487800000000001  0.21117000000000002  0.45804  1.0000
  C   C262      1.0  0.89455  0.32247  0.49448  1.0000
  C   C263      1.0  0.77664  0.33291  0.4738499999999999  1.0000
  C   C264      1.0  0.86725  0.23926000000000003  0.43913999999999986  1.0000
  C   C265      1.0  0.18937  0.87634  0.26612  1.0000
  C   C266      1.0  0.17179  0.8544399999999999  0.22234  1.0000
  C   C267      1.0  0.23135  0.85332  0.33537  1.0000
  C   C268      1.0  0.26852  0.8065800000000001  0.36226999999999987  1.0000
  C   C269      1.0  0.15051  0.7807199999999999  0.30388  1.0000
  C   C270      1.0  0.1574  0.72039  0.27857  1.0000
  C   C271      1.0  0.37216  0.65302  0.18049  1.0000
  C   C272      1.0  0.35984  0.71693  0.20088  1.0000
  C   C273      1.0  0.33921  0.54522  0.20011  1.0000
  C   C274      1.0  0.36863  0.54474  0.24374999999999994  1.0000
  C   C275      1.0  0.2706  0.60593  0.15171  1.0000
  C   C276      1.0  0.24122000000000002  0.66971  0.14027  1.0000
  C   C277      1.0  0.51495  0.253  0.3829599999999999  1.0000
  C   C278      1.0  0.5768  0.22994  0.40488  1.0000
  C   C279      1.0  0.43005  0.16943  0.38067  1.0000
  C   C280      1.0  0.4521800000000001  0.13606  0.42045  1.0000
  C   C281      1.0  0.46181  0.22462  0.3165  1.0000
  C   C282      1.0  0.51907  0.24018  0.28781  1.0000
  C   C283      1.0  0.69806  0.9974  0.38008  1.0000
  C   C284      1.0  0.63036  0.01612  0.36444  1.0000
  C   C285      1.0  0.71942  0.03211  0.45291  1.0000
  C   C286      1.0  0.64949  0.026710000000000005  0.46917  1.0000
  C   C287      1.0  0.79683  0.05961000000000001  0.39827  1.0000
  C   C288      1.0  0.8068  0.09193  0.35644  1.0000
  C   C289      1.0  0.07473  0.36176  0.4184499999999999  1.0000
  C   C290      1.0  0.0051  0.36811  0.40212  1.0000
  C   C291      1.0  0.86202  0.48049  0.41438  1.0000
  C   C292      1.0  0.90445  0.42747000000000007  0.39711  1.0000
  C   C293      1.0  0.009570000000000002  0.48468000000000006  0.39415  1.0000
  C   C294      1.0  0.04502  0.52141  0.42835  1.0000
  C   C295      1.0  0.12937  0.3856  0.2417  1.0000
  C   C296      1.0  0.14984000000000003  0.54507  0.24065999999999996  1.0000
  C   C297      1.0  0.024859999999999997  0.53714  0.20517  1.0000
  C   C298      1.0  0.00703  0.42367000000000005  0.27895  1.0000
  C   C299      1.0  0.01794  0.41694999999999993  0.20125  1.0000
  C   C300      1.0  0.13127  0.471  0.18443  1.0000
  C   C301      1.0  0.13224  0.45720999999999995  0.29921  1.0000
  C   C302      1.0  0.04026  0.54224  0.28429  1.0000
  C   C303      1.0  0.75308  0.70598  0.037429999999999984  1.0000
  C   C304      1.0  0.60756  0.8211499999999999  0.99883  1.0000
  C   C305      1.0  0.7207  0.83159  0.03044  1.0000
  C   C306      1.0  0.64004  0.74865  0.06216999999999999  1.0000
  C   C307      1.0  0.31363  0.37757  0.23240999999999995  1.0000
  C   C308      1.0  0.33434  0.35652  0.27579  1.0000
  C   C309      1.0  0.27042  0.35368  0.16358  1.0000
  C   C310      1.0  0.23292999999999997  0.30648  0.13718  1.0000
  C   C311      1.0  0.352  0.28159  0.19477  1.0000
  C   C312      1.0  0.34573  0.22183  0.22070999999999993  1.0000
  C   C313      1.0  0.12957  0.15426  0.31807  1.0000
  C   C314      1.0  0.1426  0.21801  0.29764  1.0000
  C   C315      1.0  0.16154  0.04569  0.29984  1.0000
  C   C316      1.0  0.13185  0.04407  0.25631  1.0000
  C   C317      1.0  0.23054  0.10708  0.3474299999999999  1.0000
  C   C318      1.0  0.26124  0.17061  0.358  1.0000
  C   C319      1.0  0.98591  0.75236  0.11673  1.0000
  C   C320      1.0  0.92373  0.72971  0.09495  1.0000
  C   C321      1.0  0.06995  0.66796  0.11929  1.0000
  C   C322      1.0  0.04782  0.63449  0.07953  1.0000
  C   C323      1.0  0.039  0.7241  0.18321  1.0000
  C   C324      1.0  0.9821100000000001  0.74063  0.21194  1.0000
  C   C325      1.0  0.80169  0.49681  0.11879  1.0000
  C   C326      1.0  0.8695000000000002  0.51547  0.13428  1.0000
  C   C327      1.0  0.77957  0.53103  0.04602  1.0000
  C   C328      1.0  0.84935  0.5242  0.02978  1.0000
  C   C329      1.0  0.70317  0.55923  0.10103  1.0000
  C   C330      1.0  0.69389  0.59248  0.14258  1.0000
  C   C331      1.0  0.42323  0.85971  0.07936  1.0000
  C   C332      1.0  0.4932  0.86665  0.09502  1.0000
  C   C333      1.0  0.6358  0.98019  0.08390999999999997  1.0000
  C   C334      1.0  0.59373  0.92644  0.1005  1.0000
  C   C335      1.0  0.4887  0.98309  0.1025  1.0000
  C   C336      1.0  0.45302  0.01928  0.06823  1.0000
  N   N1        1.0  0.66159  0.34017  0.25719  1.0000
  N   N2        1.0  0.68938  0.58482  0.2608  1.0000
  N   N3        1.0  0.49734  0.57243  0.31668  1.0000
  N   N4        1.0  0.46784  0.39749  0.19996999999999995  1.0000
  N   N5        1.0  0.4834300000000001  0.38770999999999994  0.32047  1.0000
  N   N6        1.0  0.66221  0.47339  0.3459  1.0000
  N   N7        1.0  0.6632600000000001  0.44510999999999995  0.17049  1.0000
  N   N8        1.0  0.5202  0.58045  0.19195  1.0000
  N   N9        1.0  0.29253  0.67925  0.4431299999999999  1.0000
  N   N10       1.0  0.07029  0.86333  0.49728  1.0000
  N   N11       1.0  0.24103  0.87911  0.4567  1.0000
  N   N12       1.0  0.11673000000000001  0.74918  0.40459  1.0000
  N   N13       1.0  0.79535  0.32595  0.2964  1.0000
  N   N14       1.0  0.6861800000000001  0.10995  0.1883  1.0000
  N   N15       1.0  0.51587  0.70086  0.35865999999999987  1.0000
  N   N16       1.0  0.27364  0.54659  0.4090299999999999  1.0000
  N   N17       1.0  0.025160000000000002  0.9293399999999999  0.4157299999999999  1.0000
  N   N18       1.0  0.83832  0.84116  0.24498999999999996  1.0000
  N   N19       1.0  0.81235  0.08462  0.23977  1.0000
  N   N20       1.0  0.00248  0.07173  0.18327  1.0000
  N   N21       1.0  0.0346  0.89819  0.3014  1.0000
  N   N22       1.0  0.0192  0.88771  0.18148  1.0000
  N   N23       1.0  0.8399600000000002  0.97184  0.15535  1.0000
  N   N24       1.0  0.84247  0.94553  0.33256  1.0000
  N   N25       1.0  0.9822700000000001  0.08152  0.30841  1.0000
  N   N26       1.0  0.20958999999999997  0.18126  0.05978999999999999  1.0000
  N   N27       1.0  0.42908  0.36672  0.00532  1.0000
  N   N28       1.0  0.25925  0.38186999999999993  0.03983  1.0000
  N   N29       1.0  0.38811  0.24135  0.09433  1.0000
  N   N30       1.0  0.7062300000000001  0.82522  0.20401  1.0000
  N   N31       1.0  0.8159000000000001  0.60966  0.3117  1.0000
  N   N32       1.0  0.98439  0.20035  0.14159  1.0000
  N   N33       1.0  0.22755000000000003  0.047209999999999995  0.09183  1.0000
  N   N34       1.0  0.47373  0.42864  0.08583  1.0000
  N   N35       1.0  0.66266  0.15927  0.74341  1.0000
  N   N36       1.0  0.68922  0.9150299999999999  0.73846  1.0000
  N   N37       1.0  0.49752  0.92799  0.68308  1.0000
  N   N38       1.0  0.46742  0.1017  0.80006  1.0000
  N   N39       1.0  0.48328999999999994  0.1116  0.67958  1.0000
  N   N40       1.0  0.66257  0.02764  0.6541  1.0000
  N   N41       1.0  0.66206  0.05382  0.83012  1.0000
  N   N42       1.0  0.51983  0.9187  0.80748  1.0000
  N   N43       1.0  0.29254  0.8191699999999998  0.55749  1.0000
  N   N44       1.0  0.07178  0.6346  0.50149  1.0000
  N   N45       1.0  0.23945  0.62025  0.54425  1.0000
  N   N46       1.0  0.11659  0.75118  0.59549  1.0000
  N   N47       1.0  0.79623  0.1751  0.7038499999999998  1.0000
  N   N48       1.0  0.68501  0.39035999999999993  0.81167  1.0000
  N   N49       1.0  0.51612  0.79922  0.6418299999999998  1.0000
  N   N50       1.0  0.27301  0.95223  0.59121  1.0000
  N   N51       1.0  0.0232  0.57216  0.58298  1.0000
  N   N52       1.0  0.8412399999999999  0.66131  0.75753  1.0000
  N   N53       1.0  0.8114900000000002  0.41583  0.7606499999999998  1.0000
  N   N54       1.0  0.0010000000000000005  0.42699  0.8164399999999998  1.0000
  N   N55       1.0  0.03243  0.60344  0.6987  1.0000
  N   N56       1.0  0.01938  0.61195  0.81927  1.0000
  N   N57       1.0  0.8387200000000001  0.52811  0.84537  1.0000
  N   N58       1.0  0.83544  0.55717  0.67114  1.0000
  N   N59       1.0  0.98185  0.42116  0.69099  1.0000
  N   N60       1.0  0.20792  0.31778  0.94049  1.0000
  N   N61       1.0  0.42912  0.13237  0.99431  1.0000
  N   N62       1.0  0.25932  0.11669  0.96002  1.0000
  N   N63       1.0  0.3873  0.2584  0.90456  1.0000
  N   N64       1.0  0.70696  0.67582  0.79557  1.0000
  N   N65       1.0  0.81611  0.8912800000000001  0.68824  1.0000
  N   N66       1.0  0.9837800000000001  0.29858  0.85832  1.0000
  N   N67       1.0  0.22566  0.45174000000000003  0.90856  1.0000
  N   N68       1.0  0.47414  0.07  0.91428  1.0000
  N   N69       1.0  0.34078  0.65997  0.74378  1.0000
  N   N70       1.0  0.31137  0.41593  0.73972  1.0000
  N   N71       1.0  0.50218  0.4268199999999999  0.6836399999999998  1.0000
  N   N72       1.0  0.53395  0.60231  0.80121  1.0000
  N   N73       1.0  0.51946  0.61211  0.68107  1.0000
  N   N74       1.0  0.34063  0.52726  0.65458  1.0000
  N   N75       1.0  0.33926  0.55541  0.83074  1.0000
  N   N76       1.0  0.48151000000000005  0.41931999999999997  0.8087699999999998  1.0000
  N   N77       1.0  0.70933  0.31765  0.55974  1.0000
  N   N78       1.0  0.9296  0.13253  0.50571  1.0000
  N   N79       1.0  0.7596  0.11694  0.53982  1.0000
  N   N80       1.0  0.88859  0.25957  0.59438  1.0000
  N   N81       1.0  0.20705  0.67378  0.70426  1.0000
  N   N82       1.0  0.31489  0.89058  0.81174  1.0000
  N   N83       1.0  0.48413000000000006  0.29785  0.64203  1.0000
  N   N84       1.0  0.7261  0.4516  0.59185  1.0000
  N   N85       1.0  0.97436  0.07034  0.5858  1.0000
  N   N86       1.0  0.16235  0.15913  0.7571  1.0000
  N   N87       1.0  0.18859  0.9140999999999999  0.76077  1.0000
  N   N88       1.0  0.9977200000000002  0.9279000000000001  0.81741  1.0000
  N   N89       1.0  0.96778  0.10178  0.70008  1.0000
  N   N90       1.0  0.98341  0.11138  0.8207  1.0000
  N   N91       1.0  0.16291  0.026370000000000005  0.8457699999999998  1.0000
  N   N92       1.0  0.16231  0.05382  0.67011  1.0000
  N   N93       1.0  0.01972  0.9188  0.69244  1.0000
  N   N94       1.0  0.79243  0.8202  0.94302  1.0000
  N   N95       1.0  0.57194  0.63494  0.9982399999999998  1.0000
  N   N96       1.0  0.73989  0.61964  0.9567899999999998  1.0000
  N   N97       1.0  0.61793  0.7499  0.9048199999999997  1.0000
  N   N98       1.0  0.29592  0.17479  0.7963599999999997  1.0000
  N   N99       1.0  0.18503  0.39021000000000006  0.68902  1.0000
  N   N100      1.0  0.01581  0.7995200000000001  0.8586599999999998  1.0000
  N   N101      1.0  0.77404  0.95341  0.9095599999999998  1.0000
  N   N102      1.0  0.52486  0.57205  0.91631  1.0000
  N   N103      1.0  0.3424  0.83811  0.25854  1.0000
  N   N104      1.0  0.31226  0.08481  0.26023  1.0000
  N   N105      1.0  0.50183  0.07263  0.31657  1.0000
  N   N106      1.0  0.53251  0.8955199999999999  0.19981  1.0000
  N   N107      1.0  0.51874  0.88915  0.32055  1.0000
  N   N108      1.0  0.33821  0.97304  0.34547  1.0000
  N   N109      1.0  0.33592  0.94134  0.17142999999999994  1.0000
  N   N110      1.0  0.48228  0.07824  0.19095999999999994  1.0000
  N   N111      1.0  0.7086100000000001  0.181  0.44041999999999987  1.0000
  N   N112      1.0  0.93388  0.36301  0.49268  1.0000
  N   N113      1.0  0.75914  0.38144  0.45962999999999987  1.0000
  N   N114      1.0  0.8886  0.23897999999999997  0.40491  1.0000
  N   N115      1.0  0.20675  0.82491  0.29567  1.0000
  N   N116      1.0  0.3157  0.60922  0.18802  1.0000
  N   N117      1.0  0.48408  0.20127  0.35803  1.0000
  N   N118      1.0  0.72618  0.04754  0.4078799999999999  1.0000
  N   N119      1.0  0.97331  0.42953  0.41244  1.0000
  N   N120      1.0  0.16171  0.34006  0.24214  1.0000
  N   N121      1.0  0.18879  0.58539  0.23824  1.0000
  N   N122      1.0  0.9970499999999999  0.57201  0.18319  1.0000
  N   N123      1.0  0.96762  0.39752  0.2994  1.0000
  N   N124      1.0  0.98355  0.38753  0.1792  1.0000
  N   N125      1.0  0.16274  0.47321  0.15372  1.0000
  N   N126      1.0  0.16291  0.44482000000000005  0.3291699999999999  1.0000
  N   N127      1.0  0.01991  0.58102  0.30704  1.0000
  N   N128      1.0  0.7929700000000001  0.68012  0.057739999999999986  1.0000
  N   N129      1.0  0.57179  0.86405  0.00235  1.0000
  N   N130      1.0  0.73935  0.87997  0.04396999999999999  1.0000
  N   N131      1.0  0.61693  0.74908  0.09575  1.0000
  N   N132      1.0  0.2958  0.32573  0.20324  1.0000
  N   N133      1.0  0.18566  0.10994  0.3109999999999999  1.0000
  N   N134      1.0  0.01621  0.70054  0.14181  1.0000
  N   N135      1.0  0.77362  0.54704  0.09105  1.0000
  N   N136      1.0  0.52522  0.92795  0.08435999999999998  1.0000
  O   O1        1.0  0.77892  0.19992  0.283  1.0000
  O   O2        1.0  0.7848  0.32097  0.20186  1.0000
  O   O3        1.0  0.67903  0.28272  0.33733  1.0000
  O   O4        1.0  0.66779  0.20650000000000002  0.2425  1.0000
  O   O5        1.0  0.68199  0.06324  0.27273  1.0000
  O   O6        1.0  0.7982400000000001  0.19394  0.17674  1.0000
  O   O7        1.0  0.38623  0.69413  0.37684  1.0000
  O   O8        1.0  0.44239  0.68563  0.28343  1.0000
  O   O9        1.0  0.49652  0.59085  0.41089  1.0000
  O   O10       1.0  0.36426  0.57862  0.34985  1.0000
  O   O11       1.0  0.38917  0.57823  0.46471  1.0000
  O   O12       1.0  0.23061  0.65036  0.35848  1.0000
  O   O13       1.0  0.9195200000000001  0.8795000000000001  0.46693  1.0000
  O   O14       1.0  0.1461  0.9776100000000001  0.4606  1.0000
  O   O15       1.0  0.99662  0.02582  0.46661999999999987  1.0000
  O   O16       1.0  0.72408  0.6987  0.21673  1.0000
  O   O17       1.0  0.71495  0.81933  0.29826  1.0000
  O   O18       1.0  0.82426  0.78411  0.16445  1.0000
  O   O19       1.0  0.8344200000000002  0.70741  0.25817  1.0000
  O   O20       1.0  0.8184499999999999  0.56185  0.22705  1.0000
  O   O21       1.0  0.70467  0.69282  0.32307999999999987  1.0000
  O   O22       1.0  0.11403  0.19398  0.12489999999999998  1.0000
  O   O23       1.0  0.05792  0.18427  0.21675999999999995  1.0000
  O   O24       1.0  0.00597  0.09212  0.08812999999999997  1.0000
  O   O25       1.0  0.13576  0.07841  0.15047999999999995  1.0000
  O   O26       1.0  0.11397000000000002  0.083  0.036959999999999986  1.0000
  O   O27       1.0  0.26962  0.14886  0.14357  1.0000
  O   O28       1.0  0.58503  0.35565  0.03536  1.0000
  O   O29       1.0  0.35399  0.47645000000000004  0.04164  1.0000
  O   O30       1.0  0.50007  0.53005  0.03713  1.0000
  O   O31       1.0  0.77867  0.30123  0.7173999999999998  1.0000
  O   O32       1.0  0.7852399999999999  0.18059  0.7981299999999998  1.0000
  O   O33       1.0  0.68143  0.21883999999999998  0.6638  1.0000
  O   O34       1.0  0.66663  0.29275  0.75786  1.0000
  O   O35       1.0  0.68189  0.43812  0.7272499999999997  1.0000
  O   O36       1.0  0.7979900000000001  0.30754  0.82334  1.0000
  O   O37       1.0  0.38629  0.8059  0.62414  1.0000
  O   O38       1.0  0.44205  0.81559  0.71672  1.0000
  O   O39       1.0  0.49677000000000004  0.90786  0.58925  1.0000
  O   O40       1.0  0.3641  0.92085  0.6501899999999998  1.0000
  O   O41       1.0  0.38907  0.92012  0.53706  1.0000
  O   O42       1.0  0.23051000000000002  0.84823  0.64162  1.0000
  O   O43       1.0  0.91532  0.64407  0.5311899999999998  1.0000
  O   O44       1.0  0.14294  0.52373  0.53955  1.0000
  O   O45       1.0  0.9966400000000001  0.4728200000000001  0.53335  1.0000
  O   O46       1.0  0.72427  0.8024799999999999  0.7832399999999998  1.0000
  O   O47       1.0  0.72106  0.67832  0.6998999999999997  1.0000
  O   O48       1.0  0.8236600000000001  0.71744  0.83724  1.0000
  O   O49       1.0  0.8346299999999999  0.79408  0.7418  1.0000
  O   O50       1.0  0.8183099999999999  0.93962  0.7730099999999998  1.0000
  O   O51       1.0  0.70507  0.80578  0.6748299999999998  1.0000
  O   O52       1.0  0.11354  0.30484  0.8749899999999998  1.0000
  O   O53       1.0  0.05793  0.3143  0.78326  1.0000
  O   O54       1.0  0.00315  0.4088  0.91074  1.0000
  O   O55       1.0  0.13342  0.42180999999999996  0.8497399999999998  1.0000
  O   O56       1.0  0.11096000000000002  0.41565  0.9628399999999998  1.0000
  O   O57       1.0  0.26689  0.35079  0.85646  1.0000
  O   O58       1.0  0.58487  0.14586  0.96458  1.0000
  O   O59       1.0  0.35399  0.022  0.9583799999999998  1.0000
  O   O60       1.0  0.49991  0.96849  0.96309  1.0000
  O   O61       1.0  0.22402  0.8001300000000001  0.7167899999999998  1.0000
  O   O62       1.0  0.21923  0.67855  0.79844  1.0000
  O   O63       1.0  0.32395  0.71721  0.66425  1.0000
  O   O64       1.0  0.33444  0.79358  0.75824  1.0000
  O   O65       1.0  0.31828  0.93668  0.72694  1.0000
  O   O66       1.0  0.20412000000000002  0.8056  0.8244699999999998  1.0000
  O   O67       1.0  0.61377  0.30456  0.62495  1.0000
  O   O68       1.0  0.55814  0.31405  0.71688  1.0000
  O   O69       1.0  0.50356  0.40634000000000003  0.58926  1.0000
  O   O70       1.0  0.63577  0.41961000000000004  0.6516799999999998  1.0000
  O   O71       1.0  0.61116  0.41539000000000004  0.53721  1.0000
  O   O72       1.0  0.76958  0.3506  0.6434499999999997  1.0000
  O   O73       1.0  0.08475  0.14596  0.53536  1.0000
  O   O74       1.0  0.8539  0.022  0.5416  1.0000
  O   O75       1.0  0.9995200000000001  0.9686  0.53741  1.0000
  O   O76       1.0  0.27855  0.30099  0.78307  1.0000
  O   O77       1.0  0.28502000000000005  0.18062  0.70188  1.0000
  O   O78       1.0  0.17918000000000003  0.21588000000000002  0.83744  1.0000
  O   O79       1.0  0.16689000000000004  0.29271  0.74309  1.0000
  O   O80       1.0  0.18154  0.43815  0.7733399999999998  1.0000
  O   O81       1.0  0.29804  0.30753  0.6768299999999998  1.0000
  O   O82       1.0  0.88622  0.8062600000000001  0.87687  1.0000
  O   O83       1.0  0.94225  0.8156900000000001  0.78341  1.0000
  O   O84       1.0  0.9966500000000001  0.90782  0.9125  1.0000
  O   O85       1.0  0.86415  0.92104  0.8499199999999998  1.0000
  O   O86       1.0  0.8890800000000001  0.9200399999999999  0.9648399999999998  1.0000
  O   O87       1.0  0.73055  0.85079  0.8584299999999998  1.0000
  O   O88       1.0  0.41791  0.64408  0.9673199999999997  1.0000
  O   O89       1.0  0.6431  0.52357  0.96067  1.0000
  O   O90       1.0  0.49665  0.47326  0.9664099999999998  1.0000
  O   O91       1.0  0.22389  0.6984  0.28321  1.0000
  O   O92       1.0  0.22411  0.82033  0.20162  1.0000
  O   O93       1.0  0.32122  0.78124  0.33751  1.0000
  O   O94       1.0  0.33465  0.70519  0.24198  1.0000
  O   O95       1.0  0.31821  0.56179  0.27294  1.0000
  O   O96       1.0  0.20491999999999996  0.69517  0.1748  1.0000
  O   O97       1.0  0.61368  0.19411000000000003  0.3751  1.0000
  O   O98       1.0  0.55825  0.18459  0.28309  1.0000
  O   O99       1.0  0.50329  0.09224  0.41073  1.0000
  O   O100      1.0  0.6355800000000001  0.07916  0.34832  1.0000
  O   O101      1.0  0.6111  0.08298  0.46276  1.0000
  O   O102      1.0  0.76941  0.14915  0.3564699999999999  1.0000
  O   O103      1.0  0.08098  0.37166  0.4626  1.0000
  O   O104      1.0  0.85395  0.4765499999999999  0.45872  1.0000
  O   O105      1.0  0.0005699999999999999  0.5297  0.46233  1.0000
  O   O106      1.0  0.27916  0.19986  0.21687  1.0000
  O   O107      1.0  0.28452  0.32115  0.29802  1.0000
  O   O108      1.0  0.18  0.28254  0.16244  1.0000
  O   O109      1.0  0.16745  0.20633000000000004  0.25642  1.0000
  O   O110      1.0  0.1821  0.06042  0.22692  1.0000
  O   O111      1.0  0.29807  0.19399000000000002  0.32305  1.0000
  O   O112      1.0  0.88608  0.69483  0.12483  1.0000
  O   O113      1.0  0.94208  0.68564  0.21673  1.0000
  O   O114      1.0  0.9964  0.59087  0.08915  1.0000
  O   O115      1.0  0.86427  0.57858  0.15026  1.0000
  O   O116      1.0  0.88882  0.58021  0.03541  1.0000
  O   O117      1.0  0.73048  0.65042  0.1417  1.0000
  O   O118      1.0  0.41825000000000007  0.85481  0.03478999999999999  1.0000
  O   O119      1.0  0.64315  0.97764  0.03933  1.0000
  O   O120      1.0  0.49638  0.02546  0.03364  1.0000
