data_image0
_chemical_formula_structural       Mn24H456C408N64O72
_chemical_formula_sum              "Mn24 H456 C408 N64 O72"
_cell_length_a       17.45726
_cell_length_b       30.1554
_cell_length_c       30.136919999999996
_cell_angle_alpha    85.1994
_cell_angle_beta     73.1516
_cell_angle_gamma    73.13823

_symmetry_space_group_name_H-M    'P 1'
_symmetry_Int_Tables_number       1

loop_
  _symmetry_equiv_pos_as_xyz
  'x,y,z'

loop_
  _atom_site_type_symbol
  _atom_site_label
  _atom_site_symmetry_multiplicity
  _atom_site_fract_x
  _atom_site_fract_y
  _atom_site_fract_z
  _atom_site_occupancy
  Mn  Mn1       1.0  0.05743000000000013  0.8557399999999998  0.5841399999999999  1.0000
  Mn  Mn2       1.0  0.7845700000000004  0.9621899999999998  0.61424  1.0000
  Mn  Mn3       1.0  0.28357  0.92046  0.5002  1.0000
  Mn  Mn4       1.0  0.4967399999999999  0.64436  0.91603  1.0000
  Mn  Mn5       1.0  0.36119000000000034  0.5377  0.88578  1.0000
  Mn  Mn6       1.0  0.70336  0.57971  6.999999999999998e-05  1.0000
  Mn  Mn7       1.0  0.4137200000000001  0.58403  0.64415  1.0000
  Mn  Mn8       1.0  0.24612000000000003  0.61399  0.53827  1.0000
  Mn  Mn9       1.0  0.7043900000000001  0.50012  0.5795  1.0000
  Mn  Mn10      1.0  0.64146  0.9159599999999998  0.85585  1.0000
  Mn  Mn11      1.0  0.39825999999999995  0.8858199999999999  0.96212  1.0000
  Mn  Mn12      1.0  0.7836400000000003  1.0000000000000013e-05  0.92047  1.0000
  Mn  Mn13      1.0  0.94256  0.14425999999999994  0.41586  1.0000
  Mn  Mn14      1.0  0.21541999999999997  0.03781  0.38576  1.0000
  Mn  Mn15      1.0  0.7164200000000001  0.07953999999999999  0.49979999999999997  1.0000
  Mn  Mn16      1.0  0.5032500000000001  0.35563999999999996  0.08396999999999999  1.0000
  Mn  Mn17      1.0  0.63881  0.4623  0.11422  1.0000
  Mn  Mn18      1.0  0.29664000000000007  0.4202999999999999  0.9999299999999999  1.0000
  Mn  Mn19      1.0  0.58627  0.41598  0.35584999999999994  1.0000
  Mn  Mn20      1.0  0.7538700000000002  0.38601  0.4617299999999999  1.0000
  Mn  Mn21      1.0  0.2956000000000001  0.4998799999999999  0.4205  1.0000
  Mn  Mn22      1.0  0.35853  0.08404  0.14415  1.0000
  Mn  Mn23      1.0  0.6017300000000002  0.11417999999999998  0.03788  1.0000
  Mn  Mn24      1.0  0.21636  0.0  0.07953  1.0000
  H   H1        1.0  0.10828999999999998  0.8020399999999999  0.71449  1.0000
  H   H2        1.0  0.013080000000000138  0.81019  0.7948799999999998  1.0000
  H   H3        1.0  0.8674300000000001  0.8633399999999998  0.81037  1.0000
  H   H4        1.0  0.8204200000000001  0.9058799999999998  0.74555  1.0000
  H   H5        1.0  0.8731000000000002  0.9619199999999998  0.50509  1.0000
  H   H6        1.0  0.9704600000000001  0.93176  0.46793  1.0000
  H   H7        1.0  0.81986  0.89314  0.50889  1.0000
  H   H8        1.0  0.9176100000000001  0.86029  0.47513  1.0000
  H   H9        1.0  0.9046900000000003  0.9117199999999998  0.40739  1.0000
  H   H10       1.0  0.8164800000000001  0.9512399999999998  0.44132  1.0000
  H   H11       1.0  0.82421  0.8515299999999998  0.4208  1.0000
  H   H12       1.0  0.7370000000000001  0.8915899999999998  0.45506999999999986  1.0000
  H   H13       1.0  0.8191500000000003  0.9028799999999998  0.3506699999999999  1.0000
  H   H14       1.0  0.7206900000000002  0.8922899999999998  0.37545  1.0000
  H   H15       1.0  0.7359900000000001  0.9458699999999999  0.38503  1.0000
  H   H16       1.0  0.10994000000000016  0.7453799999999998  0.5901  1.0000
  H   H17       1.0  0.05492999999999996  0.67805  0.59162  1.0000
  H   H18       1.0  0.8216900000000003  0.7753399999999998  0.58398  1.0000
  H   H19       1.0  0.8859900000000003  0.8383799999999998  0.58354  1.0000
  H   H20       1.0  0.9166900000000002  0.6553699999999998  0.61413  1.0000
  H   H21       1.0  0.93443  0.6605899999999998  0.55455  1.0000
  H   H22       1.0  0.67847  0.8497699999999999  0.60227  1.0000
  H   H23       1.0  0.58138  0.84562  0.55705  1.0000
  H   H24       1.0  0.5261600000000002  0.9140699999999998  0.51116  1.0000
  H   H25       1.0  0.5751900000000002  0.9846999999999998  0.50822  1.0000
  H   H26       1.0  0.9106400000000002  0.07136999999999998  0.57473  1.0000
  H   H27       1.0  0.8315  0.10768  0.55174  1.0000
  H   H28       1.0  0.8273800000000001  0.09608999999999998  0.6551  1.0000
  H   H29       1.0  0.8471100000000001  0.14335  0.61983  1.0000
  H   H30       1.0  0.6837999999999999  0.11538999999999998  0.64368  1.0000
  H   H31       1.0  0.7029499999999999  0.16243  0.60857  1.0000
  H   H32       1.0  0.7034  0.15126  0.71094  1.0000
  H   H33       1.0  0.7231300000000004  0.19827999999999996  0.6759  1.0000
  H   H34       1.0  0.5577900000000001  0.17148999999999995  0.7014  1.0000
  H   H35       1.0  0.5743400000000001  0.21928999999999996  0.72403  1.0000
  H   H36       1.0  0.5779199999999999  0.21812  0.66463  1.0000
  H   H37       1.0  0.49295000000000044  0.8082999999999998  0.42535  1.0000
  H   H38       1.0  0.5104500000000001  0.7233699999999997  0.42545  1.0000
  H   H39       1.0  0.3934000000000003  0.6911399999999999  0.47185999999999995  1.0000
  H   H40       1.0  0.2619799999999999  0.74478  0.51604  1.0000
  H   H41       1.0  0.008549999999999907  0.96187  0.61037  1.0000
  H   H42       1.0  0.03593999999999999  0.01081  0.58082  1.0000
  H   H43       1.0  0.13471  0.006129999999999998  0.62882  1.0000
  H   H44       1.0  0.02955999999999998  0.01719  0.66168  1.0000
  H   H45       1.0  0.15524  0.92049  0.6505  1.0000
  H   H46       1.0  0.05174000000000004  0.9340599999999999  0.68494  1.0000
  H   H47       1.0  0.18683000000000008  0.9732499999999997  0.69927  1.0000
  H   H48       1.0  0.08303000000000002  0.9869199999999998  0.73387  1.0000
  H   H49       1.0  0.10114999999999999  0.9021499999999998  0.75636  1.0000
  H   H50       1.0  0.17413999999999993  0.92417  0.7718  1.0000
  H   H51       1.0  0.2058500000000001  0.8885899999999998  0.72203  1.0000
  H   H52       1.0  0.7930100000000002  0.5668499999999997  0.51529  1.0000
  H   H53       1.0  0.8211500000000004  0.64348  0.51636  1.0000
  H   H54       1.0  0.74291  0.63703  0.66591  1.0000
  H   H55       1.0  0.7149900000000001  0.5618599999999998  0.65847  1.0000
  H   H56       1.0  0.7883700000000001  0.7144299999999998  0.56551  1.0000
  H   H57       1.0  0.77097  0.7090599999999998  0.62632  1.0000
  H   H58       1.0  0.6244200000000003  0.69782  0.78573  1.0000
  H   H59       1.0  0.6180300000000003  0.6897699999999999  0.7052099999999998  1.0000
  H   H60       1.0  0.5411299999999996  0.63667  0.68965  1.0000
  H   H61       1.0  0.47239  0.59377  0.75421  1.0000
  H   H62       1.0  0.33996  0.53802  0.9951499999999998  1.0000
  H   H63       1.0  0.36977000000000004  0.56814  0.03238  1.0000
  H   H64       1.0  0.22186000000000006  0.6068799999999998  0.99118  1.0000
  H   H65       1.0  0.25287000000000015  0.6396799999999998  0.024999999999999994  1.0000
  H   H66       1.0  0.22346000000000005  0.58825  0.09275  1.0000
  H   H67       1.0  0.20882000000000006  0.5488299999999999  0.05874  1.0000
  H   H68       1.0  0.09602999999999996  0.64849  0.07935  1.0000
  H   H69       1.0  0.08331000000000004  0.60844  0.04509  1.0000
  H   H70       1.0  0.07227000000000004  0.5971599999999999  0.14948  1.0000
  H   H71       1.0  0.98804  0.60778  0.12468  1.0000
  H   H72       1.0  0.06655000000000011  0.5541799999999999  0.11511999999999997  1.0000
  H   H73       1.0  0.44531000000000015  0.75466  0.9100399999999998  1.0000
  H   H74       1.0  0.3244599999999999  0.82202  0.90839  1.0000
  H   H75       1.0  0.18100999999999995  0.72477  0.91594  1.0000
  H   H76       1.0  0.30791  0.66173  0.91654  1.0000
  H   H77       1.0  0.18605000000000005  0.84466  0.88576  1.0000
  H   H78       1.0  0.14931000000000005  0.8395899999999997  0.94537  1.0000
  H   H79       1.0  0.13061000000000017  0.6502  0.8977  1.0000
  H   H80       1.0  0.9840300000000001  0.6543799999999997  0.94286  1.0000
  H   H81       1.0  0.95143  0.5859999999999997  0.98886  1.0000
  H   H82       1.0  0.06828000000000002  0.51531  0.99169  1.0000
  H   H83       1.0  0.55712  0.42829999999999996  0.92544  1.0000
  H   H84       1.0  0.49077000000000015  0.3923199999999999  0.94834  1.0000
  H   H85       1.0  0.57874  0.4037599999999999  0.84505  1.0000
  H   H86       1.0  0.61043  0.3564099999999999  0.88029  1.0000
  H   H87       1.0  0.44287999999999994  0.38464  0.85641  1.0000
  H   H88       1.0  0.47385  0.33758  0.89143  1.0000
  H   H89       1.0  0.56561  0.34877  0.78911  1.0000
  H   H90       1.0  0.5973800000000002  0.30174  0.82408  1.0000
  H   H91       1.0  0.43063000000000007  0.32859999999999995  0.7986399999999999  1.0000
  H   H92       1.0  0.5177100000000001  0.2807499999999999  0.77601  1.0000
  H   H93       1.0  0.46068000000000003  0.28196  0.83541  1.0000
  H   H94       1.0  0.7265  0.69159  0.07436  1.0000
  H   H95       1.0  0.65971  0.77661  0.07412  1.0000
  H   H96       1.0  0.55653  0.80897  0.02787999999999999  1.0000
  H   H97       1.0  0.5220100000000001  0.7555  0.9842  1.0000
  H   H98       1.0  0.5807  0.53811  0.88973  1.0000
  H   H99       1.0  0.62758  0.4892999999999999  0.91935  1.0000
  H   H100      1.0  0.7696799999999997  0.4938  0.87114  1.0000
  H   H101      1.0  0.70813  0.4829099999999999  0.8385  1.0000
  H   H102      1.0  0.7259599999999999  0.57956  0.84963  1.0000
  H   H103      1.0  0.6704099999999998  0.5659699999999998  0.81526  1.0000
  H   H104      1.0  0.8591900000000002  0.52672  0.80087  1.0000
  H   H105      1.0  0.8036500000000001  0.51307  0.7663  1.0000
  H   H106      1.0  0.7595500000000003  0.59783  0.74369  1.0000
  H   H107      1.0  0.8700400000000004  0.5756799999999997  0.7283  1.0000
  H   H108      1.0  0.8163700000000002  0.6113599999999998  0.77799  1.0000
  H   H109      1.0  0.8748800000000002  0.93328  0.98471  1.0000
  H   H110      1.0  0.98069  0.85657  0.98364  1.0000
  H   H111      1.0  0.045649999999999955  0.86305  0.83409  1.0000
  H   H112      1.0  0.9351200000000002  0.93822  0.84152  1.0000
  H   H113      1.0  0.06830000000000006  0.7856399999999998  0.93453  1.0000
  H   H114      1.0  0.10633000000000002  0.7909699999999998  0.8737  1.0000
  H   H115      1.0  0.41088999999999987  0.71445  0.69773  1.0000
  H   H116      1.0  0.3236800000000001  0.7948  0.68969  1.0000
  H   H117      1.0  0.23077000000000006  0.81018  0.63679  1.0000
  H   H118      1.0  0.22604000000000002  0.74533  0.59446  1.0000
  H   H119      1.0  0.33526  0.50495  0.53808  1.0000
  H   H120      1.0  0.40234000000000003  0.46764  0.56813  1.0000
  H   H121      1.0  0.21318000000000004  0.50899  0.60682  1.0000
  H   H122      1.0  0.27782000000000007  0.47521  0.63977  1.0000
  H   H123      1.0  0.3165100000000002  0.40745  0.58826  1.0000
  H   H124      1.0  0.26784  0.44139  0.54877  1.0000
  H   H125      1.0  0.1757  0.42094  0.64853  1.0000
  H   H126      1.0  0.1286  0.45514  0.60846  1.0000
  H   H127      1.0  0.22217000000000003  0.3507999999999999  0.59715  1.0000
  H   H128      1.0  0.1130800000000001  0.3755399999999999  0.60776  1.0000
  H   H129      1.0  0.18205000000000002  0.3851099999999999  0.55414  1.0000
  H   H130      1.0  0.35551000000000016  0.58999  0.75458  1.0000
  H   H131      1.0  0.23312999999999998  0.5914699999999998  0.82192  1.0000
  H   H132      1.0  0.09723000000000012  0.58396  0.72462  1.0000
  H   H133      1.0  0.2245700000000002  0.5834899999999998  0.66153  1.0000
  H   H134      1.0  0.07211000000000002  0.61411  0.84465  1.0000
  H   H135      1.0  0.0950600000000002  0.5545499999999998  0.8394899999999998  1.0000
  H   H136      1.0  0.027230000000000004  0.60211  0.65047  1.0000
  H   H137      1.0  0.92611  0.55683  0.65451  1.0000
  H   H138      1.0  0.9397999999999999  0.51088  0.58595  1.0000
  H   H139      1.0  0.05946000000000009  0.5081799999999999  0.5153  1.0000
  H   H140      1.0  0.4813899999999998  0.5749199999999998  0.42895  1.0000
  H   H141      1.0  0.4388300000000001  0.55177  0.39264  1.0000
  H   H142      1.0  0.42300000000000026  0.6551099999999997  0.40409  1.0000
  H   H143      1.0  0.49026  0.6198099999999998  0.35686  1.0000
  H   H144      1.0  0.29889  0.64376  0.38468  1.0000
  H   H145      1.0  0.36518  0.6086299999999998  0.33766  1.0000
  H   H146      1.0  0.35467000000000004  0.71089  0.34878  1.0000
  H   H147      1.0  0.42144  0.67581  0.30176  1.0000
  H   H148      1.0  0.22922  0.70144  0.32858  1.0000
  H   H149      1.0  0.2937200000000001  0.7239699999999998  0.28072  1.0000
  H   H150      1.0  0.2960400000000001  0.66461  0.28194  1.0000
  H   H151      1.0  0.8014  0.4253399999999999  0.69171  1.0000
  H   H152      1.0  0.73372  0.4255199999999999  0.7767  1.0000
  H   H153      1.0  0.5844100000000001  0.4720199999999999  0.80896  1.0000
  H   H154      1.0  0.5066800000000001  0.51584  0.75526  1.0000
  H   H155      1.0  0.47070000000000006  0.61027  0.5379  1.0000
  H   H156      1.0  0.5478200000000001  0.58056  0.4892  1.0000
  H   H157      1.0  0.6410000000000001  0.62893  0.49374  1.0000
  H   H158      1.0  0.5468100000000001  0.6615799999999997  0.48276  1.0000
  H   H159      1.0  0.57567  0.65053  0.57951  1.0000
  H   H160      1.0  0.48572999999999966  0.68489  0.56591  1.0000
  H   H161      1.0  0.6601100000000001  0.6992399999999998  0.52671  1.0000
  H   H162      1.0  0.5699500000000001  0.7338199999999998  0.51304  1.0000
  H   H163      1.0  0.5031400000000004  0.75638  0.59789  1.0000
  H   H164      1.0  0.5981900000000001  0.77178  0.5758  1.0000
  H   H165      1.0  0.5942700000000001  0.72208  0.61143  1.0000
  H   H166      1.0  0.8594700000000001  0.51527  0.93308  1.0000
  H   H167      1.0  0.9645000000000001  0.51636  0.85647  1.0000
  H   H168      1.0  0.87988  0.6658199999999997  0.86312  1.0000
  H   H169      1.0  0.7764599999999999  0.65839  0.93819  1.0000
  H   H170      1.0  0.0030800000000000202  0.5654599999999999  0.78554  1.0000
  H   H171      1.0  0.98024  0.62623  0.79097  1.0000
  H   H172      1.0  0.8226600000000002  0.7856599999999998  0.80213  1.0000
  H   H173      1.0  0.8081400000000002  0.70524  0.81019  1.0000
  H   H174      1.0  0.6779000000000003  0.68972  0.86318  1.0000
  H   H175      1.0  0.5659999999999998  0.7544  0.90597  1.0000
  H   H176      1.0  0.3777600000000001  0.99529  0.96206  1.0000
  H   H177      1.0  0.4381  0.03223  0.93181  1.0000
  H   H178      1.0  0.32866000000000023  0.9912399999999999  0.89312  1.0000
  H   H179      1.0  0.39275000000000015  0.02491  0.8602999999999997  1.0000
  H   H180      1.0  0.3119000000000002  0.09268  0.9117  1.0000
  H   H181      1.0  0.2576  0.05881  0.9512199999999997  1.0000
  H   H182      1.0  0.24487  0.07924  0.85148  1.0000
  H   H183      1.0  0.19196999999999997  0.04502  0.89153  1.0000
  H   H184      1.0  0.16955000000000003  0.14934999999999998  0.90284  1.0000
  H   H185      1.0  0.09591999999999999  0.12455999999999998  0.89225  1.0000
  H   H186      1.0  0.12083  0.11501999999999997  0.94585  1.0000
  H   H187      1.0  0.7001400000000001  0.91005  0.74526  1.0000
  H   H188      1.0  0.6465100000000004  0.9084599999999998  0.67794  1.0000
  H   H189      1.0  0.40581  0.916  0.7754  1.0000
  H   H190      1.0  0.4697700000000002  0.9165599999999998  0.83841  1.0000
  H   H191      1.0  0.53093  0.88576  0.65533  1.0000
  H   H192      1.0  0.48915  0.9453099999999998  0.66048  1.0000
  H   H193      1.0  0.27998000000000006  0.89784  0.84956  1.0000
  H   H194      1.0  0.13762  0.94311  0.84553  1.0000
  H   H195      1.0  0.03674000000000015  0.9891  0.91406  1.0000
  H   H196      1.0  0.08318000000000027  0.9918899999999998  0.9846899999999998  1.0000
  H   H197      1.0  0.48482  0.9254799999999999  0.07130999999999997  1.0000
  H   H198      1.0  0.38266000000000006  0.9483699999999998  0.10756  1.0000
  H   H199      1.0  0.48225000000000007  0.84513  0.09591  1.0000
  H   H200      1.0  0.4666599999999999  0.88041  0.14322  1.0000
  H   H201      1.0  0.32714  0.85645  0.11535  1.0000
  H   H202      1.0  0.31127  0.8915  0.16241  1.0000
  H   H203      1.0  0.4143800000000001  0.7892  0.15105  1.0000
  H   H204      1.0  0.3991400000000002  0.8241899999999998  0.19811999999999994  1.0000
  H   H205      1.0  0.2592000000000002  0.7987099999999998  0.17140999999999995  1.0000
  H   H206      1.0  0.2985700000000001  0.7760899999999997  0.21919  1.0000
  H   H207      1.0  0.24259999999999998  0.83544  0.2181  1.0000
  H   H208      1.0  0.9185000000000001  0.07456  0.8083099999999999  1.0000
  H   H209      1.0  0.93576  0.07464999999999997  0.72338  1.0000
  H   H210      1.0  0.8654400000000001  0.02808  0.69109  1.0000
  H   H211      1.0  0.7781600000000001  0.9840899999999998  0.74471  1.0000
  H   H212      1.0  0.61891  0.88979  0.9620399999999999  1.0000
  H   H213      1.0  0.6170100000000001  0.9193099999999997  0.01088  1.0000
  H   H214      1.0  0.7636  0.87109  0.006289999999999999  1.0000
  H   H215      1.0  0.69099  0.83855  0.01717  1.0000
  H   H216      1.0  0.80582  0.84948  0.92048  1.0000
  H   H217      1.0  0.7365699999999997  0.81518  0.9341  1.0000
  H   H218      1.0  0.8861200000000008  0.8006999999999997  0.9733099999999999  1.0000
  H   H219      1.0  0.8168599999999999  0.7662  0.9869499999999998  1.0000
  H   H220      1.0  0.8575499999999999  0.74368  0.90212  1.0000
  H   H221      1.0  0.94593  0.7282199999999998  0.9242  1.0000
  H   H222      1.0  0.9279600000000003  0.7779299999999998  0.8886  1.0000
  H   H223      1.0  0.30773  0.9846499999999999  0.56688  1.0000
  H   H224      1.0  0.3375799999999999  0.9836  0.64338  1.0000
  H   H225      1.0  0.4087800000000001  0.8341299999999998  0.63693  1.0000
  H   H226      1.0  0.37291000000000035  0.84154  0.56189  1.0000
  H   H227      1.0  0.3539600000000001  0.93451  0.71436  1.0000
  H   H228      1.0  0.3973400000000003  0.87373  0.70899  1.0000
  H   H229      1.0  0.8916999999999999  0.19795999999999997  0.28551  1.0000
  H   H230      1.0  0.9869100000000001  0.18981  0.20511999999999994  1.0000
  H   H231      1.0  0.13257000000000002  0.13666  0.18963  1.0000
  H   H232      1.0  0.17957  0.09411999999999997  0.25445  1.0000
  H   H233      1.0  0.12688999999999998  0.03808  0.49491  1.0000
  H   H234      1.0  0.029540000000000025  0.06824  0.53207  1.0000
  H   H235      1.0  0.18013999999999994  0.10685999999999997  0.49111  1.0000
  H   H236      1.0  0.08238000000000004  0.13971  0.52487  1.0000
  H   H237      1.0  0.0953  0.08828  0.59261  1.0000
  H   H238      1.0  0.18351000000000003  0.04875999999999999  0.55867  1.0000
  H   H239      1.0  0.17577999999999994  0.14847  0.5792  1.0000
  H   H240      1.0  0.263  0.10841  0.54493  1.0000
  H   H241      1.0  0.18084  0.09713  0.64933  1.0000
  H   H242      1.0  0.27931  0.10771  0.62455  1.0000
  H   H243      1.0  0.26400000000000007  0.054129999999999984  0.61497  1.0000
  H   H244      1.0  0.89005  0.25462  0.40989999999999993  1.0000
  H   H245      1.0  0.94506  0.32194999999999996  0.40838  1.0000
  H   H246      1.0  0.17829999999999996  0.22465999999999994  0.41602  1.0000
  H   H247      1.0  0.11400000000000005  0.16162  0.41646  1.0000
  H   H248      1.0  0.08329999999999997  0.34463  0.38587  1.0000
  H   H249      1.0  0.06557000000000013  0.33941999999999994  0.44545  1.0000
  H   H250      1.0  0.32152000000000014  0.15022999999999995  0.39773  1.0000
  H   H251      1.0  0.41862000000000016  0.15438  0.44295  1.0000
  H   H252      1.0  0.47384000000000004  0.08592999999999998  0.48884  1.0000
  H   H253      1.0  0.4248000000000002  0.015299999999999996  0.49178  1.0000
  H   H254      1.0  0.08935000000000014  0.9286299999999997  0.42527  1.0000
  H   H255      1.0  0.16848999999999995  0.8923199999999998  0.44826  1.0000
  H   H256      1.0  0.17262000000000002  0.90391  0.3449  1.0000
  H   H257      1.0  0.1528800000000001  0.8566499999999998  0.38017  1.0000
  H   H258      1.0  0.3161900000000002  0.8846099999999998  0.35632  1.0000
  H   H259      1.0  0.2970400000000001  0.83758  0.39143  1.0000
  H   H260      1.0  0.2966  0.84874  0.28906  1.0000
  H   H261      1.0  0.2768700000000001  0.80172  0.3240999999999999  1.0000
  H   H262      1.0  0.44221000000000005  0.8285099999999999  0.2986  1.0000
  H   H263      1.0  0.42565000000000003  0.78071  0.27596  1.0000
  H   H264      1.0  0.42207  0.78188  0.33536999999999995  1.0000
  H   H265      1.0  0.50704  0.1917  0.57465  1.0000
  H   H266      1.0  0.48955000000000004  0.27663  0.57455  1.0000
  H   H267      1.0  0.6065999999999997  0.30886  0.52814  1.0000
  H   H268      1.0  0.7380199999999999  0.25522  0.48396  1.0000
  H   H269      1.0  0.9914500000000002  0.038139999999999986  0.38963  1.0000
  H   H270      1.0  0.9640600000000003  0.9891899999999998  0.41918  1.0000
  H   H271      1.0  0.8652800000000002  0.9938699999999998  0.37118  1.0000
  H   H272      1.0  0.9704400000000004  0.9828099999999997  0.33832  1.0000
  H   H273      1.0  0.8447600000000003  0.07950999999999997  0.3495  1.0000
  H   H274      1.0  0.94825  0.06594  0.31505999999999995  1.0000
  H   H275      1.0  0.8131599999999999  0.026749999999999993  0.30073  1.0000
  H   H276      1.0  0.9169700000000001  0.013079999999999996  0.26613  1.0000
  H   H277      1.0  0.8988500000000004  0.09784999999999998  0.24363999999999997  1.0000
  H   H278      1.0  0.82585  0.07582999999999997  0.2282  1.0000
  H   H279      1.0  0.7941500000000004  0.11141  0.27797  1.0000
  H   H280      1.0  0.20697999999999997  0.43315  0.48471  1.0000
  H   H281      1.0  0.17885000000000012  0.3565199999999999  0.48363999999999996  1.0000
  H   H282      1.0  0.25708999999999993  0.36297  0.33409  1.0000
  H   H283      1.0  0.28501000000000004  0.4381499999999999  0.34153  1.0000
  H   H284      1.0  0.21163000000000012  0.28557  0.4344799999999999  1.0000
  H   H285      1.0  0.22902000000000022  0.29093999999999987  0.37368  1.0000
  H   H286      1.0  0.37557000000000007  0.3021899999999999  0.21427  1.0000
  H   H287      1.0  0.3819600000000001  0.31023  0.29479  1.0000
  H   H288      1.0  0.45887000000000006  0.36333  0.31035  1.0000
  H   H289      1.0  0.5276000000000002  0.40623999999999993  0.24579  1.0000
  H   H290      1.0  0.66003  0.46198  0.00485  1.0000
  H   H291      1.0  0.6302300000000001  0.4318599999999999  0.9676199999999999  1.0000
  H   H292      1.0  0.7781300000000001  0.39311999999999997  0.00882  1.0000
  H   H293      1.0  0.7471300000000001  0.36031999999999986  0.975  1.0000
  H   H294      1.0  0.77653  0.41175  0.90725  1.0000
  H   H295      1.0  0.79118  0.4511799999999999  0.94126  1.0000
  H   H296      1.0  0.90396  0.35151  0.92065  1.0000
  H   H297      1.0  0.91668  0.3915699999999999  0.95491  1.0000
  H   H298      1.0  0.92773  0.40283999999999986  0.85051  1.0000
  H   H299      1.0  0.011959999999999974  0.39222  0.87532  1.0000
  H   H300      1.0  0.93344  0.44582  0.88488  1.0000
  H   H301      1.0  0.55469  0.24533999999999995  0.08996  1.0000
  H   H302      1.0  0.67554  0.17797999999999994  0.09161  1.0000
  H   H303      1.0  0.81898  0.27523  0.08406  1.0000
  H   H304      1.0  0.6920899999999999  0.33828  0.08346  1.0000
  H   H305      1.0  0.81395  0.15534  0.11424  1.0000
  H   H306      1.0  0.85069  0.16041  0.05462999999999999  1.0000
  H   H307      1.0  0.8693900000000001  0.34979999999999994  0.1023  1.0000
  H   H308      1.0  0.01597000000000002  0.34562  0.05714  1.0000
  H   H309      1.0  0.04856999999999997  0.414  0.011139999999999999  1.0000
  H   H310      1.0  0.93172  0.4846899999999999  0.00831  1.0000
  H   H311      1.0  0.4428700000000002  0.5716999999999998  0.07456  1.0000
  H   H312      1.0  0.50922  0.60768  0.05166  1.0000
  H   H313      1.0  0.4212600000000001  0.59624  0.15495  1.0000
  H   H314      1.0  0.38956  0.64359  0.11971  1.0000
  H   H315      1.0  0.5571100000000001  0.61536  0.14358  1.0000
  H   H316      1.0  0.52615  0.6624199999999999  0.10857  1.0000
  H   H317      1.0  0.43438000000000004  0.6512399999999998  0.21089  1.0000
  H   H318      1.0  0.40261000000000013  0.6982599999999998  0.17592  1.0000
  H   H319      1.0  0.5693700000000002  0.6713999999999998  0.20136  1.0000
  H   H320      1.0  0.4822800000000005  0.7192499999999997  0.22399  1.0000
  H   H321      1.0  0.5393200000000001  0.7180399999999998  0.16458  1.0000
  H   H322      1.0  0.2735  0.3084099999999999  0.92564  1.0000
  H   H323      1.0  0.34028  0.22338999999999995  0.92588  1.0000
  H   H324      1.0  0.4434599999999999  0.19102999999999995  0.97212  1.0000
  H   H325      1.0  0.47798999999999997  0.24449999999999994  0.0158  1.0000
  H   H326      1.0  0.4193000000000001  0.4618899999999999  0.11026999999999998  1.0000
  H   H327      1.0  0.3724199999999999  0.5107  0.08065  1.0000
  H   H328      1.0  0.23031000000000004  0.5062  0.12886  1.0000
  H   H329      1.0  0.29186  0.51709  0.16149  1.0000
  H   H330      1.0  0.27403  0.42043999999999987  0.15037  1.0000
  H   H331      1.0  0.3295900000000001  0.4340299999999999  0.18474  1.0000
  H   H332      1.0  0.14081000000000007  0.47328  0.19913  1.0000
  H   H333      1.0  0.19635000000000008  0.4869399999999999  0.2337  1.0000
  H   H334      1.0  0.24044000000000018  0.40217  0.25631  1.0000
  H   H335      1.0  0.1299600000000002  0.42432999999999993  0.2717  1.0000
  H   H336      1.0  0.1836300000000001  0.38864  0.22201  1.0000
  H   H337      1.0  0.12512  0.06672  0.01528  1.0000
  H   H338      1.0  0.019310000000000004  0.14343  0.01636  1.0000
  H   H339      1.0  0.95435  0.13695  0.16591  1.0000
  H   H340      1.0  0.06487  0.06178  0.15848  1.0000
  H   H341      1.0  0.9317  0.21436  0.06547  1.0000
  H   H342      1.0  0.8936600000000003  0.20902999999999994  0.1263  1.0000
  H   H343      1.0  0.5891100000000002  0.28555  0.30227  1.0000
  H   H344      1.0  0.6763100000000001  0.2052  0.31031  1.0000
  H   H345      1.0  0.7692200000000001  0.18981999999999993  0.36321  1.0000
  H   H346      1.0  0.7739599999999999  0.25467  0.40554  1.0000
  H   H347      1.0  0.66474  0.49505  0.46192  1.0000
  H   H348      1.0  0.59765  0.53236  0.43187  1.0000
  H   H349      1.0  0.78682  0.49101  0.39318  1.0000
  H   H350      1.0  0.7221800000000002  0.52479  0.36022999999999994  1.0000
  H   H351      1.0  0.68349  0.59255  0.41174  1.0000
  H   H352      1.0  0.7321500000000001  0.5586199999999999  0.45123  1.0000
  H   H353      1.0  0.8243  0.57906  0.35146999999999995  1.0000
  H   H354      1.0  0.8713999999999998  0.54486  0.39154  1.0000
  H   H355      1.0  0.77783  0.64921  0.40285  1.0000
  H   H356      1.0  0.88691  0.62446  0.39224  1.0000
  H   H357      1.0  0.81795  0.6149  0.4458599999999999  1.0000
  H   H358      1.0  0.64449  0.41001  0.24542  1.0000
  H   H359      1.0  0.76686  0.40853  0.17808  1.0000
  H   H360      1.0  0.9027600000000003  0.41604  0.27538  1.0000
  H   H361      1.0  0.7754200000000002  0.4165099999999999  0.33847  1.0000
  H   H362      1.0  0.92788  0.38589  0.15535  1.0000
  H   H363      1.0  0.9049400000000001  0.44545  0.16051  1.0000
  H   H364      1.0  0.97277  0.39789  0.34953  1.0000
  H   H365      1.0  0.07389  0.4431699999999999  0.34549  1.0000
  H   H366      1.0  0.06020000000000007  0.4891199999999999  0.41404999999999986  1.0000
  H   H367      1.0  0.94054  0.49182  0.4847  1.0000
  H   H368      1.0  0.5186100000000001  0.4250799999999999  0.5710499999999998  1.0000
  H   H369      1.0  0.5611700000000001  0.44823  0.6073599999999999  1.0000
  H   H370      1.0  0.577  0.3448899999999999  0.59591  1.0000
  H   H371      1.0  0.5097399999999999  0.38019  0.64314  1.0000
  H   H372      1.0  0.7011100000000001  0.35624  0.6153199999999999  1.0000
  H   H373      1.0  0.6348199999999996  0.39137  0.66234  1.0000
  H   H374      1.0  0.64533  0.28911  0.65122  1.0000
  H   H375      1.0  0.5785600000000001  0.3241899999999999  0.69824  1.0000
  H   H376      1.0  0.77077  0.29856  0.6714199999999999  1.0000
  H   H377      1.0  0.7062800000000002  0.27602999999999994  0.71928  1.0000
  H   H378      1.0  0.7039500000000001  0.3353899999999999  0.71806  1.0000
  H   H379      1.0  0.19859000000000007  0.5746599999999998  0.30828999999999995  1.0000
  H   H380      1.0  0.2662800000000001  0.57448  0.22329999999999997  1.0000
  H   H381      1.0  0.41559000000000007  0.52798  0.19103999999999996  1.0000
  H   H382      1.0  0.49330999999999997  0.48416  0.24474  1.0000
  H   H383      1.0  0.5292900000000005  0.38973  0.4621  1.0000
  H   H384      1.0  0.45217999999999997  0.41943999999999987  0.5108  1.0000
  H   H385      1.0  0.35899000000000003  0.3710699999999999  0.50626  1.0000
  H   H386      1.0  0.4531900000000001  0.33842  0.51723  1.0000
  H   H387      1.0  0.42432999999999993  0.34947  0.42049  1.0000
  H   H388      1.0  0.5142700000000002  0.3151199999999999  0.43409  1.0000
  H   H389      1.0  0.33989000000000014  0.3007599999999999  0.47329  1.0000
  H   H390      1.0  0.4300499999999999  0.26618  0.48696  1.0000
  H   H391      1.0  0.4968500000000002  0.24363  0.40210999999999997  1.0000
  H   H392      1.0  0.40181000000000017  0.22822  0.42419  1.0000
  H   H393      1.0  0.4057200000000001  0.27792  0.38856999999999997  1.0000
  H   H394      1.0  0.14052  0.48473  0.06692  1.0000
  H   H395      1.0  0.03549000000000011  0.4836399999999999  0.14352999999999994  1.0000
  H   H396      1.0  0.12012000000000003  0.33418  0.13688  1.0000
  H   H397      1.0  0.22353000000000006  0.3416099999999999  0.06181  1.0000
  H   H398      1.0  0.99692  0.43453999999999987  0.21446  1.0000
  H   H399      1.0  0.019749999999999976  0.37377  0.20903  1.0000
  H   H400      1.0  0.17734  0.21433999999999995  0.19787  1.0000
  H   H401      1.0  0.19186  0.29476  0.18981  1.0000
  H   H402      1.0  0.3220900000000001  0.3102799999999999  0.13682  1.0000
  H   H403      1.0  0.43400000000000005  0.2456  0.09403  1.0000
  H   H404      1.0  0.62223  0.004709999999999999  0.03794  1.0000
  H   H405      1.0  0.5619000000000002  0.9677799999999998  0.06819  1.0000
  H   H406      1.0  0.6713400000000002  0.008759999999999997  0.10688  1.0000
  H   H407      1.0  0.6072400000000001  0.9750899999999998  0.1397  1.0000
  H   H408      1.0  0.6880999999999999  0.90732  0.08829  1.0000
  H   H409      1.0  0.7423900000000002  0.9411899999999997  0.04878  1.0000
  H   H410      1.0  0.7551300000000001  0.9207599999999998  0.14852  1.0000
  H   H411      1.0  0.80802  0.9549799999999998  0.10847  1.0000
  H   H412      1.0  0.8304500000000002  0.8506499999999998  0.09716  1.0000
  H   H413      1.0  0.90408  0.87544  0.10775  1.0000
  H   H414      1.0  0.87917  0.8849799999999998  0.05415  1.0000
  H   H415      1.0  0.29985  0.08995  0.25474  1.0000
  H   H416      1.0  0.3534800000000001  0.09153999999999997  0.32206  1.0000
  H   H417      1.0  0.59419  0.08399999999999998  0.2246  1.0000
  H   H418      1.0  0.53023  0.08343999999999999  0.16159  1.0000
  H   H419      1.0  0.46907000000000004  0.11423999999999998  0.34467  1.0000
  H   H420      1.0  0.5108500000000001  0.05468999999999999  0.33951999999999993  1.0000
  H   H421      1.0  0.72001  0.10216999999999997  0.15044  1.0000
  H   H422      1.0  0.8623700000000001  0.05688999999999999  0.15447  1.0000
  H   H423      1.0  0.96325  0.0109  0.08594  1.0000
  H   H424      1.0  0.91682  0.00812  0.01531  1.0000
  H   H425      1.0  0.51518  0.07451999999999999  0.92869  1.0000
  H   H426      1.0  0.6173400000000001  0.05163  0.89244  1.0000
  H   H427      1.0  0.51774  0.15487000000000004  0.90409  1.0000
  H   H428      1.0  0.5333300000000001  0.11958999999999997  0.8567799999999998  1.0000
  H   H429      1.0  0.67286  0.14356  0.88465  1.0000
  H   H430      1.0  0.6887199999999999  0.10850999999999997  0.83759  1.0000
  H   H431      1.0  0.58562  0.21079999999999993  0.84895  1.0000
  H   H432      1.0  0.6008500000000003  0.17582  0.80188  1.0000
  H   H433      1.0  0.7408  0.20128999999999994  0.82859  1.0000
  H   H434      1.0  0.7014200000000003  0.22390999999999997  0.78081  1.0000
  H   H435      1.0  0.7574000000000001  0.16456  0.7819  1.0000
  H   H436      1.0  0.08149999999999998  0.92545  0.19169  1.0000
  H   H437      1.0  0.06424000000000007  0.9253499999999999  0.27662  1.0000
  H   H438      1.0  0.1345600000000001  0.97192  0.3089099999999999  1.0000
  H   H439      1.0  0.22183  0.01592  0.25529  1.0000
  H   H440      1.0  0.38109  0.11021999999999997  0.037959999999999994  1.0000
  H   H441      1.0  0.3829900000000002  0.08068999999999998  0.9891199999999998  1.0000
  H   H442      1.0  0.23639000000000004  0.12890999999999997  0.99371  1.0000
  H   H443      1.0  0.30900999999999995  0.16144999999999995  0.98283  1.0000
  H   H444      1.0  0.19417  0.15052  0.07952  1.0000
  H   H445      1.0  0.26343000000000005  0.18481999999999996  0.0659  1.0000
  H   H446      1.0  0.11387000000000005  0.19929999999999995  0.02669  1.0000
  H   H447      1.0  0.18313000000000001  0.23379999999999995  0.01305  1.0000
  H   H448      1.0  0.14244000000000004  0.25632  0.09787999999999997  1.0000
  H   H449      1.0  0.054060000000000004  0.27178  0.0758  1.0000
  H   H450      1.0  0.07204  0.22207  0.1114  1.0000
  H   H451      1.0  0.6922700000000002  0.01535  0.43312  1.0000
  H   H452      1.0  0.6624100000000002  0.0164  0.35662  1.0000
  H   H453      1.0  0.59122  0.16587  0.36307  1.0000
  H   H454      1.0  0.6270899999999999  0.15845999999999996  0.43811  1.0000
  H   H455      1.0  0.64603  0.06549  0.2856399999999999  1.0000
  H   H456      1.0  0.60265  0.12627  0.29101  1.0000
  C   C1        1.0  0.01840000000000013  0.8483199999999997  0.68419  1.0000
  C   C2        1.0  0.04494000000000003  0.82464  0.722  1.0000
  C   C3        1.0  0.9914600000000001  0.82974  0.7666599999999998  1.0000
  C   C4        1.0  0.9100500000000001  0.8593  0.77563  1.0000
  C   C5        1.0  0.8832300000000001  0.88295  0.73891  1.0000
  C   C6        1.0  0.9352600000000001  0.87805  0.69294  1.0000
  C   C7        1.0  0.9011699999999999  0.9030099999999998  0.65607  1.0000
  C   C8        1.0  0.95067  0.90791  0.53641  1.0000
  C   C9        1.0  0.9170900000000001  0.9275299999999997  0.49642  1.0000
  C   C10       1.0  0.8750400000000003  0.8955299999999998  0.48075  1.0000
  C   C11       1.0  0.8488199999999999  0.91401  0.43684  1.0000
  C   C12       1.0  0.7923500000000001  0.88878  0.42526  1.0000
  C   C13       1.0  0.7655900000000001  0.9083199999999999  0.38173  1.0000
  C   C14       1.0  0.04631  0.75052  0.58888  1.0000
  C   C15       1.0  0.014989999999999911  0.71299  0.58967  1.0000
  C   C16       1.0  0.9328999999999998  0.72071  0.58754  1.0000
  C   C17       1.0  0.8859  0.7667299999999999  0.58542  1.0000
  C   C18       1.0  0.9219100000000001  0.8024099999999998  0.585  1.0000
  C   C19       1.0  0.9000100000000001  0.67993  0.58711  1.0000
  C   C20       1.0  0.67966  0.9195099999999999  0.58207  1.0000
  C   C21       1.0  0.6549900000000003  0.87893  0.5814  1.0000
  C   C22       1.0  0.60075  0.8769899999999999  0.55612  1.0000
  C   C23       1.0  0.5699199999999999  0.91528  0.53013  1.0000
  C   C24       1.0  0.5962999999999999  0.95477  0.52889  1.0000
  C   C25       1.0  0.6514200000000002  0.95763  0.5541  1.0000
  C   C26       1.0  0.6794700000000005  0.99955  0.54893  1.0000
  C   C27       1.0  0.8051000000000003  0.04752  0.5874399999999999  1.0000
  C   C28       1.0  0.84291  0.08698  0.58207  1.0000
  C   C29       1.0  0.8120100000000002  0.11742  0.6258  1.0000
  C   C30       1.0  0.7183100000000001  0.14157999999999998  0.6382  1.0000
  C   C31       1.0  0.6881800000000001  0.1723  0.6814  1.0000
  C   C32       1.0  0.5944700000000004  0.19667  0.6936099999999998  1.0000
  C   C33       1.0  0.3684400000000001  0.8249099999999998  0.47079  1.0000
  C   C34       1.0  0.44312000000000007  0.79376  0.44521  1.0000
  C   C35       1.0  0.45213000000000003  0.74639  0.44553  1.0000
  C   C36       1.0  0.3870100000000001  0.72817  0.47117  1.0000
  C   C37       1.0  0.31307999999999997  0.75825  0.49614  1.0000
  C   C38       1.0  0.30225000000000013  0.80649  0.497  1.0000
  C   C39       1.0  0.22407000000000002  0.8353499999999999  0.52619  1.0000
  C   C40       1.0  0.13173000000000015  0.9480099999999998  0.56492  1.0000
  C   C41       1.0  0.05875000000000017  0.9787299999999998  0.59895  1.0000
  C   C42       1.0  0.08269999999999993  0.99049  0.64111  1.0000
  C   C43       1.0  0.10546000000000016  0.9482899999999997  0.67164  1.0000
  C   C44       1.0  0.13279000000000007  0.95927  0.7124899999999997  1.0000
  C   C45       1.0  0.1547400000000003  0.91634  0.74244  1.0000
  C   C46       1.0  0.78273  0.5839  0.54777  1.0000
  C   C47       1.0  0.7980600000000001  0.6264099999999998  0.54872  1.0000
  C   C48       1.0  0.7839600000000001  0.64685  0.59147  1.0000
  C   C49       1.0  0.7544800000000002  0.6230199999999999  0.6317  1.0000
  C   C50       1.0  0.7395  0.5808  0.62781  1.0000
  C   C51       1.0  0.8058900000000003  0.69113  0.5932  1.0000
  C   C52       1.0  0.55023  0.65167  0.81587  1.0000
  C   C53       1.0  0.5911900000000001  0.67529  0.7781  1.0000
  C   C54       1.0  0.58772  0.6702  0.73341  1.0000
  C   C55       1.0  0.54499  0.64061  0.7244  1.0000
  C   C56       1.0  0.5050800000000003  0.61687  0.76104  1.0000
  C   C57       1.0  0.5058400000000001  0.62184  0.80708  1.0000
  C   C58       1.0  0.45982  0.59697  0.84408  1.0000
  C   C59       1.0  0.39511000000000024  0.5919499999999998  0.96383  1.0000
  C   C60       1.0  0.34092999999999996  0.57238  0.0037899999999999995  1.0000
  C   C61       1.0  0.25117000000000006  0.60447  0.01937  1.0000
  C   C62       1.0  0.19939999999999994  0.58603  0.06327  1.0000
  C   C63       1.0  0.1060600000000002  0.6112399999999998  0.07488  1.0000
  C   C64       1.0  0.05529000000000012  0.5917199999999998  0.11841  1.0000
  C   C65       1.0  0.3856  0.74954  0.91125  1.0000
  C   C66       1.0  0.31752000000000025  0.78709  0.9103899999999999  1.0000
  C   C67       1.0  0.2410200000000001  0.77938  0.9125  1.0000
  C   C68       1.0  0.23797  0.7333999999999999  0.9146  1.0000
  C   C69       1.0  0.3092399999999999  0.69768  0.91511  1.0000
  C   C70       1.0  0.1668900000000001  0.8201799999999999  0.91285  1.0000
  C   C71       1.0  0.18146000000000015  0.5805099999999999  0.91798  1.0000
  C   C72       1.0  0.11540000000000011  0.6210399999999998  0.91852  1.0000
  C   C73       1.0  0.03391000000000008  0.62299  0.94378  1.0000
  C   C74       1.0  0.015370000000000042  0.5847399999999998  0.96981  1.0000
  C   C75       1.0  0.08010000000000005  0.54526  0.97107  1.0000
  C   C76       1.0  0.16337999999999991  0.54242  0.94597  1.0000
  C   C77       1.0  0.22828000000000023  0.50052  0.9512199999999997  1.0000
  C   C78       1.0  0.44053000000000014  0.4524399999999999  0.9124299999999999  1.0000
  C   C79       1.0  0.51222  0.41288  0.91799  1.0000
  C   C80       1.0  0.5554  0.3824  0.8743099999999999  1.0000
  C   C81       1.0  0.49812999999999996  0.35841  0.86186  1.0000
  C   C82       1.0  0.54189  0.32772  0.81862  1.0000
  C   C83       1.0  0.48473999999999995  0.3034  0.80642  1.0000
  C   C84       1.0  0.6636699999999999  0.67517  0.02919  1.0000
  C   C85       1.0  0.6817899999999999  0.70625  0.05467  1.0000
  C   C86       1.0  0.6440100000000001  0.75365  0.05427  1.0000
  C   C87       1.0  0.5862100000000001  0.77192  0.02872  1.0000
  C   C88       1.0  0.5668300000000001  0.7418999999999998  0.00401  1.0000
  C   C89       1.0  0.6050100000000003  0.6936299999999999  0.00314  1.0000
  C   C90       1.0  0.5850199999999999  0.6649099999999999  0.97381  1.0000
  C   C91       1.0  0.6439500000000002  0.55214  0.9354  1.0000
  C   C92       1.0  0.6363  0.52138  0.90123  1.0000
  C   C93       1.0  0.7141600000000007  0.50959  0.85903  1.0000
  C   C94       1.0  0.7251700000000001  0.55176  0.82849  1.0000
  C   C95       1.0  0.8043800000000001  0.54073  0.78764  1.0000
  C   C96       1.0  0.8134  0.5836  0.75764  1.0000
  C   C97       1.0  0.9140700000000002  0.9161799999999998  0.95224  1.0000
  C   C98       1.0  0.97291  0.8736399999999999  0.95128  1.0000
  C   C99       1.0  0.02205000000000007  0.8532  0.90852  1.0000
  C   C100      1.0  0.008980000000000068  0.8770499999999998  0.86831  1.0000
  C   C101      1.0  0.9478400000000002  0.9192799999999998  0.87219  1.0000
  C   C102      1.0  0.09010000000000006  0.8089199999999998  0.90681  1.0000
  C   C103      1.0  0.3667400000000001  0.6840699999999997  0.65179  1.0000
  C   C104      1.0  0.36987000000000003  0.72192  0.6753  1.0000
  C   C105      1.0  0.3214199999999999  0.76656  0.67026  1.0000
  C   C106      1.0  0.26934000000000013  0.7754499999999998  0.64085  1.0000
  C   C107      1.0  0.2658299999999999  0.7387  0.61741  1.0000
  C   C108      1.0  0.31282000000000004  0.69273  0.6223699999999999  1.0000
  C   C109      1.0  0.3032800000000001  0.6557499999999998  0.59772  1.0000
  C   C110      1.0  0.3592499999999999  0.53616  0.59202  1.0000
  C   C111      1.0  0.3449400000000002  0.4962699999999999  0.57245  1.0000
  C   C112      1.0  0.2706700000000002  0.4807899999999999  0.6045  1.0000
  C   C113      1.0  0.26290999999999987  0.43691  0.58601  1.0000
  C   C114      1.0  0.18117000000000003  0.42536  0.61126  1.0000
  C   C115      1.0  0.17403000000000002  0.3818299999999999  0.59171  1.0000
  C   C116      1.0  0.29706000000000005  0.58876  0.74939  1.0000
  C   C117      1.0  0.22817000000000015  0.58953  0.78697  1.0000
  C   C118      1.0  0.15376999999999996  0.58742  0.77927  1.0000
  C   C119      1.0  0.15284  0.58534  0.73325  1.0000
  C   C120      1.0  0.22458000000000003  0.58491  0.6975  1.0000
  C   C121      1.0  0.08001999999999995  0.58706  0.82012  1.0000
  C   C122      1.0  0.09849999999999992  0.58184  0.58072  1.0000
  C   C123      1.0  0.03310000000000004  0.58119  0.6213  1.0000
  C   C124      1.0  0.9770300000000003  0.5558799999999999  0.6231699999999999  1.0000
  C   C125      1.0  0.9846900000000001  0.52985  0.58485  1.0000
  C   C126      1.0  0.050600000000000006  0.52868  0.54536  1.0000
  C   C127      1.0  0.10855000000000002  0.5538699999999999  0.54257  1.0000
  C   C128      1.0  0.1785300000000001  0.5487699999999999  0.50061  1.0000
  C   C129      1.0  0.3519400000000002  0.5876099999999997  0.45273  1.0000
  C   C130      1.0  0.4293800000000001  0.58218  0.41327  1.0000
  C   C131      1.0  0.4290999999999999  0.6258  0.38274  1.0000
  C   C132      1.0  0.35969000000000007  0.6382299999999997  0.35851  1.0000
  C   C133      1.0  0.36044  0.68137  0.32775  1.0000
  C   C134      1.0  0.29113999999999995  0.6936  0.30338  1.0000
  C   C135      1.0  0.6936000000000001  0.4707699999999999  0.67509  1.0000
  C   C136      1.0  0.7370199999999998  0.44520999999999994  0.70626  1.0000
  C   C137      1.0  0.69851  0.44557  0.75366  1.0000
  C   C138      1.0  0.6151400000000002  0.4711999999999999  0.7718899999999997  1.0000
  C   C139      1.0  0.5713300000000002  0.4960099999999999  0.74177  1.0000
  C   C140      1.0  0.6088799999999999  0.49685999999999997  0.69351  1.0000
  C   C141      1.0  0.5597299999999998  0.52607  0.66463  1.0000
  C   C142      1.0  0.5800000000000001  0.56495  0.55205  1.0000
  C   C143      1.0  0.53789  0.5988999999999999  0.52127  1.0000
  C   C144      1.0  0.57333  0.64111  0.50947  1.0000
  C   C145      1.0  0.5537400000000005  0.6716499999999997  0.55169  1.0000
  C   C146      1.0  0.59204  0.71248  0.54071  1.0000
  C   C147      1.0  0.5709599999999998  0.74245  0.58366  1.0000
  C   C148      1.0  0.8662099999999999  0.54774  0.9160599999999998  1.0000
  C   C149      1.0  0.92425  0.54871  0.87356  1.0000
  C   C150      1.0  0.93074  0.59142  0.85316  1.0000
  C   C151      1.0  0.8773600000000003  0.6316099999999998  0.87705  1.0000
  C   C152      1.0  0.81994  0.62773  0.91923  1.0000
  C   C153      1.0  0.99714  0.59313  0.80889  1.0000
  C   C154      1.0  0.70227  0.8158399999999998  0.84834  1.0000
  C   C155      1.0  0.7668300000000001  0.7780699999999998  0.82466  1.0000
  C   C156      1.0  0.7581800000000002  0.7334299999999998  0.82974  1.0000
  C   C157      1.0  0.6857400000000001  0.72444  0.8592899999999999  1.0000
  C   C158      1.0  0.62205  0.76111  0.883  1.0000
  C   C159      1.0  0.6279599999999999  0.80708  0.87811  1.0000
  C   C160      1.0  0.5570100000000002  0.84404  0.90306  1.0000
  C   C161      1.0  0.48692000000000046  0.9636799999999998  0.9080999999999998  1.0000
  C   C162      1.0  0.41331000000000007  0.0037199999999999998  0.92763  1.0000
  C   C163      1.0  0.35572000000000015  0.01934  0.89553  1.0000
  C   C164      1.0  0.2855400000000001  0.06324999999999999  0.91398  1.0000
  C   C165      1.0  0.21749000000000007  0.07479999999999999  0.88874  1.0000
  C   C166      1.0  0.14712  0.11829999999999997  0.90828  1.0000
  C   C167      1.0  0.6352900000000001  0.91127  0.75044  1.0000
  C   C168      1.0  0.6046999999999999  0.9104  0.71293  1.0000
  C   C169      1.0  0.5205000000000001  0.9124599999999998  0.72068  1.0000
  C   C170      1.0  0.47144000000000014  0.9145999999999997  0.76674  1.0000
  C   C171      1.0  0.5070600000000002  0.91513  0.80241  1.0000
  C   C172      1.0  0.48722000000000015  0.9128199999999997  0.67987  1.0000
  C   C173      1.0  0.2613700000000001  0.9180799999999998  0.91929  1.0000
  C   C174      1.0  0.23577999999999988  0.91871  0.87877  1.0000
  C   C175      1.0  0.15621000000000032  0.9440199999999997  0.87689  1.0000
  C   C176      1.0  0.09947000000000014  0.97006  0.91521  1.0000
  C   C177      1.0  0.12480000000000031  0.9712899999999998  0.9546399999999998  1.0000
  C   C178      1.0  0.20522000000000015  0.9461299999999998  0.95741  1.0000
  C   C179      1.0  0.2279000000000001  0.95143  0.9993699999999999  1.0000
  C   C180      1.0  0.39200000000000007  0.9125499999999999  0.04748  1.0000
  C   C181      1.0  0.42453000000000013  0.9180299999999998  0.08689999999999998  1.0000
  C   C182      1.0  0.43750000000000006  0.8743799999999999  0.11732  1.0000
  C   C183      1.0  0.35629999999999995  0.86191  0.1415  1.0000
  C   C184      1.0  0.3695900000000002  0.8187099999999998  0.17216  1.0000
  C   C185      1.0  0.2881500000000001  0.80649  0.19658  1.0000
  C   C186      1.0  0.83947  0.029169999999999995  0.8249199999999999  1.0000
  C   C187      1.0  0.88854  0.05471  0.79378  1.0000
  C   C188      1.0  0.8977799999999998  0.05447999999999999  0.74638  1.0000
  C   C189      1.0  0.85838  0.02883  0.72814  1.0000
  C   C190      1.0  0.80934  0.00395  0.75821  1.0000
  C   C191      1.0  0.7993200000000001  0.0030899999999999994  0.8064799999999998  1.0000
  C   C192      1.0  0.7504000000000002  0.9738599999999997  0.8353  1.0000
  C   C193      1.0  0.6964000000000002  0.93539  0.94801  1.0000
  C   C194      1.0  0.6578700000000002  0.9012399999999998  0.97874  1.0000
  C   C195      1.0  0.7238500000000002  0.8589999999999998  0.9904999999999999  1.0000
  C   C196      1.0  0.7771  0.8284099999999998  0.9483  1.0000
  C   C197      1.0  0.8452599999999999  0.78754  0.9593  1.0000
  C   C198      1.0  0.8971899999999999  0.75758  0.91635  1.0000
  C   C199      1.0  0.33021000000000006  0.95219  0.58387  1.0000
  C   C200      1.0  0.3467600000000002  0.9512499999999998  0.62633  1.0000
  C   C201      1.0  0.37550000000000006  0.90852  0.64675  1.0000
  C   C202      1.0  0.3861000000000001  0.8683299999999998  0.62294  1.0000
  C   C203      1.0  0.3670100000000001  0.8721899999999998  0.58076  1.0000
  C   C204      1.0  0.3991600000000001  0.90681  0.69106  1.0000
  C   C205      1.0  0.98159  0.15168999999999994  0.31581  1.0000
  C   C206      1.0  0.9550599999999999  0.17536  0.278  1.0000
  C   C207      1.0  0.008540000000000035  0.17026  0.23333999999999994  1.0000
  C   C208      1.0  0.08994999999999999  0.1407  0.22437  1.0000
  C   C209      1.0  0.11677000000000001  0.11705999999999997  0.26109  1.0000
  C   C210      1.0  0.06473000000000002  0.12194999999999998  0.30706  1.0000
  C   C211      1.0  0.09883000000000002  0.097  0.34393  1.0000
  C   C212      1.0  0.049319999999999996  0.09209  0.46359  1.0000
  C   C213      1.0  0.08290000000000004  0.07246999999999998  0.50358  1.0000
  C   C214      1.0  0.12496000000000003  0.10446999999999997  0.51925  1.0000
  C   C215      1.0  0.15118  0.08598999999999997  0.56316  1.0000
  C   C216      1.0  0.20764  0.11122  0.57474  1.0000
  C   C217      1.0  0.2344  0.09167999999999997  0.61827  1.0000
  C   C218      1.0  0.95369  0.24948999999999996  0.41111  1.0000
  C   C219      1.0  0.9850100000000002  0.28701  0.41033  1.0000
  C   C220      1.0  0.06710000000000008  0.27929  0.41245999999999994  1.0000
  C   C221      1.0  0.11408999999999998  0.23327999999999993  0.41458  1.0000
  C   C222      1.0  0.07809  0.19758999999999993  0.415  1.0000
  C   C223      1.0  0.09998000000000001  0.32008  0.41289  1.0000
  C   C224      1.0  0.32034000000000007  0.08048999999999998  0.41792  1.0000
  C   C225      1.0  0.345  0.12107999999999997  0.4186  1.0000
  C   C226      1.0  0.39923999999999993  0.12300999999999997  0.44388  1.0000
  C   C227      1.0  0.43007  0.08472  0.46986999999999995  1.0000
  C   C228      1.0  0.40370000000000006  0.04523999999999999  0.47111  1.0000
  C   C229      1.0  0.34858  0.04237  0.4459  1.0000
  C   C230      1.0  0.32053000000000004  0.00045  0.45107  1.0000
  C   C231      1.0  0.19490000000000013  0.9524899999999997  0.41256  1.0000
  C   C232      1.0  0.15709  0.91302  0.41792  1.0000
  C   C233      1.0  0.18799000000000007  0.8825799999999999  0.3742  1.0000
  C   C234      1.0  0.28167999999999993  0.85842  0.3618  1.0000
  C   C235      1.0  0.31182  0.8277  0.3186  1.0000
  C   C236      1.0  0.4055300000000001  0.8033299999999998  0.30639  1.0000
  C   C237      1.0  0.63156  0.17508999999999994  0.52921  1.0000
  C   C238      1.0  0.5568800000000002  0.20624  0.5547899999999999  1.0000
  C   C239      1.0  0.5478700000000001  0.25361  0.55447  1.0000
  C   C240      1.0  0.6129900000000001  0.27183  0.52883  1.0000
  C   C241      1.0  0.6869100000000001  0.24174999999999996  0.50386  1.0000
  C   C242      1.0  0.6977500000000004  0.19351  0.503  1.0000
  C   C243      1.0  0.7759200000000003  0.16464999999999994  0.47381  1.0000
  C   C244      1.0  0.8682599999999999  0.05199  0.43508  1.0000
  C   C245      1.0  0.9412500000000003  0.021279999999999993  0.40105  1.0000
  C   C246      1.0  0.9173000000000001  0.009509999999999996  0.35889  1.0000
  C   C247      1.0  0.89454  0.05171  0.32836  1.0000
  C   C248      1.0  0.8672000000000001  0.04073  0.28751  1.0000
  C   C249      1.0  0.8452500000000001  0.08365999999999997  0.25756  1.0000
  C   C250      1.0  0.21726000000000006  0.41611  0.4522299999999999  1.0000
  C   C251      1.0  0.20193000000000003  0.37359  0.45128  1.0000
  C   C252      1.0  0.21604  0.35314999999999996  0.40853  1.0000
  C   C253      1.0  0.2455200000000002  0.37697999999999987  0.3683  1.0000
  C   C254      1.0  0.26049000000000005  0.4192  0.37219  1.0000
  C   C255      1.0  0.19411000000000006  0.30887  0.4068  1.0000
  C   C256      1.0  0.44977000000000006  0.34832999999999986  0.18413  1.0000
  C   C257      1.0  0.4088  0.32472  0.2219  1.0000
  C   C258      1.0  0.41227999999999987  0.32979999999999987  0.26659  1.0000
  C   C259      1.0  0.4550100000000001  0.3593899999999999  0.2756  1.0000
  C   C260      1.0  0.4949200000000001  0.3831299999999999  0.23896  1.0000
  C   C261      1.0  0.4941500000000001  0.3781599999999999  0.19291999999999998  1.0000
  C   C262      1.0  0.5401700000000002  0.4030299999999999  0.15592  1.0000
  C   C263      1.0  0.6048800000000001  0.4080499999999999  0.03615999999999999  1.0000
  C   C264      1.0  0.6590600000000001  0.42761999999999994  0.99621  1.0000
  C   C265      1.0  0.7488200000000003  0.39553  0.98063  1.0000
  C   C266      1.0  0.80059  0.4139699999999999  0.93673  1.0000
  C   C267      1.0  0.8939400000000001  0.38876  0.92512  1.0000
  C   C268      1.0  0.9447000000000003  0.40828  0.8815899999999999  1.0000
  C   C269      1.0  0.6144000000000002  0.25046  0.08875  1.0000
  C   C270      1.0  0.68247  0.21290999999999996  0.08961  1.0000
  C   C271      1.0  0.7589800000000002  0.22061999999999996  0.0875  1.0000
  C   C272      1.0  0.7620200000000001  0.2666  0.0854  1.0000
  C   C273      1.0  0.69075  0.3023299999999999  0.08489  1.0000
  C   C274      1.0  0.8331100000000002  0.17981999999999995  0.08715  1.0000
  C   C275      1.0  0.8185300000000001  0.41948999999999986  0.08201999999999997  1.0000
  C   C276      1.0  0.8846000000000002  0.3789599999999999  0.08147  1.0000
  C   C277      1.0  0.96609  0.37701  0.05622  1.0000
  C   C278      1.0  0.9846200000000005  0.4152599999999999  0.03019  1.0000
  C   C279      1.0  0.9199000000000002  0.45473999999999987  0.02893  1.0000
  C   C280      1.0  0.8366100000000007  0.45757999999999993  0.05403  1.0000
  C   C281      1.0  0.7717200000000001  0.4994799999999999  0.04878  1.0000
  C   C282      1.0  0.5594700000000002  0.54757  0.08757  1.0000
  C   C283      1.0  0.4877800000000001  0.5871199999999998  0.08201  1.0000
  C   C284      1.0  0.4446  0.6176  0.12569  1.0000
  C   C285      1.0  0.5018700000000001  0.64159  0.13814  1.0000
  C   C286      1.0  0.45810000000000006  0.6722799999999998  0.18138  1.0000
  C   C287      1.0  0.5152499999999999  0.6966  0.19358  1.0000
  C   C288      1.0  0.33633000000000013  0.3248299999999999  0.97081  1.0000
  C   C289      1.0  0.3182099999999999  0.29376  0.94533  1.0000
  C   C290      1.0  0.35598  0.24635999999999994  0.94572  1.0000
  C   C291      1.0  0.4137799999999999  0.22807999999999995  0.97128  1.0000
  C   C292      1.0  0.43317  0.25809999999999994  0.99599  1.0000
  C   C293      1.0  0.3949900000000002  0.30636999999999986  0.9968599999999999  1.0000
  C   C294      1.0  0.41498000000000007  0.3351  0.02619  1.0000
  C   C295      1.0  0.35605000000000014  0.44786  0.0646  1.0000
  C   C296      1.0  0.36369000000000007  0.4786199999999999  0.09877  1.0000
  C   C297      1.0  0.28584  0.4904099999999999  0.14097  1.0000
  C   C298      1.0  0.27482000000000006  0.44824  0.17151  1.0000
  C   C299      1.0  0.19562000000000004  0.4592799999999999  0.21236  1.0000
  C   C300      1.0  0.18659999999999993  0.4164  0.24235999999999996  1.0000
  C   C301      1.0  0.08592  0.08382  0.04775999999999999  1.0000
  C   C302      1.0  0.02708000000000002  0.12635999999999997  0.04871999999999999  1.0000
  C   C303      1.0  0.97795  0.1468  0.09147999999999998  1.0000
  C   C304      1.0  0.9910200000000001  0.12295  0.13169  1.0000
  C   C305      1.0  0.052149999999999995  0.08072  0.12781  1.0000
  C   C306      1.0  0.9098999999999999  0.19108  0.09319  1.0000
  C   C307      1.0  0.6332600000000002  0.3159299999999999  0.3482  1.0000
  C   C308      1.0  0.6301300000000001  0.2780799999999999  0.3247  1.0000
  C   C309      1.0  0.6785700000000001  0.23345  0.32974  1.0000
  C   C310      1.0  0.7306500000000001  0.22455  0.3591499999999999  1.0000
  C   C311      1.0  0.73416  0.2612999999999999  0.38258999999999993  1.0000
  C   C312      1.0  0.68718  0.30727999999999994  0.37763  1.0000
  C   C313      1.0  0.6967100000000003  0.34425  0.40227999999999997  1.0000
  C   C314      1.0  0.6407400000000002  0.46384  0.40798  1.0000
  C   C315      1.0  0.6550600000000001  0.50373  0.42755  1.0000
  C   C316      1.0  0.7293299999999999  0.51921  0.3955  1.0000
  C   C317      1.0  0.73709  0.5630999999999998  0.41399  1.0000
  C   C318      1.0  0.81882  0.57464  0.38874  1.0000
  C   C319      1.0  0.82597  0.6181699999999999  0.40829  1.0000
  C   C320      1.0  0.7029400000000001  0.41124  0.25061  1.0000
  C   C321      1.0  0.7718200000000002  0.4104699999999999  0.21302999999999997  1.0000
  C   C322      1.0  0.8462300000000001  0.41257999999999995  0.22073  1.0000
  C   C323      1.0  0.84716  0.41466  0.26675  1.0000
  C   C324      1.0  0.7754200000000002  0.4150899999999999  0.3025  1.0000
  C   C325      1.0  0.91998  0.41294  0.17988  1.0000
  C   C326      1.0  0.9014900000000001  0.41817  0.41928  1.0000
  C   C327      1.0  0.9669  0.4188099999999999  0.3787  1.0000
  C   C328      1.0  0.02297000000000003  0.4441199999999999  0.37683  1.0000
  C   C329      1.0  0.015310000000000025  0.4701499999999999  0.41515  1.0000
  C   C330      1.0  0.9494000000000004  0.4713199999999999  0.45464  1.0000
  C   C331      1.0  0.89145  0.44613  0.45743  1.0000
  C   C332      1.0  0.82146  0.45123  0.49939  1.0000
  C   C333      1.0  0.6480600000000001  0.41239  0.54727  1.0000
  C   C334      1.0  0.5706199999999999  0.4178199999999999  0.58673  1.0000
  C   C335      1.0  0.5709000000000004  0.3742  0.6172599999999999  1.0000
  C   C336      1.0  0.64031  0.36177  0.64148  1.0000
  C   C337      1.0  0.63955  0.31863  0.67225  1.0000
  C   C338      1.0  0.7088599999999999  0.30640999999999996  0.69662  1.0000
  C   C339      1.0  0.30639  0.52923  0.32491  1.0000
  C   C340      1.0  0.2629700000000001  0.5547899999999998  0.29374  1.0000
  C   C341      1.0  0.30148000000000025  0.5544299999999998  0.24633999999999995  1.0000
  C   C342      1.0  0.38486  0.5288  0.22810999999999998  1.0000
  C   C343      1.0  0.42867000000000016  0.50399  0.25822  1.0000
  C   C344      1.0  0.3911200000000001  0.5031399999999999  0.30649  1.0000
  C   C345      1.0  0.44026000000000015  0.4739299999999999  0.33536999999999995  1.0000
  C   C346      1.0  0.41999  0.43505  0.44795  1.0000
  C   C347      1.0  0.4621000000000003  0.4010999999999999  0.47873  1.0000
  C   C348      1.0  0.42666000000000004  0.3588899999999999  0.49053  1.0000
  C   C349      1.0  0.44626000000000016  0.32835  0.44831  1.0000
  C   C350      1.0  0.4079600000000003  0.2875199999999999  0.45929  1.0000
  C   C351      1.0  0.42904  0.25756  0.41634  1.0000
  C   C352      1.0  0.13379000000000005  0.4522599999999999  0.08394  1.0000
  C   C353      1.0  0.07574  0.45129  0.12644  1.0000
  C   C354      1.0  0.06926  0.40858  0.14684  1.0000
  C   C355      1.0  0.12263000000000003  0.3683899999999999  0.12295  1.0000
  C   C356      1.0  0.18005000000000004  0.37228  0.08076999999999998  1.0000
  C   C357      1.0  0.0028600000000000734  0.4068699999999999  0.19111  1.0000
  C   C358      1.0  0.29772  0.18416  0.15166  1.0000
  C   C359      1.0  0.23317000000000002  0.22192999999999993  0.17534  1.0000
  C   C360      1.0  0.24181999999999979  0.26657  0.17026  1.0000
  C   C361      1.0  0.31425000000000003  0.27555999999999997  0.14071  1.0000
  C   C362      1.0  0.37793999999999994  0.23889  0.117  1.0000
  C   C363      1.0  0.37203  0.19292  0.12188999999999997  1.0000
  C   C364      1.0  0.44298  0.15597  0.09694  1.0000
  C   C365      1.0  0.51307  0.03631999999999999  0.0919  1.0000
  C   C366      1.0  0.58668  0.99628  0.07237  1.0000
  C   C367      1.0  0.6442700000000001  0.9806699999999999  0.10447  1.0000
  C   C368      1.0  0.71446  0.93675  0.08602  1.0000
  C   C369      1.0  0.78251  0.9252  0.11125  1.0000
  C   C370      1.0  0.8528699999999999  0.8817  0.09172  1.0000
  C   C371      1.0  0.36471  0.08873  0.24956  1.0000
  C   C372      1.0  0.3953  0.08959999999999997  0.28707  1.0000
  C   C373      1.0  0.4795  0.08754  0.27932  1.0000
  C   C374      1.0  0.5285600000000003  0.08539999999999998  0.23326  1.0000
  C   C375      1.0  0.49293  0.08486999999999999  0.19759  1.0000
  C   C376      1.0  0.51277  0.08718999999999998  0.32013  1.0000
  C   C377      1.0  0.73862  0.08191999999999998  0.08071  1.0000
  C   C378      1.0  0.7642100000000002  0.08129  0.12123  1.0000
  C   C379      1.0  0.8437900000000004  0.05597999999999999  0.12311  1.0000
  C   C380      1.0  0.90053  0.02995  0.08479  1.0000
  C   C381      1.0  0.8751900000000002  0.02871  0.04536  1.0000
  C   C382      1.0  0.79478  0.05387999999999999  0.042589999999999996  1.0000
  C   C383      1.0  0.77209  0.04857  0.00063  1.0000
  C   C384      1.0  0.60799  0.08744999999999999  0.95252  1.0000
  C   C385      1.0  0.57547  0.08197  0.9131  1.0000
  C   C386      1.0  0.56249  0.12563  0.88268  1.0000
  C   C387      1.0  0.6436900000000001  0.13809  0.8584999999999999  1.0000
  C   C388      1.0  0.6304000000000003  0.18129  0.82783  1.0000
  C   C389      1.0  0.7118500000000001  0.19351  0.8034199999999999  1.0000
  C   C390      1.0  0.16052999999999998  0.97083  0.17507999999999996  1.0000
  C   C391      1.0  0.11146000000000013  0.9452899999999997  0.20622  1.0000
  C   C392      1.0  0.10222000000000012  0.9455299999999998  0.25362  1.0000
  C   C393      1.0  0.1416200000000001  0.9711699999999998  0.27186  1.0000
  C   C394      1.0  0.19065000000000001  0.99605  0.24178999999999995  1.0000
  C   C395      1.0  0.20067000000000007  0.99692  0.19352  1.0000
  C   C396      1.0  0.24960000000000002  0.026139999999999993  0.16469999999999999  1.0000
  C   C397      1.0  0.30359  0.06460999999999999  0.05199  1.0000
  C   C398      1.0  0.34212000000000004  0.09876  0.02126  1.0000
  C   C399      1.0  0.27614  0.14099999999999993  0.0095  1.0000
  C   C400      1.0  0.22289  0.17159  0.05169999999999999  1.0000
  C   C401      1.0  0.15473  0.21246  0.0407  1.0000
  C   C402      1.0  0.10280000000000004  0.24242  0.08365  1.0000
  C   C403      1.0  0.66979  0.04781  0.41613  1.0000
  C   C404      1.0  0.65324  0.04875  0.37367  1.0000
  C   C405      1.0  0.6245  0.09148  0.35325  1.0000
  C   C406      1.0  0.6138899999999999  0.13167  0.37706  1.0000
  C   C407      1.0  0.63298  0.12781  0.41924  1.0000
  C   C408      1.0  0.60083  0.09318999999999997  0.30894  1.0000
  N   N1        1.0  0.94728  0.89685  0.61177  1.0000
  N   N2        1.0  0.90647  0.92083  0.5793  1.0000
  N   N3        1.0  0.001040000000000022  0.79479  0.5864199999999999  1.0000
  N   N4        1.0  0.73322  0.0035399999999999993  0.5716  1.0000
  N   N5        1.0  0.7574699999999999  0.04456  0.56177  1.0000
  N   N6        1.0  0.2127400000000001  0.8809999999999998  0.53001  1.0000
  N   N7        1.0  0.1384499999999999  0.90367  0.56231  1.0000
  N   N8        1.0  0.7536899999999999  0.56128  0.58661  1.0000
  N   N9        1.0  0.45568  0.60311  0.88836  1.0000
  N   N10       1.0  0.40654  0.57911  0.92093  1.0000
  N   N11       1.0  0.3821200000000003  0.7053  0.9137899999999998  1.0000
  N   N12       1.0  0.30868000000000007  0.4964  0.92832  1.0000
  N   N13       1.0  0.3642200000000002  0.45534999999999987  0.9380199999999997  1.0000
  N   N14       1.0  0.6235100000000003  0.6192799999999999  0.96983  1.0000
  N   N15       1.0  0.6047000000000005  0.59662  0.9373399999999997  1.0000
  N   N16       1.0  0.9012200000000004  0.9387899999999998  0.9134  1.0000
  N   N17       1.0  0.34449000000000013  0.61155  0.60319  1.0000
  N   N18       1.0  0.32731999999999994  0.57906  0.5794  1.0000
  N   N19       1.0  0.29612000000000016  0.5863  0.7051099999999999  1.0000
  N   N20       1.0  0.23622000000000004  0.57147  0.4967199999999999  1.0000
  N   N21       1.0  0.3015000000000001  0.5618599999999998  0.45563  1.0000
  N   N22       1.0  0.59407  0.5299  0.61895  1.0000
  N   N23       1.0  0.5424700000000001  0.5623799999999998  0.5964299999999999  1.0000
  N   N24       1.0  0.8144000000000001  0.58655  0.93869  1.0000
  N   N25       1.0  0.5588400000000001  0.8883199999999998  0.89688  1.0000
  N   N26       1.0  0.48550000000000015  0.9208099999999998  0.92089  1.0000
  N   N27       1.0  0.5875700000000003  0.9137999999999998  0.79475  1.0000
  N   N28       1.0  0.3042800000000001  0.9285999999999998  0.00345  1.0000
  N   N29       1.0  0.3187800000000001  0.9383199999999998  0.04449  1.0000
  N   N30       1.0  0.74287  0.97007  0.88098  1.0000
  N   N31       1.0  0.7013600000000006  0.9375599999999997  0.9035499999999999  1.0000
  N   N32       1.0  0.3399299999999999  0.91337  0.56126  1.0000
  N   N33       1.0  0.05272000000000004  0.10314999999999998  0.38822999999999996  1.0000
  N   N34       1.0  0.09353000000000004  0.07916999999999998  0.4207  1.0000
  N   N35       1.0  0.9989600000000001  0.20520999999999995  0.41358  1.0000
  N   N36       1.0  0.2667800000000004  0.9964599999999999  0.4284  1.0000
  N   N37       1.0  0.24252000000000012  0.9554399999999998  0.43823  1.0000
  N   N38       1.0  0.7872500000000003  0.11899999999999997  0.46999  1.0000
  N   N39       1.0  0.8615500000000001  0.09633  0.43769  1.0000
  N   N40       1.0  0.24630000000000005  0.43872  0.41339  1.0000
  N   N41       1.0  0.54432  0.3969  0.11164  1.0000
  N   N42       1.0  0.5934600000000003  0.42089  0.07907  1.0000
  N   N43       1.0  0.61788  0.2947  0.08621  1.0000
  N   N44       1.0  0.6913100000000001  0.5036  0.07167999999999998  1.0000
  N   N45       1.0  0.6357700000000002  0.54465  0.06198  1.0000
  N   N46       1.0  0.37649  0.38072  0.03017  1.0000
  N   N47       1.0  0.3952900000000001  0.4033799999999999  0.06266  1.0000
  N   N48       1.0  0.09878000000000002  0.06120999999999999  0.08659  1.0000
  N   N49       1.0  0.65551  0.38845  0.39681  1.0000
  N   N50       1.0  0.6726700000000001  0.42095  0.4206  1.0000
  N   N51       1.0  0.7038700000000001  0.4136999999999999  0.29489  1.0000
  N   N52       1.0  0.7637700000000002  0.42854  0.50328  1.0000
  N   N53       1.0  0.69849  0.4381499999999999  0.54437  1.0000
  N   N54       1.0  0.40593000000000007  0.4700999999999999  0.38105  1.0000
  N   N55       1.0  0.45753  0.43762  0.40357  1.0000
  N   N56       1.0  0.18559000000000006  0.41344999999999993  0.06131  1.0000
  N   N57       1.0  0.4411600000000001  0.11167999999999997  0.10312  1.0000
  N   N58       1.0  0.5145  0.07919999999999998  0.07911  1.0000
  N   N59       1.0  0.4124200000000002  0.0862  0.20525  1.0000
  N   N60       1.0  0.6957200000000003  0.07139999999999998  0.99655  1.0000
  N   N61       1.0  0.6812199999999999  0.06168  0.95551  1.0000
  N   N62       1.0  0.25713  0.029939999999999994  0.11902  1.0000
  N   N63       1.0  0.29863  0.06244  0.09645  1.0000
  N   N64       1.0  0.6600700000000002  0.08662999999999997  0.43874  1.0000
  O   O1        1.0  0.07404000000000002  0.84143  0.64267  1.0000
  O   O2        1.0  0.82538  0.9305699999999999  0.66622  1.0000
  O   O3        1.0  0.02280000000000004  0.87694  0.52776  1.0000
  O   O4        1.0  0.72765  0.9195599999999998  0.6095  1.0000
  O   O5        1.0  0.65389  0.03175  0.52133  1.0000
  O   O6        1.0  0.8219400000000003  0.015429999999999998  0.61848  1.0000
  O   O7        1.0  0.36478999999999995  0.8697899999999998  0.46853  1.0000
  O   O8        1.0  0.16682000000000013  0.8160999999999998  0.54927  1.0000
  O   O9        1.0  0.18958000000000003  0.96633  0.53918  1.0000
  O   O10       1.0  0.55691  0.6587299999999998  0.85742  1.0000
  O   O11       1.0  0.42159000000000013  0.56948  0.8340299999999999  1.0000
  O   O12       1.0  0.4277000000000002  0.6228099999999998  0.97257  1.0000
  O   O13       1.0  0.2570800000000001  0.5805299999999998  0.8906999999999999  1.0000
  O   O14       1.0  0.20753000000000005  0.46838  0.97894  1.0000
  O   O15       1.0  0.45638  0.4845199999999999  0.8814  1.0000
  O   O16       1.0  0.70311  0.63033  0.03139  1.0000
  O   O17       1.0  0.5315600000000001  0.68427  0.95074  1.0000
  O   O18       1.0  0.6928300000000002  0.5337  0.962  1.0000
  O   O19       1.0  0.4156699999999999  0.64261  0.65857  1.0000
  O   O20       1.0  0.25360000000000005  0.6656599999999999  0.57104  1.0000
  O   O21       1.0  0.40106999999999987  0.52743  0.6227  1.0000
  O   O22       1.0  0.14657  0.60926  0.58069  1.0000
  O   O23       1.0  0.1852400000000001  0.5212999999999999  0.46826  1.0000
  O   O24       1.0  0.33659999999999995  0.61864  0.48486  1.0000
  O   O25       1.0  0.73505  0.4685899999999999  0.6302199999999998  1.0000
  O   O26       1.0  0.48327999999999965  0.54928  0.68387  1.0000
  O   O27       1.0  0.6560599999999999  0.53905  0.53367  1.0000
  O   O28       1.0  0.7161100000000001  0.8573599999999998  0.8414299999999999  1.0000
  O   O29       1.0  0.49137000000000003  0.83397  0.93061  1.0000
  O   O30       1.0  0.5505199999999999  0.97233  0.87719  1.0000
  O   O31       1.0  0.33691999999999994  0.89066  0.91932  1.0000
  O   O32       1.0  0.17466999999999996  0.97916  0.03149  1.0000
  O   O33       1.0  0.4396300000000001  0.8813499999999999  0.01547  1.0000
  O   O34       1.0  0.8337599999999998  0.03139  0.86981  1.0000
  O   O35       1.0  0.71638  0.9507  0.81607  1.0000
  O   O36       1.0  0.7271500000000002  0.9618399999999998  0.96641  1.0000
  O   O37       1.0  0.9259499999999999  0.15857  0.3573299999999999  1.0000
  O   O38       1.0  0.17462000000000003  0.06943999999999997  0.33377999999999997  1.0000
  O   O39       1.0  0.9772  0.12306  0.47224  1.0000
  O   O40       1.0  0.27235000000000015  0.08044  0.39049999999999996  1.0000
  O   O41       1.0  0.3461000000000002  0.9682499999999998  0.47867  1.0000
  O   O42       1.0  0.17806000000000016  0.9845799999999998  0.38152  1.0000
  O   O43       1.0  0.6352100000000002  0.13021  0.53147  1.0000
  O   O44       1.0  0.8331799999999999  0.1839  0.45073  1.0000
  O   O45       1.0  0.8104100000000001  0.03367  0.4608199999999999  1.0000
  O   O46       1.0  0.4430900000000003  0.34127  0.14258  1.0000
  O   O47       1.0  0.57841  0.43052  0.16597  1.0000
  O   O48       1.0  0.57229  0.37719  0.02743  1.0000
  O   O49       1.0  0.7429200000000004  0.41947  0.1093  1.0000
  O   O50       1.0  0.7924700000000001  0.53163  0.021059999999999995  1.0000
  O   O51       1.0  0.54361  0.51548  0.1186  1.0000
  O   O52       1.0  0.29689  0.36968  0.96861  1.0000
  O   O53       1.0  0.4684400000000001  0.3157399999999999  0.049259999999999984  1.0000
  O   O54       1.0  0.3071600000000001  0.4662999999999999  0.038  1.0000
  O   O55       1.0  0.5843300000000002  0.3573899999999999  0.34143  1.0000
  O   O56       1.0  0.7464000000000002  0.33435  0.4289599999999999  1.0000
  O   O57       1.0  0.5989200000000002  0.4725699999999999  0.3772999999999999  1.0000
  O   O58       1.0  0.85343  0.39075  0.41931  1.0000
  O   O59       1.0  0.8147499999999999  0.4787  0.53174  1.0000
  O   O60       1.0  0.66339  0.38136  0.51514  1.0000
  O   O61       1.0  0.2649400000000002  0.53141  0.36978  1.0000
  O   O62       1.0  0.51672  0.45072  0.31613  1.0000
  O   O63       1.0  0.34394000000000013  0.4609499999999999  0.46633  1.0000
  O   O64       1.0  0.28389  0.14265  0.15857  1.0000
  O   O65       1.0  0.50862  0.16603  0.06938999999999998  1.0000
  O   O66       1.0  0.44947  0.02768  0.12281  1.0000
  O   O67       1.0  0.6630700000000003  0.10934  0.08068  1.0000
  O   O68       1.0  0.82532  0.02084  0.96851  1.0000
  O   O69       1.0  0.5603699999999999  0.11865  0.98453  1.0000
  O   O70       1.0  0.16623000000000016  0.9686199999999998  0.13019  1.0000
  O   O71       1.0  0.28362  0.0493  0.18392999999999998  1.0000
  O   O72       1.0  0.27284  0.03816  0.03359  1.0000
