data_image0
_chemical_formula_structural       Mn24H336C624O96
_chemical_formula_sum              "Mn24 H336 C624 O96"
_cell_length_a       33.59651
_cell_length_b       33.59651
_cell_length_c       33.59651
_cell_angle_alpha    90.00983
_cell_angle_beta     90.00983
_cell_angle_gamma    90.00983

_symmetry_space_group_name_H-M    'P 1'
_symmetry_Int_Tables_number       1

loop_
  _symmetry_equiv_pos_as_xyz
  'x,y,z'

loop_
  _atom_site_type_symbol
  _atom_site_label
  _atom_site_symmetry_multiplicity
  _atom_site_fract_x
  _atom_site_fract_y
  _atom_site_fract_z
  _atom_site_occupancy
  Mn  Mn1       1.0  0.9567400000000001  0.25008  0.75013  1.0000
  Mn  Mn2       1.0  0.74985  0.54383  0.24971000000000002  1.0000
  Mn  Mn3       1.0  0.45753  0.24995  0.74993  1.0000
  Mn  Mn4       1.0  0.24994999999999998  0.74993  0.45753  1.0000
  Mn  Mn5       1.0  0.04321  0.24969000000000002  0.74996  1.0000
  Mn  Mn6       1.0  0.25008  0.75013  0.9567400000000001  1.0000
  Mn  Mn7       1.0  0.7501299999999997  0.95674  0.25008  1.0000
  Mn  Mn8       1.0  0.74996  0.04321  0.24969000000000002  1.0000
  Mn  Mn9       1.0  0.74993  0.45753  0.24995  1.0000
  Mn  Mn10      1.0  0.24968999999999997  0.74996  0.04321  1.0000
  Mn  Mn11      1.0  0.24970999999999996  0.74985  0.54383  1.0000
  Mn  Mn12      1.0  0.54383  0.24971000000000002  0.74985  1.0000
  Mn  Mn13      1.0  0.25006  0.5424699999999999  0.75005  1.0000
  Mn  Mn14      1.0  0.24985999999999997  0.04326  0.7499200000000003  1.0000
  Mn  Mn15      1.0  0.2500399999999999  0.95679  0.7503  1.0000
  Mn  Mn16      1.0  0.95679  0.7503  0.25004  1.0000
  Mn  Mn17      1.0  0.25014  0.45617  0.7502900000000001  1.0000
  Mn  Mn18      1.0  0.45617  0.75029  0.25014  1.0000
  Mn  Mn19      1.0  0.7503  0.25004  0.9567900000000001  1.0000
  Mn  Mn20      1.0  0.54247  0.75004  0.25006  1.0000
  Mn  Mn21      1.0  0.04324999999999999  0.74992  0.24986000000000003  1.0000
  Mn  Mn22      1.0  0.74992  0.24986  0.04326  1.0000
  Mn  Mn23      1.0  0.75004  0.25006  0.54247  1.0000
  Mn  Mn24      1.0  0.75028  0.25014  0.45617  1.0000
  H   H1        1.0  0.40883  0.86683  0.89264  1.0000
  H   H2        1.0  0.31852  0.6504  0.94784  1.0000
  H   H3        1.0  0.41284  0.53369  0.10093000000000003  1.0000
  H   H4        1.0  0.82558  0.92465  0.35558  1.0000
  H   H5        1.0  0.02718  0.04188  0.59334  1.0000
  H   H6        1.0  0.34909  0.68114  0.44761  1.0000
  H   H7        1.0  0.5246  0.58499  0.48099  1.0000
  H   H8        1.0  0.95776  0.52723  0.4065  1.0000
  H   H9        1.0  0.02432  0.5194  0.41484  1.0000
  H   H10       1.0  0.54216  0.52685  0.09282  1.0000
  H   H11       1.0  0.0189  0.52439  0.91555  1.0000
  H   H12       1.0  0.59091  0.10718  0.36716  1.0000
  H   H13       1.0  0.46601  0.58752  0.60101  1.0000
  H   H14       1.0  0.5188  0.08474  0.47576  1.0000
  H   H15       1.0  0.09251  0.63592  0.05850000000000002  1.0000
  H   H16       1.0  0.034319999999999996  0.91259  0.60089  1.0000
  H   H17       1.0  0.04249999999999999  0.90681  0.4730100000000001  1.0000
  H   H18       1.0  0.5930699999999998  0.47305  0.45812  1.0000
  H   H19       1.0  0.05842999999999999  0.40772  0.86399  1.0000
  H   H20       1.0  0.92447  0.14457  0.67363  1.0000
  H   H21       1.0  0.4476099999999999  0.34909  0.6811400000000002  1.0000
  H   H22       1.0  0.6504  0.94784  0.31852  1.0000
  H   H23       1.0  0.4122599999999999  0.9659300000000001  0.39927  1.0000
  H   H24       1.0  0.36381  0.90725  0.55873  1.0000
  H   H25       1.0  0.10092999999999998  0.41284  0.53369  1.0000
  H   H26       1.0  0.8668299999999998  0.89264  0.4088400000000001  1.0000
  H   H27       1.0  0.13605  0.59228  0.55866  1.0000
  H   H28       1.0  0.39927  0.41226  0.9659399999999999  1.0000
  H   H29       1.0  0.64453  0.42501  0.17447  1.0000
  H   H30       1.0  0.13601  0.90734  0.94159  1.0000
  H   H31       1.0  0.59228  0.55866  0.13605  1.0000
  H   H32       1.0  0.14456  0.6736299999999998  0.92447  1.0000
  H   H33       1.0  0.68115  0.05189  0.1511  1.0000
  H   H34       1.0  0.04188  0.59334  0.02718  1.0000
  H   H35       1.0  0.10737  0.13282  0.90888  1.0000
  H   H36       1.0  0.86392  0.44148  0.09278  1.0000
  H   H37       1.0  0.02425  0.9806799999999999  0.08468  1.0000
  H   H38       1.0  0.9414499999999999  0.36425  0.59218  1.0000
  H   H39       1.0  0.97532  0.58484  0.01951  1.0000
  H   H40       1.0  0.40877  0.63326  0.60705  1.0000
  H   H41       1.0  0.60101  0.46601  0.58752  1.0000
  H   H42       1.0  0.67363  0.92447  0.14457  1.0000
  H   H43       1.0  0.89264  0.40883  0.86683  1.0000
  H   H44       1.0  0.4757599999999999  0.5188  0.08474000000000001  1.0000
  H   H45       1.0  0.9068099999999998  0.47301  0.0425  1.0000
  H   H46       1.0  0.46576  0.91294  0.89883  1.0000
  H   H47       1.0  0.07557  0.17399  0.85544  1.0000
  H   H48       1.0  0.84842  0.55228  0.31875  1.0000
  H   H49       1.0  0.09309  0.95772  0.9729800000000001  1.0000
  H   H50       1.0  0.82576  0.57533  0.14486  1.0000
  H   H51       1.0  0.97298  0.09309  0.9577200000000001  1.0000
  H   H52       1.0  0.05849  0.09251  0.63592  1.0000
  H   H53       1.0  0.35528  0.67399  0.57509  1.0000
  H   H54       1.0  0.59334  0.027179999999999996  0.04188  1.0000
  H   H55       1.0  0.55873  0.36381  0.90726  1.0000
  H   H56       1.0  0.57509  0.35528  0.6739900000000001  1.0000
  H   H57       1.0  0.90734  0.94159  0.13601000000000002  1.0000
  H   H58       1.0  0.45812  0.59307  0.47306  1.0000
  H   H59       1.0  0.60705  0.40877  0.63326  1.0000
  H   H60       1.0  0.90849  0.39298  0.3667300000000001  1.0000
  H   H61       1.0  0.42491  0.32602  0.8548400000000003  1.0000
  H   H62       1.0  0.95772  0.9729800000000001  0.09309  1.0000
  H   H63       1.0  0.849  0.94814  0.18153  1.0000
  H   H64       1.0  0.5871999999999999  0.89929  0.03343  1.0000
  H   H65       1.0  0.026759999999999992  0.45786  0.9072200000000001  1.0000
  H   H66       1.0  0.9125899999999999  0.60089  0.03432  1.0000
  H   H67       1.0  0.9481399999999998  0.18153  0.849  1.0000
  H   H68       1.0  0.13282  0.90888  0.10737  1.0000
  H   H69       1.0  0.17399  0.85544  0.07557000000000001  1.0000
  H   H70       1.0  0.10086  0.08703  0.9660200000000001  1.0000
  H   H71       1.0  0.8668299999999998  0.60724  0.09153  1.0000
  H   H72       1.0  0.65074  0.55239  0.18154000000000006  1.0000
  H   H73       1.0  0.47305  0.45811999999999997  0.59307  1.0000
  H   H74       1.0  0.6359199999999998  0.0585  0.09251000000000002  1.0000
  H   H75       1.0  0.55866  0.13605  0.5922800000000003  1.0000
  H   H76       1.0  0.60089  0.03432  0.91259  1.0000
  H   H77       1.0  0.1334  0.5914  0.39291  1.0000
  H   H78       1.0  0.09282  0.54216  0.52686  1.0000
  H   H79       1.0  0.15114  0.81833  0.44788  1.0000
  H   H80       1.0  0.63326  0.60705  0.40877  1.0000
  H   H81       1.0  0.32605  0.64432  0.07527  1.0000
  H   H82       1.0  0.03343  0.5872  0.89929  1.0000
  H   H83       1.0  0.9760399999999999  0.91494  0.48075  1.0000
  H   H84       1.0  0.14486  0.82576  0.57533  1.0000
  H   H85       1.0  0.48073999999999995  0.97604  0.91494  1.0000
  H   H86       1.0  0.18153  0.849  0.94814  1.0000
  H   H87       1.0  0.68114  0.44761  0.34909  1.0000
  H   H88       1.0  0.18154  0.65074  0.55239  1.0000
  H   H89       1.0  0.57533  0.14486  0.82576  1.0000
  H   H90       1.0  0.89883  0.46576  0.91294  1.0000
  H   H91       1.0  0.3187499999999999  0.84842  0.55228  1.0000
  H   H92       1.0  0.44148  0.09278  0.86392  1.0000
  H   H93       1.0  0.5194  0.41484  0.02432  1.0000
  H   H94       1.0  0.89272  0.09086  0.63268  1.0000
  H   H95       1.0  0.91555  0.0189  0.52439  1.0000
  H   H96       1.0  0.5913999999999999  0.39291  0.1334  1.0000
  H   H97       1.0  0.01951  0.97532  0.58484  1.0000
  H   H98       1.0  0.9660200000000001  0.10086  0.08703000000000002  1.0000
  H   H99       1.0  0.44787999999999994  0.15114  0.8183300000000002  1.0000
  H   H100      1.0  0.1511  0.68115  0.05189000000000001  1.0000
  H   H101      1.0  0.63268  0.89272  0.09086  1.0000
  H   H102      1.0  0.89929  0.03343  0.5872  1.0000
  H   H103      1.0  0.05206  0.34935  0.81845  1.0000
  H   H104      1.0  0.3642499999999999  0.59218  0.94146  1.0000
  H   H105      1.0  0.8639899999999998  0.05843  0.40772  1.0000
  H   H106      1.0  0.55239  0.18154  0.65074  1.0000
  H   H107      1.0  0.98079  0.41529  0.47508  1.0000
  H   H108      1.0  0.55228  0.31875  0.84842  1.0000
  H   H109      1.0  0.36672999999999994  0.90849  0.39298  1.0000
  H   H110      1.0  0.52439  0.91555  0.0189  1.0000
  H   H111      1.0  0.85484  0.42491  0.32602  1.0000
  H   H112      1.0  0.98068  0.08468  0.02425  1.0000
  H   H113      1.0  0.96593  0.39927  0.4122600000000001  1.0000
  H   H114      1.0  0.9072499999999998  0.55873  0.36381  1.0000
  H   H115      1.0  0.09153  0.86683  0.60724  1.0000
  H   H116      1.0  0.08703  0.9660199999999999  0.10086000000000002  1.0000
  H   H117      1.0  0.47301  0.0425  0.90681  1.0000
  H   H118      1.0  0.44141  0.40778  0.6360300000000002  1.0000
  H   H119      1.0  0.41484  0.02432  0.5194  1.0000
  H   H120      1.0  0.08728  0.53437  0.39884  1.0000
  H   H121      1.0  0.39291  0.1334  0.5914  1.0000
  H   H122      1.0  0.52723  0.4065  0.9577600000000001  1.0000
  H   H123      1.0  0.8183299999999998  0.44788  0.15114000000000002  1.0000
  H   H124      1.0  0.94784  0.31852  0.6504  1.0000
  H   H125      1.0  0.91294  0.89883  0.46576  1.0000
  H   H126      1.0  0.58498  0.48099000000000003  0.5246  1.0000
  H   H127      1.0  0.91494  0.48075  0.97604  1.0000
  H   H128      1.0  0.59217  0.94146  0.36425  1.0000
  H   H129      1.0  0.4065  0.9577599999999998  0.52723  1.0000
  H   H130      1.0  0.08467  0.02425  0.98068  1.0000
  H   H131      1.0  0.58484  0.01951  0.9753200000000001  1.0000
  H   H132      1.0  0.81845  0.05206  0.34935  1.0000
  H   H133      1.0  0.36716  0.59091  0.10718000000000003  1.0000
  H   H134      1.0  0.67399  0.57509  0.35528  1.0000
  H   H135      1.0  0.45786  0.90722  0.02676  1.0000
  H   H136      1.0  0.94159  0.13601  0.90734  1.0000
  H   H137      1.0  0.41529  0.47508  0.98079  1.0000
  H   H138      1.0  0.4750799999999999  0.9807899999999999  0.41529000000000005  1.0000
  H   H139      1.0  0.08474  0.47576  0.5188  1.0000
  H   H140      1.0  0.40703  0.54176  0.9730000000000001  1.0000
  H   H141      1.0  0.07527  0.32605  0.6443200000000002  1.0000
  H   H142      1.0  0.10718  0.36716  0.59091  1.0000
  H   H143      1.0  0.39298  0.36673  0.9084900000000002  1.0000
  H   H144      1.0  0.35558  0.82558  0.92465  1.0000
  H   H145      1.0  0.09278  0.86392  0.44148  1.0000
  H   H146      1.0  0.39883999999999986  0.08728  0.53437  1.0000
  H   H147      1.0  0.52685  0.09282  0.54216  1.0000
  H   H148      1.0  0.40772  0.86399  0.05843000000000001  1.0000
  H   H149      1.0  0.48098  0.5246  0.58499  1.0000
  H   H150      1.0  0.85544  0.07557  0.17399000000000006  1.0000
  H   H151      1.0  0.32602  0.85484  0.42491  1.0000
  H   H152      1.0  0.09086  0.63268  0.89272  1.0000
  H   H153      1.0  0.9246499999999997  0.35558  0.82558  1.0000
  H   H154      1.0  0.17447  0.64453  0.42501  1.0000
  H   H155      1.0  0.973  0.40703  0.54176  1.0000
  H   H156      1.0  0.6443199999999999  0.07527  0.32605  1.0000
  H   H157      1.0  0.90888  0.10737  0.13283  1.0000
  H   H158      1.0  0.53369  0.10093  0.41284  1.0000
  H   H159      1.0  0.40778  0.63603  0.4414200000000001  1.0000
  H   H160      1.0  0.34935  0.81845  0.05206  1.0000
  H   H161      1.0  0.63603  0.44142  0.40778  1.0000
  H   H162      1.0  0.58752  0.60101  0.46601  1.0000
  H   H163      1.0  0.05188999999999999  0.1511  0.68115  1.0000
  H   H164      1.0  0.9072199999999998  0.02676  0.45786  1.0000
  H   H165      1.0  0.5417599999999998  0.973  0.4070300000000001  1.0000
  H   H166      1.0  0.53437  0.39884  0.08728  1.0000
  H   H167      1.0  0.60724  0.09153  0.86683  1.0000
  H   H168      1.0  0.42501  0.17447  0.64453  1.0000
  H   H169      1.0  0.18155  0.94794  0.65064  1.0000
  H   H170      1.0  0.91272  0.46562  0.60115  1.0000
  H   H171      1.0  0.34926  0.4476  0.81845  1.0000
  H   H172      1.0  0.13601  0.94156  0.59227  1.0000
  H   H173      1.0  0.32635999999999993  0.07553  0.8554300000000002  1.0000
  H   H174      1.0  0.07534  0.64441  0.17442  1.0000
  H   H175      1.0  0.40859  0.60709  0.86659  1.0000
  H   H176      1.0  0.9068999999999998  0.04227  0.02701  1.0000
  H   H177      1.0  0.81845  0.34926  0.4476  1.0000
  H   H178      1.0  0.53424  0.08705  0.10117  1.0000
  H   H179      1.0  0.08705  0.10117  0.53424  1.0000
  H   H180      1.0  0.8990699999999998  0.58715  0.46631  1.0000
  H   H181      1.0  0.39898  0.53398  0.41247  1.0000
  H   H182      1.0  0.40909  0.89281  0.63283  1.0000
  H   H183      1.0  0.05186  0.81846  0.151  1.0000
  H   H184      1.0  0.35546  0.57498  0.82552  1.0000
  H   H185      1.0  0.57509  0.67397  0.14515  1.0000
  H   H186      1.0  0.36672999999999994  0.39295  0.59123  1.0000
  H   H187      1.0  0.03398  0.89914  0.91297  1.0000
  H   H188      1.0  0.63575  0.40782  0.05854  1.0000
  H   H189      1.0  0.8184599999999997  0.151  0.05186  1.0000
  H   H190      1.0  0.45824  0.02699  0.59297  1.0000
  H   H191      1.0  0.02699  0.59297  0.45824  1.0000
  H   H192      1.0  0.4731399999999999  0.90718  0.45783  1.0000
  H   H193      1.0  0.48058999999999996  0.58516  0.9756800000000001  1.0000
  H   H194      1.0  0.04227  0.02701  0.9069  1.0000
  H   H195      1.0  0.03406  0.60073  0.58774  1.0000
  H   H196      1.0  0.3991  0.9656800000000001  0.0874  1.0000
  H   H197      1.0  0.9575  0.09318  0.52699  1.0000
  H   H198      1.0  0.35567  0.92473  0.67395  1.0000
  H   H199      1.0  0.59116  0.13317  0.10735000000000003  1.0000
  H   H200      1.0  0.05854  0.63575  0.4078200000000001  1.0000
  H   H201      1.0  0.54187  0.40692  0.52694  1.0000
  H   H202      1.0  0.052159999999999984  0.68147  0.3496  1.0000
  H   H203      1.0  0.5922199999999999  0.36396  0.55858  1.0000
  H   H204      1.0  0.0192  0.5847  0.52491  1.0000
  H   H205      1.0  0.0915  0.60701  0.63327  1.0000
  H   H206      1.0  0.09318  0.52698  0.9575000000000001  1.0000
  H   H207      1.0  0.9757399999999999  0.01932  0.91532  1.0000
  H   H208      1.0  0.40692  0.52694  0.54187  1.0000
  H   H209      1.0  0.55858  0.59222  0.36396000000000006  1.0000
  H   H210      1.0  0.44134  0.86394  0.40772  1.0000
  H   H211      1.0  0.47277  0.5935  0.04223  1.0000
  H   H212      1.0  0.13317  0.39276  0.90847  1.0000
  H   H213      1.0  0.90748  0.36407  0.9415  1.0000
  H   H214      1.0  0.59227  0.13601  0.94156  1.0000
  H   H215      1.0  0.36731  0.10727  0.9091400000000002  1.0000
  H   H216      1.0  0.82601  0.14455  0.92443  1.0000
  H   H217      1.0  0.47561  0.08445  0.9811  1.0000
  H   H218      1.0  0.94794  0.65064  0.18155  1.0000
  H   H219      1.0  0.58774  0.03406  0.60073  1.0000
  H   H220      1.0  0.91532  0.9757399999999999  0.01932  1.0000
  H   H221      1.0  0.59123  0.36673  0.39295  1.0000
  H   H222      1.0  0.18166  0.55211  0.84885  1.0000
  H   H223      1.0  0.6070899999999998  0.86659  0.40859  1.0000
  H   H224      1.0  0.4246699999999999  0.85514  0.17424  1.0000
  H   H225      1.0  0.98049  0.024679999999999997  0.41516  1.0000
  H   H226      1.0  0.86659  0.40859  0.60709  1.0000
  H   H227      1.0  0.92442  0.82601  0.14455000000000004  1.0000
  H   H228      1.0  0.97568  0.48059  0.58516  1.0000
  H   H229      1.0  0.36396  0.55858  0.59222  1.0000
  H   H230      1.0  0.4476  0.81845  0.34926  1.0000
  H   H231      1.0  0.09273999999999998  0.44127  0.63618  1.0000
  H   H232      1.0  0.59297  0.4582399999999999  0.027000000000000007  1.0000
  H   H233      1.0  0.9072199999999998  0.13607999999999998  0.55852  1.0000
  H   H234      1.0  0.90718  0.45783  0.47314  1.0000
  H   H235      1.0  0.52694  0.54187  0.40692  1.0000
  H   H236      1.0  0.64441  0.17442  0.07534  1.0000
  H   H237      1.0  0.46562  0.60115  0.91272  1.0000
  H   H238      1.0  0.52491  0.0192  0.58471  1.0000
  H   H239      1.0  0.14454999999999996  0.92442  0.82601  1.0000
  H   H240      1.0  0.82552  0.35546  0.57498  1.0000
  H   H241      1.0  0.68147  0.3496  0.05216  1.0000
  H   H242      1.0  0.09277  0.97323  0.54214  1.0000
  H   H243      1.0  0.58516  0.97568  0.4805900000000001  1.0000
  H   H244      1.0  0.32601  0.42491  0.64471  1.0000
  H   H245      1.0  0.55239  0.65091  0.31886  1.0000
  H   H246      1.0  0.40665  0.97281  0.9581099999999999  1.0000
  H   H247      1.0  0.55211  0.84885  0.18166  1.0000
  H   H248      1.0  0.97281  0.9581099999999999  0.40665  1.0000
  H   H249      1.0  0.91297  0.03398  0.89914  1.0000
  H   H250      1.0  0.09110999999999998  0.89262  0.86717  1.0000
  H   H251      1.0  0.58715  0.46631  0.89907  1.0000
  H   H252      1.0  0.07553  0.85543  0.32636  1.0000
  H   H253      1.0  0.53398  0.41247  0.39898  1.0000
  H   H254      1.0  0.5421399999999998  0.09278  0.97323  1.0000
  H   H255      1.0  0.60115  0.91272  0.46562  1.0000
  H   H256      1.0  0.63283  0.40909  0.89281  1.0000
  H   H257      1.0  0.05840999999999998  0.86398  0.09265  1.0000
  H   H258      1.0  0.01932  0.91532  0.97574  1.0000
  H   H259      1.0  0.51925  0.02396  0.08506  1.0000
  H   H260      1.0  0.52424  0.4812  0.91526  1.0000
  H   H261      1.0  0.9415  0.90748  0.3640700000000001  1.0000
  H   H262      1.0  0.9732299999999999  0.54214  0.09278  1.0000
  H   H263      1.0  0.14514999999999997  0.57509  0.67397  1.0000
  H   H264      1.0  0.89262  0.86717  0.09112  1.0000
  H   H265      1.0  0.40772  0.44134  0.86394  1.0000
  H   H266      1.0  0.04223  0.47277  0.5935  1.0000
  H   H267      1.0  0.34959999999999997  0.05216  0.68147  1.0000
  H   H268      1.0  0.02701  0.9069  0.04227  1.0000
  H   H269      1.0  0.46631  0.89907  0.58715  1.0000
  H   H270      1.0  0.08444  0.9811  0.4756100000000001  1.0000
  H   H271      1.0  0.13607999999999998  0.55852  0.9072200000000001  1.0000
  H   H272      1.0  0.5935  0.04223  0.47277  1.0000
  H   H273      1.0  0.44127  0.63618  0.09274  1.0000
  H   H274      1.0  0.3188599999999999  0.55239  0.6509100000000002  1.0000
  H   H275      1.0  0.41516  0.98049  0.02468  1.0000
  H   H276      1.0  0.86398  0.09265  0.05841  1.0000
  H   H277      1.0  0.08739999999999999  0.3991  0.96568  1.0000
  H   H278      1.0  0.89914  0.91297  0.03398  1.0000
  H   H279      1.0  0.92473  0.67395  0.35567  1.0000
  H   H280      1.0  0.86394  0.40772  0.44134  1.0000
  H   H281      1.0  0.41501  0.51901  0.4754  1.0000
  H   H282      1.0  0.94156  0.5922699999999999  0.13601000000000002  1.0000
  H   H283      1.0  0.63327  0.0915  0.60701  1.0000
  H   H284      1.0  0.02396  0.08506  0.51925  1.0000
  H   H285      1.0  0.15157  0.44772  0.68125  1.0000
  H   H286      1.0  0.55852  0.90722  0.13608000000000003  1.0000
  H   H287      1.0  0.90847  0.13317  0.39276  1.0000
  H   H288      1.0  0.17424  0.42467  0.85514  1.0000
  H   H289      1.0  0.90914  0.36731  0.10727  1.0000
  H   H290      1.0  0.84885  0.18165999999999996  0.55211  1.0000
  H   H291      1.0  0.64471  0.32601  0.42491  1.0000
  H   H292      1.0  0.68124  0.15157  0.44772  1.0000
  H   H293      1.0  0.67395  0.35567  0.92473  1.0000
  H   H294      1.0  0.09265  0.05841  0.86398  1.0000
  H   H295      1.0  0.13317  0.10735  0.59116  1.0000
  H   H296      1.0  0.39276  0.9084699999999999  0.13317  1.0000
  H   H297      1.0  0.024679999999999997  0.41516  0.98049  1.0000
  H   H298      1.0  0.85543  0.32636  0.07553  1.0000
  H   H299      1.0  0.51901  0.4754  0.41501  1.0000
  H   H300      1.0  0.10117  0.53424  0.08705  1.0000
  H   H301      1.0  0.17441999999999994  0.07534  0.64442  1.0000
  H   H302      1.0  0.10735  0.59116  0.13317  1.0000
  H   H303      1.0  0.4477199999999999  0.68125  0.15158  1.0000
  H   H304      1.0  0.1007  0.96656  0.4128000000000001  1.0000
  H   H305      1.0  0.4128  0.1007  0.96656  1.0000
  H   H306      1.0  0.96656  0.4128  0.1007  1.0000
  H   H307      1.0  0.36407  0.9415  0.90748  1.0000
  H   H308      1.0  0.63618  0.09274  0.44127  1.0000
  H   H309      1.0  0.4754  0.41501  0.5190100000000001  1.0000
  H   H310      1.0  0.60701  0.63327  0.0915  1.0000
  H   H311      1.0  0.96568  0.0874  0.3991  1.0000
  H   H312      1.0  0.41247  0.39898  0.53399  1.0000
  H   H313      1.0  0.4812  0.91526  0.5242400000000002  1.0000
  H   H314      1.0  0.65091  0.31886  0.55239  1.0000
  H   H315      1.0  0.5749799999999999  0.82552  0.35547  1.0000
  H   H316      1.0  0.31885  0.94811  0.8489000000000002  1.0000
  H   H317      1.0  0.52698  0.9574999999999999  0.09318  1.0000
  H   H318      1.0  0.89281  0.6328299999999999  0.40909  1.0000
  H   H319      1.0  0.5847  0.52491  0.019200000000000005  1.0000
  H   H320      1.0  0.9811  0.47561  0.08445000000000001  1.0000
  H   H321      1.0  0.40782  0.05854  0.6357500000000003  1.0000
  H   H322      1.0  0.10727  0.90914  0.36731  1.0000
  H   H323      1.0  0.39295  0.59123  0.3667300000000001  1.0000
  H   H324      1.0  0.08506  0.51925  0.023960000000000006  1.0000
  H   H325      1.0  0.60073  0.58774  0.03406  1.0000
  H   H326      1.0  0.84889  0.31885  0.94811  1.0000
  H   H327      1.0  0.42491  0.64471  0.32601  1.0000
  H   H328      1.0  0.151  0.05186  0.81846  1.0000
  H   H329      1.0  0.95811  0.40665  0.97281  1.0000
  H   H330      1.0  0.45783  0.47314  0.90718  1.0000
  H   H331      1.0  0.9481099999999998  0.8489  0.31885000000000013  1.0000
  H   H332      1.0  0.65064  0.18155  0.9479400000000002  1.0000
  H   H333      1.0  0.85514  0.17424  0.42467  1.0000
  H   H334      1.0  0.86717  0.09112  0.89263  1.0000
  H   H335      1.0  0.6739699999999998  0.14515  0.57509  1.0000
  H   H336      1.0  0.91526  0.52424  0.4812  1.0000
  C   C1        1.0  0.91352  0.9634700000000002  0.46569  1.0000
  C   C2        1.0  0.03385  0.58681  0.96387  1.0000
  C   C3        1.0  0.39752  0.94756  0.49777000000000005  1.0000
  C   C4        1.0  0.92189  0.41947  0.8758500000000002  1.0000
  C   C5        1.0  0.49501000000000006  0.12864  0.585  1.0000
  C   C6        1.0  0.9877999999999999  0.34893  0.81974  1.0000
  C   C7        1.0  0.04648  0.16556  0.86691  1.0000
  C   C8        1.0  0.13629  0.66905  0.025800000000000007  1.0000
  C   C9        1.0  0.55832  0.53351  0.49919  1.0000
  C   C10       1.0  0.13644  0.83046  0.47403000000000006  1.0000
  C   C11       1.0  0.36691  0.66549  0.54608  1.0000
  C   C12       1.0  0.86019  0.95622  0.4002700000000001  1.0000
  C   C13       1.0  0.31269  0.70568  0.51469  1.0000
  C   C14       1.0  0.59868  0.57443  0.45127  1.0000
  C   C15       1.0  0.65099  0.01206  0.31997  1.0000
  C   C16       1.0  0.9146999999999997  0.49513  0.37121  1.0000
  C   C17       1.0  0.585  0.49501  0.12864  1.0000
  C   C18       1.0  0.81252  0.48491  0.29413  1.0000
  C   C19       1.0  0.95622  0.40027  0.8601900000000001  1.0000
  C   C20       1.0  0.51469  0.31269  0.70568  1.0000
  C   C21       1.0  0.58072  0.42211  0.12433000000000001  1.0000
  C   C22       1.0  0.37561  0.9191999999999999  0.42225  1.0000
  C   C23       1.0  0.49919  0.55832  0.53351  1.0000
  C   C24       1.0  0.57783  0.41948  0.62432  1.0000
  C   C25       1.0  0.49513  0.37120999999999993  0.9147100000000002  1.0000
  C   C26       1.0  0.44194  0.50055  0.03333  1.0000
  C   C27       1.0  0.4151  0.62865  0.50499  1.0000
  C   C28       1.0  0.50274  0.52727  0.56117  1.0000
  C   C29       1.0  0.3961399999999999  0.64431  0.4705  1.0000
  C   C30       1.0  0.6691999999999998  0.47385  0.36377  1.0000
  C   C31       1.0  0.4150699999999999  0.87143  0.99476  1.0000
  C   C32       1.0  0.09974999999999998  0.63948  0.95629  1.0000
  C   C33       1.0  0.50499  0.4151  0.62865  1.0000
  C   C34       1.0  0.41947  0.87585  0.9219  1.0000
  C   C35       1.0  0.08668  0.53441  0.4634800000000001  1.0000
  C   C36       1.0  0.4638699999999999  0.4128  0.96573  1.0000
  C   C37       1.0  0.45657  0.36018  0.89985  1.0000
  C   C38       1.0  0.93932  0.99711  0.52703  1.0000
  C   C39       1.0  0.84821  0.48798  0.32016  1.0000
  C   C40       1.0  0.8981  0.99736  0.4476400000000001  1.0000
  C   C41       1.0  0.87127  0.50509  0.08535  1.0000
  C   C42       1.0  0.86691  0.04648  0.16556  1.0000
  C   C43       1.0  0.50251  0.9732599999999999  0.93874  1.0000
  C   C44       1.0  0.42225  0.37561  0.9192  1.0000
  C   C45       1.0  0.0985  0.54905  0.42545  1.0000
  C   C46       1.0  0.92541  0.45109  0.90172  1.0000
  C   C47       1.0  0.90172  0.92541  0.4510900000000001  1.0000
  C   C48       1.0  0.48807  0.18029  0.65107  1.0000
  C   C49       1.0  0.58025  0.07789  0.376  1.0000
  C   C50       1.0  0.53441  0.46348  0.08668  1.0000
  C   C51       1.0  0.05207  0.60221  0.9976900000000001  1.0000
  C   C52       1.0  0.89777  0.50243  0.05269  1.0000
  C   C53       1.0  0.52619  0.16951  0.6360600000000002  1.0000
  C   C54       1.0  0.04916  0.9014  0.5744  1.0000
  C   C55       1.0  0.33453  0.63284  0.0462  1.0000
  C   C56       1.0  0.6038699999999998  0.52955  0.14437  1.0000
  C   C57       1.0  0.97059  0.35586  0.60365  1.0000
  C   C58       1.0  0.41948  0.62432  0.5778300000000002  1.0000
  C   C59       1.0  0.9876599999999999  0.15128  0.67976  1.0000
  C   C60       1.0  0.08664  0.96571  0.03627  1.0000
  C   C61       1.0  0.35586  0.60365  0.97059  1.0000
  C   C62       1.0  0.94756  0.00245  0.10207  1.0000
  C   C63       1.0  0.50509  0.08535  0.8712700000000002  1.0000
  C   C64       1.0  0.03629  0.41334  0.53381  1.0000
  C   C65       1.0  0.46679  0.44143  0.9989799999999999  1.0000
  C   C66       1.0  0.54608  0.36691  0.66549  1.0000
  C   C67       1.0  0.01206  0.31997  0.65099  1.0000
  C   C68       1.0  0.02588  0.36401  0.83054  1.0000
  C   C69       1.0  0.40027  0.86019  0.95623  1.0000
  C   C70       1.0  0.54905  0.42544999999999994  0.0985  1.0000
  C   C71       1.0  0.62391  0.92206  0.08029  1.0000
  C   C72       1.0  0.07789  0.376  0.58025  1.0000
  C   C73       1.0  0.002469999999999999  0.060899999999999996  0.02696  1.0000
  C   C74       1.0  0.87143  0.99476  0.41507  1.0000
  C   C75       1.0  0.6865699999999999  0.01438  0.29359  1.0000
  C   C76       1.0  0.53335  0.00128  0.9416300000000002  1.0000
  C   C77       1.0  0.9014  0.5744  0.04916  1.0000
  C   C78       1.0  0.62432  0.57783  0.41948  1.0000
  C   C79       1.0  0.01437  0.29359  0.68657  1.0000
  C   C80       1.0  0.97075  0.14428  0.8959000000000003  1.0000
  C   C81       1.0  0.029279999999999994  0.3962  0.85568  1.0000
  C   C82       1.0  0.86322  0.52614  0.33076  1.0000
  C   C83       1.0  0.64412  0.02932  0.104  1.0000
  C   C84       1.0  0.49892  0.94219  0.96637  1.0000
  C   C85       1.0  0.54633  0.13325  0.83432  1.0000
  C   C86       1.0  0.104  0.64412  0.02932  1.0000
  C   C87       1.0  0.9977299999999999  0.9726499999999999  0.5610300000000003  1.0000
  C   C88       1.0  0.94756  0.49777000000000005  0.39752  1.0000
  C   C89       1.0  0.03627  0.08664  0.96571  1.0000
  C   C90       1.0  0.54846  0.07437  0.40166  1.0000
  C   C91       1.0  0.99736  0.4476399999999999  0.8981  1.0000
  C   C92       1.0  0.9130899999999997  0.53632  0.03457  1.0000
  C   C93       1.0  0.98512  0.31335  0.79341  1.0000
  C   C94       1.0  0.50243  0.05269  0.89777  1.0000
  C   C95       1.0  0.67976  0.98766  0.15128000000000005  1.0000
  C   C96       1.0  0.16556  0.86691  0.04648  1.0000
  C   C97       1.0  0.29359  0.68657  0.01438  1.0000
  C   C98       1.0  0.026979999999999994  0.49762999999999996  0.43864  1.0000
  C   C99       1.0  0.48797999999999997  0.32016  0.84821  1.0000
  C   C100      1.0  0.99475  0.41507  0.87143  1.0000
  C   C101      1.0  0.08535  0.87127  0.5050900000000003  1.0000
  C   C102      1.0  0.8304599999999999  0.47403  0.13644  1.0000
  C   C103      1.0  0.36018  0.89985  0.45657  1.0000
  C   C104      1.0  0.45108  0.90172  0.92541  1.0000
  C   C105      1.0  0.36377  0.6692  0.47385  1.0000
  C   C106      1.0  0.10427  0.85557  0.4706  1.0000
  C   C107      1.0  0.34893  0.81974  0.9878  1.0000
  C   C108      1.0  0.83054  0.02588  0.36401  1.0000
  C   C109      1.0  0.56117  0.50274  0.52727  1.0000
  C   C110      1.0  0.70568  0.51469  0.3127  1.0000
  C   C111      1.0  0.6284999999999998  0.99488  0.08492  1.0000
  C   C112      1.0  0.18667999999999996  0.70632  0.9853300000000002  1.0000
  C   C113      1.0  0.50055  0.03333  0.44195  1.0000
  C   C114      1.0  0.07803  0.12398999999999999  0.91942  1.0000
  C   C115      1.0  0.94219  0.96637  0.4989199999999999  1.0000
  C   C116      1.0  0.49776999999999993  0.39752  0.94756  1.0000
  C   C117      1.0  0.50116  0.46631  0.05803000000000001  1.0000
  C   C118      1.0  0.83422  0.95365  0.36713  1.0000
  C   C119      1.0  0.005089999999999999  0.37154  0.58471  1.0000
  C   C120      1.0  0.31997  0.65099  0.01206  1.0000
  C   C121      1.0  0.46569  0.91352  0.9634700000000002  1.0000
  C   C122      1.0  0.03333  0.44194  0.50055  1.0000
  C   C123      1.0  0.36713  0.83422  0.9536600000000001  1.0000
  C   C124      1.0  0.4128  0.9657299999999999  0.46387  1.0000
  C   C125      1.0  0.52703  0.93932  0.9971100000000002  1.0000
  C   C126      1.0  0.92574  0.0484  0.5984  1.0000
  C   C127      1.0  0.96387  0.03385  0.58681  1.0000
  C   C128      1.0  0.12398999999999999  0.91942  0.07803000000000003  1.0000
  C   C129      1.0  0.974  0.33071  0.6358100000000001  1.0000
  C   C130      1.0  0.54365  0.10011  0.8601600000000001  1.0000
  C   C131      1.0  0.3133499999999999  0.79341  0.9851199999999999  1.0000
  C   C132      1.0  0.02696  0.00247  0.0609  1.0000
  C   C133      1.0  0.08491  0.6285  0.9948800000000001  1.0000
  C   C134      1.0  0.20659  0.81336  0.014800000000000004  1.0000
  C   C135      1.0  0.4257899999999999  0.40111  0.95109  1.0000
  C   C136      1.0  0.46593  0.58694  0.53638  1.0000
  C   C137      1.0  0.55816  0.96691  0.00064  1.0000
  C   C138      1.0  0.4738499999999999  0.36377  0.6692  1.0000
  C   C139      1.0  0.02932  0.104  0.64412  1.0000
  C   C140      1.0  0.60219  0.50243  0.44783  1.0000
  C   C141      1.0  0.05803  0.50116  0.46631  1.0000
  C   C142      1.0  0.86375  0.9742399999999999  0.16941  1.0000
  C   C143      1.0  0.07438  0.0983  0.95117  1.0000
  C   C144      1.0  0.9220599999999998  0.08029  0.62391  1.0000
  C   C145      1.0  0.9562899999999999  0.09975  0.63948  1.0000
  C   C146      1.0  0.5984  0.92574  0.0484  1.0000
  C   C147      1.0  0.43911  0.47247  0.002550000000000001  1.0000
  C   C148      1.0  0.07437  0.40165999999999996  0.54846  1.0000
  C   C149      1.0  0.35562  0.89563  0.5296  1.0000
  C   C150      1.0  0.00245  0.10207  0.94756  1.0000
  C   C151      1.0  0.5296  0.35562  0.89563  1.0000
  C   C152      1.0  0.29413  0.81252  0.48491  1.0000
  C   C153      1.0  0.8959  0.97075  0.14429  1.0000
  C   C154      1.0  0.18013  0.84875  0.012360000000000003  1.0000
  C   C155      1.0  0.86016  0.54365  0.10011000000000003  1.0000
  C   C156      1.0  0.10207  0.94756  0.00245  1.0000
  C   C157      1.0  0.0436  0.36037  0.59957  1.0000
  C   C158      1.0  0.79341  0.51498  0.18671  1.0000
  C   C159      1.0  0.0462  0.33453  0.6328400000000001  1.0000
  C   C160      1.0  0.46631  0.05803  0.5011600000000003  1.0000
  C   C161      1.0  0.4706  0.10427  0.85557  1.0000
  C   C162      1.0  0.99711  0.52703  0.93932  1.0000
  C   C163      1.0  0.63284  0.0462  0.33453  1.0000
  C   C164      1.0  0.13325  0.83432  0.5463300000000001  1.0000
  C   C165      1.0  0.4974799999999999  0.102  0.5524  1.0000
  C   C166      1.0  0.48501999999999995  0.20652  0.68663  1.0000
  C   C167      1.0  0.9726500000000001  0.56103  0.99773  1.0000
  C   C168      1.0  0.0484  0.5984  0.92574  1.0000
  C   C169      1.0  0.45652  0.13988  0.59982  1.0000
  C   C170      1.0  0.57796  0.08089  0.87574  1.0000
  C   C171      1.0  0.65107  0.48807  0.18029  1.0000
  C   C172      1.0  0.97424  0.16941  0.8637500000000002  1.0000
  C   C173      1.0  0.91942  0.07803  0.12399  1.0000
  C   C174      1.0  0.5744  0.04916  0.9014  1.0000
  C   C175      1.0  0.16950999999999994  0.63606  0.5261900000000002  1.0000
  C   C176      1.0  0.6798  0.51198  0.34859  1.0000
  C   C177      1.0  0.96347  0.46569  0.91352  1.0000
  C   C178      1.0  0.48490999999999995  0.29413  0.81252  1.0000
  C   C179      1.0  0.01236  0.18013  0.84875  1.0000
  C   C180      1.0  0.44763999999999987  0.8981  0.9973600000000001  1.0000
  C   C181      1.0  0.8956299999999998  0.5296  0.35562  1.0000
  C   C182      1.0  0.06094  0.47304  0.4970300000000001  1.0000
  C   C183      1.0  0.81974  0.9877999999999999  0.34893  1.0000
  C   C184      1.0  0.95365  0.36713  0.83423  1.0000
  C   C185      1.0  0.89985  0.45657  0.36018  1.0000
  C   C186      1.0  0.47403  0.13644  0.8304600000000002  1.0000
  C   C187      1.0  0.34859  0.6798  0.51198  1.0000
  C   C188      1.0  0.36401  0.83054  0.02588  1.0000
  C   C189      1.0  0.66523  0.9535599999999999  0.13305  1.0000
  C   C190      1.0  0.62865  0.50499  0.4151  1.0000
  C   C191      1.0  0.16583  0.6329  0.45396  1.0000
  C   C192      1.0  0.033259999999999984  0.058019999999999995  0.99893  1.0000
  C   C193      1.0  0.4705  0.39614  0.64431  1.0000
  C   C194      1.0  0.79341  0.9851199999999999  0.31335  1.0000
  C   C195      1.0  0.98533  0.18668  0.70632  1.0000
  C   C196      1.0  0.14437  0.60387  0.52955  1.0000
  C   C197      1.0  0.58681  0.96387  0.03385  1.0000
  C   C198      1.0  0.13966  0.90008  0.04379  1.0000
  C   C199      1.0  0.0609  0.02696  0.00247  1.0000
  C   C200      1.0  0.05802  0.9989299999999999  0.033260000000000005  1.0000
  C   C201      1.0  0.00128  0.9416299999999999  0.53335  1.0000
  C   C202      1.0  0.64431  0.4705  0.3961400000000001  1.0000
  C   C203      1.0  0.83432  0.54633  0.13325  1.0000
  C   C204      1.0  0.43864  0.02698  0.4976300000000001  1.0000
  C   C205      1.0  0.4478299999999999  0.60219  0.50243  1.0000
  C   C206      1.0  0.58694  0.53638  0.46593  1.0000
  C   C207      1.0  0.9192  0.42225  0.3756100000000001  1.0000
  C   C208      1.0  0.70632  0.98533  0.18668  1.0000
  C   C209      1.0  0.53381  0.03629  0.41334  1.0000
  C   C210      1.0  0.57443  0.45127  0.59868  1.0000
  C   C211      1.0  0.46348  0.08668  0.53441  1.0000
  C   C212      1.0  0.93874  0.50251  0.97326  1.0000
  C   C213      1.0  0.37154  0.58471  0.00509  1.0000
  C   C214      1.0  0.49763  0.4386399999999999  0.02698  1.0000
  C   C215      1.0  0.0983  0.95117  0.07438  1.0000
  C   C216      1.0  0.9511699999999997  0.07438  0.09830000000000003  1.0000
  C   C217      1.0  0.81983  0.51221  0.15137  1.0000
  C   C218      1.0  0.40166  0.54846  0.07437  1.0000
  C   C219      1.0  0.16941  0.86375  0.97424  1.0000
  C   C220      1.0  0.63981  0.54348  0.40023  1.0000
  C   C221      1.0  0.6866299999999997  0.48502000000000006  0.20652  1.0000
  C   C222      1.0  0.85557  0.4706  0.10427  1.0000
  C   C223      1.0  0.10011  0.86016  0.54365  1.0000
  C   C224      1.0  0.08089  0.87574  0.57796  1.0000
  C   C225      1.0  0.9148599999999998  0.00522  0.12856  1.0000
  C   C226      1.0  0.20652  0.68663  0.48502  1.0000
  C   C227      1.0  0.9000799999999998  0.04379  0.13966  1.0000
  C   C228      1.0  0.33071  0.63581  0.974  1.0000
  C   C229      1.0  0.40111  0.95109  0.42579  1.0000
  C   C230      1.0  0.04379  0.13966  0.90008  1.0000
  C   C231      1.0  0.6036499999999998  0.9705899999999998  0.35586  1.0000
  C   C232      1.0  0.8665199999999998  0.4539  0.33454  1.0000
  C   C233      1.0  0.60221  0.99769  0.05207000000000001  1.0000
  C   C234      1.0  0.52727  0.56117  0.50274  1.0000
  C   C235      1.0  0.47304  0.4970300000000001  0.06094000000000001  1.0000
  C   C236      1.0  0.87585  0.92189  0.41947  1.0000
  C   C237      1.0  0.33076  0.86322  0.52614  1.0000
  C   C238      1.0  0.50243  0.44783  0.60219  1.0000
  C   C239      1.0  0.81336  0.0148  0.20659  1.0000
  C   C240      1.0  0.12433  0.58072  0.42211  1.0000
  C   C241      1.0  0.53632  0.03457  0.91309  1.0000
  C   C242      1.0  0.15136999999999995  0.81983  0.51221  1.0000
  C   C243      1.0  0.63606  0.52619  0.16951  1.0000
  C   C244      1.0  0.51498  0.18671  0.79341  1.0000
  C   C245      1.0  0.45389  0.33454  0.86652  1.0000
  C   C246      1.0  0.96691  0.00064  0.55816  1.0000
  C   C247      1.0  0.94163  0.53335  0.00128  1.0000
  C   C248      1.0  0.99893  0.03326  0.05802  1.0000
  C   C249      1.0  0.9732599999999999  0.93874  0.5025200000000002  1.0000
  C   C250      1.0  0.08029  0.62391  0.92206  1.0000
  C   C251      1.0  0.13305  0.66523  0.9535599999999999  1.0000
  C   C252      1.0  0.14428  0.8958999999999999  0.97075  1.0000
  C   C253      1.0  0.41334  0.53381  0.03630000000000001  1.0000
  C   C254      1.0  0.9989799999999999  0.46679  0.44143  1.0000
  C   C255      1.0  0.15127  0.67976  0.9876599999999999  1.0000
  C   C256      1.0  0.9657299999999999  0.46387  0.4128000000000001  1.0000
  C   C257      1.0  0.85568  0.02928  0.39620000000000005  1.0000
  C   C258      1.0  0.45396  0.16583  0.6329  1.0000
  C   C259      1.0  0.52955  0.14437  0.60387  1.0000
  C   C260      1.0  0.53638  0.46593  0.58694  1.0000
  C   C261      1.0  0.03457  0.91309  0.53632  1.0000
  C   C262      1.0  0.66549  0.54608  0.36691  1.0000
  C   C263      1.0  0.05269  0.89777  0.50243  1.0000
  C   C264      1.0  0.59957  0.0436  0.36037  1.0000
  C   C265      1.0  0.4970300000000001  0.06094  0.47304000000000007  1.0000
  C   C266      1.0  0.18671  0.79341  0.51498  1.0000
  C   C267      1.0  0.59982  0.45652  0.13988  1.0000
  C   C268      1.0  0.52614  0.33076  0.86322  1.0000
  C   C269      1.0  0.0148  0.20659  0.81336  1.0000
  C   C270      1.0  0.13988  0.59982  0.4565200000000001  1.0000
  C   C271      1.0  0.12856  0.91486  0.00522  1.0000
  C   C272      1.0  0.42545  0.0985  0.54905  1.0000
  C   C273      1.0  0.95109  0.42579  0.40111  1.0000
  C   C274      1.0  0.6329  0.45396  0.16583000000000006  1.0000
  C   C275      1.0  0.5519899999999998  0.00243  0.3980100000000001  1.0000
  C   C276      1.0  0.51198  0.34858999999999996  0.6798  1.0000
  C   C277      1.0  0.44143  0.99898  0.46679000000000004  1.0000
  C   C278      1.0  0.96571  0.03627  0.08664  1.0000
  C   C279      1.0  0.8757399999999999  0.57796  0.08089  1.0000
  C   C280      1.0  0.00243  0.39801  0.55199  1.0000
  C   C281      1.0  0.99769  0.05207  0.6022100000000001  1.0000
  C   C282      1.0  0.32016  0.84821  0.48798  1.0000
  C   C283      1.0  0.102  0.5524  0.49748  1.0000
  C   C284      1.0  0.66905  0.0258  0.13629  1.0000
  C   C285      1.0  0.00255  0.43911  0.4724700000000001  1.0000
  C   C286      1.0  0.5523999999999998  0.49748  0.102  1.0000
  C   C287      1.0  0.45127  0.59868  0.57443  1.0000
  C   C288      1.0  0.99488  0.08492  0.6285  1.0000
  C   C289      1.0  0.58471  0.00509  0.37154000000000004  1.0000
  C   C290      1.0  0.3962  0.85568  0.02928  1.0000
  C   C291      1.0  0.36037  0.59957  0.043600000000000014  1.0000
  C   C292      1.0  0.18029  0.65107  0.48807000000000006  1.0000
  C   C293      1.0  0.84875  0.01236  0.18013  1.0000
  C   C294      1.0  0.47247  0.00255  0.43911  1.0000
  C   C295      1.0  0.12864  0.585  0.49501000000000006  1.0000
  C   C296      1.0  0.9663599999999999  0.4989199999999999  0.94219  1.0000
  C   C297      1.0  0.40022  0.63981  0.54348  1.0000
  C   C298      1.0  0.00064  0.55816  0.9669100000000002  1.0000
  C   C299      1.0  0.51221  0.15137  0.81983  1.0000
  C   C300      1.0  0.37121  0.9147  0.49513  1.0000
  C   C301      1.0  0.63948  0.9562899999999999  0.09975000000000002  1.0000
  C   C302      1.0  0.376  0.58025  0.07789  1.0000
  C   C303      1.0  0.54348  0.40022  0.63981  1.0000
  C   C304      1.0  0.63581  0.9739999999999999  0.33071  1.0000
  C   C305      1.0  0.56103  0.99773  0.9726499999999999  1.0000
  C   C306      1.0  0.42211  0.12433  0.58072  1.0000
  C   C307      1.0  0.005219999999999999  0.12855999999999998  0.91486  1.0000
  C   C308      1.0  0.53351  0.4991900000000001  0.55832  1.0000
  C   C309      1.0  0.39801  0.55199  0.00243  1.0000
  C   C310      1.0  0.9535599999999999  0.13305  0.66523  1.0000
  C   C311      1.0  0.0258  0.13629  0.66905  1.0000
  C   C312      1.0  0.33454  0.86652  0.4539  1.0000
  C   C313      1.0  0.13309  0.95352  0.83444  1.0000
  C   C314      1.0  0.32023  0.012339999999999999  0.84872  1.0000
  C   C315      1.0  0.01466  0.81332  0.29367  1.0000
  C   C316      1.0  0.7934  0.18664  0.9852000000000001  1.0000
  C   C317      1.0  0.39779  0.00231  0.94793  1.0000
  C   C318      1.0  0.4972599999999999  0.47273  0.43883  1.0000
  C   C319      1.0  0.94731  0.10222  0.49756000000000006  1.0000
  C   C320      1.0  0.47038999999999986  0.64437  0.10437  1.0000
  C   C321      1.0  0.05243  0.50222  0.60247  1.0000
  C   C322      1.0  0.876  0.08057  0.92196  1.0000
  C   C323      1.0  0.54347  0.86012  0.40017  1.0000
  C   C324      1.0  0.00106  0.96673  0.94198  1.0000
  C   C325      1.0  0.04634  0.63286  0.16577  1.0000
  C   C326      1.0  0.9221  0.624  0.41975  1.0000
  C   C327      1.0  0.5365199999999999  0.91331  0.46559  1.0000
  C   C328      1.0  0.59889  0.0489  0.5742100000000002  1.0000
  C   C329      1.0  0.63962  0.40042  0.9563900000000001  1.0000
  C   C330      1.0  0.92561  0.9017  0.04883  1.0000
  C   C331      1.0  0.45652  0.59977  0.36019  1.0000
  C   C332      1.0  0.16568  0.45367  0.86674  1.0000
  C   C333      1.0  0.87143  0.08513  0.99478  1.0000
  C   C334      1.0  0.99745  0.56089  0.5275200000000002  1.0000
  C   C335      1.0  0.89799  0.4476  0.50251  1.0000
  C   C336      1.0  0.89792  0.05244  0.9975500000000002  1.0000
  C   C337      1.0  0.8603299999999998  0.09992  0.95621  1.0000
  C   C338      1.0  0.89988  0.13984  0.4563500000000001  1.0000
  C   C339      1.0  0.37608999999999987  0.07793  0.91971  1.0000
  C   C340      1.0  0.89572  0.14442  0.5294  1.0000
  C   C341      1.0  0.57774  0.62439  0.0808  1.0000
  C   C342      1.0  0.95621  0.86033  0.09992000000000001  1.0000
  C   C343      1.0  0.40158999999999995  0.07425  0.9516  1.0000
  C   C344      1.0  0.35569  0.5295  0.60386  1.0000
  C   C345      1.0  0.85571  0.1041  0.02924  1.0000
  C   C346      1.0  0.05244  0.99755  0.89792  1.0000
  C   C347      1.0  0.04883  0.9256099999999999  0.9017  1.0000
  C   C348      1.0  0.91465  0.12873  0.49491  1.0000
  C   C349      1.0  0.9741099999999999  0.63599  0.16946  1.0000
  C   C350      1.0  0.58493  0.12857  0.00524  1.0000
  C   C351      1.0  0.81987  0.15125  0.98764  1.0000
  C   C352      1.0  0.51497  0.79347  0.31337  1.0000
  C   C353      1.0  0.14431  0.97072  0.6038  1.0000
  C   C354      1.0  0.50222  0.60247  0.05244  1.0000
  C   C355      1.0  0.44801  0.99756  0.60198  1.0000
  C   C356      1.0  0.20659  0.01487  0.68664  1.0000
  C   C357      1.0  0.9150799999999998  0.37149  0.00512  1.0000
  C   C358      1.0  0.10222  0.49756  0.94731  1.0000
  C   C359      1.0  0.36709  0.54603  0.8341700000000002  1.0000
  C   C360      1.0  0.94197  0.00107  0.96674  1.0000
  C   C361      1.0  0.96543  0.08691  0.46368000000000004  1.0000
  C   C362      1.0  0.33477  0.046439999999999995  0.8669400000000003  1.0000
  C   C363      1.0  0.58665  0.46618  0.9637000000000001  1.0000
  C   C364      1.0  0.59834  0.45153  0.9256300000000002  1.0000
  C   C365      1.0  0.37149  0.00512  0.9150800000000002  1.0000
  C   C366      1.0  0.13677  0.47386  0.66924  1.0000
  C   C367      1.0  0.53321  0.55856  0.00102  1.0000
  C   C368      1.0  0.99935  0.44183  0.033090000000000015  1.0000
  C   C369      1.0  0.87136  0.415  0.50498  1.0000
  C   C370      1.0  0.7063999999999999  0.31343  0.98562  1.0000
  C   C371      1.0  0.48800999999999994  0.65141  0.32019  1.0000
  C   C372      1.0  0.04371  0.90025  0.36052  1.0000
  C   C373      1.0  0.55805  0.49945  0.9666700000000001  1.0000
  C   C374      1.0  0.42217  0.58052  0.37567  1.0000
  C   C375      1.0  0.02734  0.43897  0.00227  1.0000
  C   C376      1.0  0.56136  0.9730099999999999  0.50237  1.0000
  C   C377      1.0  0.66546  0.36716  0.9538000000000001  1.0000
  C   C378      1.0  0.47386  0.66924  0.13677  1.0000
  C   C379      1.0  0.58053  0.12415  0.0781  1.0000
  C   C380      1.0  0.65141  0.32019  0.48802  1.0000
  C   C381      1.0  0.58052  0.37567  0.42217  1.0000
  C   C382      1.0  0.014869999999999998  0.68664  0.20659  1.0000
  C   C383      1.0  0.50487  0.62878  0.08529  1.0000
  C   C384      1.0  0.13625  0.02575  0.83059  1.0000
  C   C385      1.0  0.18747  0.51509  0.70587  1.0000
  C   C386      1.0  0.39635  0.02941  0.64414  1.0000
  C   C387      1.0  0.09826999999999998  0.07459  0.54891  1.0000
  C   C388      1.0  0.64437  0.10437  0.4704  1.0000
  C   C389      1.0  0.16953  0.52597  0.86355  1.0000
  C   C390      1.0  0.41318  0.03612  0.96614  1.0000
  C   C391      1.0  0.54603  0.83417  0.36710000000000004  1.0000
  C   C392      1.0  0.50498  0.87136  0.415  1.0000
  C   C393      1.0  0.09859  0.4256  0.95084  1.0000
  C   C394      1.0  0.46649  0.5008  0.44167  1.0000
  C   C395      1.0  0.49755999999999995  0.94731  0.10222  1.0000
  C   C396      1.0  0.15179  0.51201  0.67983  1.0000
  C   C397      1.0  0.85563  0.39613  0.47045  1.0000
  C   C398      1.0  0.63623  0.3308  0.52614  1.0000
  C   C399      1.0  0.99478  0.87143  0.08513  1.0000
  C   C400      1.0  0.4704399999999999  0.85563  0.39613  1.0000
  C   C401      1.0  0.59973  0.13981  0.04377  1.0000
  C   C402      1.0  0.31337  0.51497  0.79347  1.0000
  C   C403      1.0  0.70587  0.18747  0.51509  1.0000
  C   C404      1.0  0.5871999999999999  0.03427  0.53613  1.0000
  C   C405      1.0  0.18663  0.9852000000000001  0.7934  1.0000
  C   C406      1.0  0.9535200000000001  0.83444  0.13309  1.0000
  C   C407      1.0  0.46361  0.53407  0.41306  1.0000
  C   C408      1.0  0.52597  0.86355  0.16953  1.0000
  C   C409      1.0  0.35588  0.97067  0.896  1.0000
  C   C410      1.0  0.9856199999999999  0.7064  0.31343  1.0000
  C   C411      1.0  0.9637  0.58665  0.46618  1.0000
  C   C412      1.0  0.47272999999999993  0.43883  0.49726  1.0000
  C   C413      1.0  0.415  0.50498  0.8713600000000001  1.0000
  C   C414      1.0  0.4853  0.6873  0.29432  1.0000
  C   C415      1.0  0.55216  0.3978  0.49757  1.0000
  C   C416      1.0  0.9563900000000001  0.63962  0.40042  1.0000
  C   C417      1.0  0.4004199999999999  0.95639  0.63962  1.0000
  C   C418      1.0  0.41306  0.46361  0.53407  1.0000
  C   C419      1.0  0.4666499999999999  0.99871  0.058370000000000005  1.0000
  C   C420      1.0  0.87567  0.41928  0.5778900000000001  1.0000
  C   C421      1.0  0.99871  0.05837  0.46665  1.0000
  C   C422      1.0  0.9191  0.12426000000000001  0.42204  1.0000
  C   C423      1.0  0.50107  0.05781  0.03363  1.0000
  C   C424      1.0  0.00227  0.02734  0.43897  1.0000
  C   C425      1.0  0.00263  0.55235  0.1019  1.0000
  C   C426      1.0  0.0808  0.57774  0.62439  1.0000
  C   C427      1.0  0.4255699999999999  0.54873  0.40132  1.0000
  C   C428      1.0  0.32019  0.48801  0.65141  1.0000
  C   C429      1.0  0.08690999999999997  0.46368  0.96543  1.0000
  C   C430      1.0  0.07793  0.91971  0.3760900000000001  1.0000
  C   C431      1.0  0.05837  0.46665  0.99871  1.0000
  C   C432      1.0  0.36419  0.026  0.6692900000000003  1.0000
  C   C433      1.0  0.57421  0.59889  0.0489  1.0000
  C   C434      1.0  0.41928  0.57789  0.87567  1.0000
  C   C435      1.0  0.96373  0.91336  0.03429  1.0000
  C   C436      1.0  0.5343  0.08648  0.03653000000000001  1.0000
  C   C437      1.0  0.57455  0.90149  0.45094  1.0000
  C   C438      1.0  0.48778  0.84863  0.18017000000000002  1.0000
  C   C439      1.0  0.54873  0.40132  0.42557  1.0000
  C   C440      1.0  0.00512  0.91508  0.37149  1.0000
  C   C441      1.0  0.4476  0.50251  0.89799  1.0000
  C   C442      1.0  0.6873  0.29432  0.48530000000000006  1.0000
  C   C443      1.0  0.50251  0.8979899999999998  0.4476  1.0000
  C   C444      1.0  0.5295  0.60386  0.35569  1.0000
  C   C445      1.0  0.012339999999999999  0.84872  0.32023  1.0000
  C   C446      1.0  0.4418299999999999  0.03309  0.99935  1.0000
  C   C447      1.0  0.03653  0.5343  0.08648  1.0000
  C   C448      1.0  0.5585599999999998  0.00102  0.53321  1.0000
  C   C449      1.0  0.03309  0.99935  0.44183  1.0000
  C   C450      1.0  0.45390999999999987  0.63309  0.33451  1.0000
  C   C451      1.0  0.99756  0.60198  0.44801000000000013  1.0000
  C   C452      1.0  0.94793  0.39779  0.00231  1.0000
  C   C453      1.0  0.49491  0.91465  0.12873  1.0000
  C   C454      1.0  0.18026  0.0122  0.65106  1.0000
  C   C455      1.0  0.34893  0.51192  0.8197  1.0000
  C   C456      1.0  0.41975  0.9221  0.624  1.0000
  C   C457      1.0  0.84872  0.32023  0.01234  1.0000
  C   C458      1.0  0.98794  0.68003  0.34901  1.0000
  C   C459      1.0  0.36052  0.04371  0.90025  1.0000
  C   C460      1.0  0.55235  0.1019  0.002630000000000001  1.0000
  C   C461      1.0  0.10409  0.02924  0.85571  1.0000
  C   C462      1.0  0.60198  0.44801  0.9975599999999999  1.0000
  C   C463      1.0  0.00524  0.58493  0.12857  1.0000
  C   C464      1.0  0.42559999999999987  0.95084  0.09859000000000002  1.0000
  C   C465      1.0  0.16577  0.04634  0.63286  1.0000
  C   C466      1.0  0.06067  0.00289  0.47296  1.0000
  C   C467      1.0  0.68664  0.20659  0.014870000000000001  1.0000
  C   C468      1.0  0.29432  0.4853  0.6873  1.0000
  C   C469      1.0  0.9852  0.7934  0.18664  1.0000
  C   C470      1.0  0.07459  0.54891  0.09828  1.0000
  C   C471      1.0  0.6800299999999998  0.34901  0.98794  1.0000
  C   C472      1.0  0.49945  0.96667  0.55805  1.0000
  C   C473      1.0  0.52614  0.63623  0.3308  1.0000
  C   C474      1.0  0.90149  0.45094  0.5745500000000002  1.0000
  C   C475      1.0  0.63599  0.16945  0.97411  1.0000
  C   C476      1.0  0.44167  0.46649  0.5008  1.0000
  C   C477      1.0  0.83059  0.13625  0.02576  1.0000
  C   C478      1.0  0.45153  0.92563  0.59834  1.0000
  C   C479      1.0  0.92196  0.876  0.08057  1.0000
  C   C480      1.0  0.9730099999999999  0.50237  0.56136  1.0000
  C   C481      1.0  0.8197  0.34893  0.51192  1.0000
  C   C482      1.0  0.91971  0.37609  0.07793  1.0000
  C   C483      1.0  0.99491  0.62846  0.41528  1.0000
  C   C484      1.0  0.94196  0.49884  0.53369  1.0000
  C   C485      1.0  0.49883999999999995  0.53369  0.94196  1.0000
  C   C486      1.0  0.20659  0.48501  0.81329  1.0000
  C   C487      1.0  0.45367  0.86674  0.16568  1.0000
  C   C488      1.0  0.12857  0.00524  0.58493  1.0000
  C   C489      1.0  0.59977  0.36019  0.4565200000000001  1.0000
  C   C490      1.0  0.83417  0.36709  0.54603  1.0000
  C   C491      1.0  0.02924  0.8557099999999999  0.1041  1.0000
  C   C492      1.0  0.99755  0.89792  0.05244  1.0000
  C   C493      1.0  0.5849  0.37135  0.49501000000000006  1.0000
  C   C494      1.0  0.02673  0.06126  0.49748  1.0000
  C   C495      1.0  0.5008  0.44167  0.46649  1.0000
  C   C496      1.0  0.08512999999999997  0.99478  0.87143  1.0000
  C   C497      1.0  0.624  0.41975  0.9221  1.0000
  C   C498      1.0  0.896  0.35588  0.97067  1.0000
  C   C499      1.0  0.91336  0.03429  0.9637300000000001  1.0000
  C   C500      1.0  0.4509399999999999  0.57455  0.90149  1.0000
  C   C501      1.0  0.96673  0.94197  0.00107  1.0000
  C   C502      1.0  0.0010199999999999999  0.53321  0.55856  1.0000
  C   C503      1.0  0.42204  0.9191  0.12426  1.0000
  C   C504      1.0  0.03429  0.9637300000000001  0.91336  1.0000
  C   C505      1.0  0.1019  0.00263  0.55235  1.0000
  C   C506      1.0  0.62846  0.4152799999999999  0.9949100000000001  1.0000
  C   C507      1.0  0.97303  0.99752  0.9391  1.0000
  C   C508      1.0  0.08057  0.92196  0.8760000000000001  1.0000
  C   C509      1.0  0.60247  0.05243  0.50222  1.0000
  C   C510      1.0  0.00289  0.47296  0.06067  1.0000
  C   C511      1.0  0.09992  0.95621  0.86033  1.0000
  C   C512      1.0  0.9133099999999997  0.46559  0.53652  1.0000
  C   C513      1.0  0.8637  0.33094  0.9742  1.0000
  C   C514      1.0  0.15125  0.9876400000000001  0.81987  1.0000
  C   C515      1.0  0.84863  0.18017  0.48778  1.0000
  C   C516      1.0  0.10015  0.54342  0.63981  1.0000
  C   C517      1.0  0.08529  0.50487  0.62878  1.0000
  C   C518      1.0  0.36716  0.9537999999999999  0.66546  1.0000
  C   C519      1.0  0.4738  0.83048  0.36394  1.0000
  C   C520      1.0  0.33451  0.45391  0.6330900000000003  1.0000
  C   C521      1.0  0.86012  0.40017  0.54347  1.0000
  C   C522      1.0  0.62878  0.08529  0.50487  1.0000
  C   C523      1.0  0.04644  0.86694  0.33477  1.0000
  C   C524      1.0  0.48500999999999994  0.81329  0.20659  1.0000
  C   C525      1.0  0.39613  0.47044  0.85563  1.0000
  C   C526      1.0  0.31343  0.98562  0.7064  1.0000
  C   C527      1.0  0.51509  0.70587  0.18747  1.0000
  C   C528      1.0  0.4013199999999999  0.42557  0.54873  1.0000
  C   C529      1.0  0.34901  0.98794  0.68003  1.0000
  C   C530      1.0  0.05781  0.03363  0.50107  1.0000
  C   C531      1.0  0.9975199999999999  0.93909  0.9730300000000001  1.0000
  C   C532      1.0  0.048899999999999985  0.57421  0.59889  1.0000
  C   C533      1.0  0.63286  0.16577  0.046340000000000006  1.0000
  C   C534      1.0  0.96667  0.55805  0.49945  1.0000
  C   C535      1.0  0.95084  0.09859  0.4256  1.0000
  C   C536      1.0  0.9256299999999998  0.59834  0.45153  1.0000
  C   C537      1.0  0.51192  0.8197  0.34893  1.0000
  C   C538      1.0  0.4974799999999999  0.02673  0.06126  1.0000
  C   C539      1.0  0.63309  0.33451  0.45391  1.0000
  C   C540      1.0  0.67983  0.15179  0.51201  1.0000
  C   C541      1.0  0.50237  0.56136  0.97301  1.0000
  C   C542      1.0  0.33094  0.9742000000000001  0.86371  1.0000
  C   C543      1.0  0.90025  0.36052  0.04371  1.0000
  C   C544      1.0  0.03612  0.9661399999999999  0.41318  1.0000
  C   C545      1.0  0.08647999999999997  0.03653  0.5343  1.0000
  C   C546      1.0  0.60379  0.14431  0.97072  1.0000
  C   C547      1.0  0.8635499999999998  0.16953  0.52597  1.0000
  C   C548      1.0  0.37567  0.42217  0.5805200000000001  1.0000
  C   C549      1.0  0.13347  0.5461  0.66546  1.0000
  C   C550      1.0  0.45635  0.89988  0.13984  1.0000
  C   C551      1.0  0.50297  0.93905  0.52696  1.0000
  C   C552      1.0  0.46618  0.9636999999999999  0.58665  1.0000
  C   C553      1.0  0.16945  0.9741100000000001  0.63599  1.0000
  C   C554      1.0  0.81332  0.29366999999999993  0.01466  1.0000
  C   C555      1.0  0.66928  0.36419  0.026  1.0000
  C   C556      1.0  0.9661399999999999  0.41318  0.036120000000000006  1.0000
  C   C557      1.0  0.06126  0.49748  0.02673  1.0000
  C   C558      1.0  0.64414  0.39635  0.02941  1.0000
  C   C559      1.0  0.53369  0.94196  0.49884  1.0000
  C   C560      1.0  0.03363  0.50107  0.05781  1.0000
  C   C561      1.0  0.57789  0.87567  0.41928  1.0000
  C   C562      1.0  0.60386  0.35569  0.5295000000000002  1.0000
  C   C563      1.0  0.03427  0.53613  0.5872  1.0000
  C   C564      1.0  0.13981  0.04377  0.59973  1.0000
  C   C565      1.0  0.81329  0.20659  0.48502  1.0000
  C   C566      1.0  0.13984  0.45635  0.89988  1.0000
  C   C567      1.0  0.93909  0.9730299999999998  0.99752  1.0000
  C   C568      1.0  0.5461  0.66546  0.13347  1.0000
  C   C569      1.0  0.02575  0.83059  0.13625  1.0000
  C   C570      1.0  0.00231  0.94793  0.39779  1.0000
  C   C571      1.0  0.9876399999999999  0.81987  0.15125  1.0000
  C   C572      1.0  0.026  0.66928  0.36419  1.0000
  C   C573      1.0  0.46559  0.53652  0.91331  1.0000
  C   C574      1.0  0.52939  0.89572  0.14443  1.0000
  C   C575      1.0  0.51201  0.67983  0.15179000000000004  1.0000
  C   C576      1.0  0.95379  0.66546  0.36716  1.0000
  C   C577      1.0  0.0781  0.58053  0.12415  1.0000
  C   C578      1.0  0.63981  0.10015  0.54343  1.0000
  C   C579      1.0  0.83048  0.36393  0.47381  1.0000
  C   C580      1.0  0.9516  0.40159  0.07426  1.0000
  C   C581      1.0  0.07425  0.9516  0.40159  1.0000
  C   C582      1.0  0.18017  0.48778  0.84863  1.0000
  C   C583      1.0  0.37135  0.49501  0.5849  1.0000
  C   C584      1.0  0.47296  0.06067  0.00289  1.0000
  C   C585      1.0  0.86694  0.33477  0.04644  1.0000
  C   C586      1.0  0.54342  0.63981  0.10015  1.0000
  C   C587      1.0  0.5275199999999998  0.99745  0.56089  1.0000
  C   C588      1.0  0.9742000000000001  0.86371  0.33094  1.0000
  C   C589      1.0  0.36019  0.45652  0.59977  1.0000
  C   C590      1.0  0.53613  0.5872  0.03427  1.0000
  C   C591      1.0  0.53407  0.4130599999999999  0.46361  1.0000
  C   C592      1.0  0.12414999999999998  0.0781  0.58053  1.0000
  C   C593      1.0  0.3308  0.52614  0.63623  1.0000
  C   C594      1.0  0.41528  0.99491  0.62846  1.0000
  C   C595      1.0  0.56089  0.52752  0.9974500000000001  1.0000
  C   C596      1.0  0.79347  0.31337  0.51497  1.0000
  C   C597      1.0  0.9016899999999998  0.04883  0.92561  1.0000
  C   C598      1.0  0.65106  0.18026  0.012200000000000004  1.0000
  C   C599      1.0  0.46367999999999987  0.96543  0.08691000000000003  1.0000
  C   C600      1.0  0.54891  0.09828  0.07459  1.0000
  C   C601      1.0  0.8667399999999997  0.16568  0.45367  1.0000
  C   C602      1.0  0.04377  0.59973  0.13981  1.0000
  C   C603      1.0  0.62439  0.0808  0.57775  1.0000
  C   C604      1.0  0.97072  0.60379  0.14432  1.0000
  C   C605      1.0  0.9390499999999998  0.52696  0.50297  1.0000
  C   C606      1.0  0.52695  0.50297  0.93905  1.0000
  C   C607      1.0  0.36393  0.4738  0.83048  1.0000
  C   C608      1.0  0.0122  0.65106  0.18026  1.0000
  C   C609      1.0  0.40017  0.54347  0.86012  1.0000
  C   C610      1.0  0.29367  0.01466  0.8133200000000003  1.0000
  C   C611      1.0  0.14442  0.52939  0.89572  1.0000
  C   C612      1.0  0.39779999999999993  0.49757  0.55216  1.0000
  C   C613      1.0  0.029409999999999995  0.64414  0.39635  1.0000
  C   C614      1.0  0.12873  0.49491  0.91465  1.0000
  C   C615      1.0  0.12425999999999998  0.42204  0.9191000000000001  1.0000
  C   C616      1.0  0.49755999999999995  0.55216  0.3978  1.0000
  C   C617      1.0  0.10437  0.47039  0.64437  1.0000
  C   C618      1.0  0.43897  0.00227  0.02734  1.0000
  C   C619      1.0  0.9706699999999999  0.896  0.35588  1.0000
  C   C620      1.0  0.66546  0.13347  0.5461  1.0000
  C   C621      1.0  0.49501000000000006  0.5849  0.37135  1.0000
  C   C622      1.0  0.43882  0.49726  0.47273  1.0000
  C   C623      1.0  0.83444  0.13309  0.9535200000000001  1.0000
  C   C624      1.0  0.66924  0.13677  0.47386000000000006  1.0000
  O   O1        1.0  0.28476  0.7009  0.04883  1.0000
  O   O2        1.0  0.79958  0.45016999999999996  0.2844900000000001  1.0000
  O   O3        1.0  0.29741  0.78174  0.01767  1.0000
  O   O4        1.0  0.51733  0.28267  0.79613  1.0000
  O   O5        1.0  0.54962  0.20011  0.78384  1.0000
  O   O6        1.0  0.4503399999999999  0.21618  0.69973  1.0000
  O   O7        1.0  0.29910999999999993  0.71521  0.54932  1.0000
  O   O8        1.0  0.01823  0.20226  0.71745  1.0000
  O   O9        1.0  0.7012199999999998  0.98158  0.28096  1.0000
  O   O10       1.0  0.21617999999999996  0.69973  0.45035  1.0000
  O   O11       1.0  0.01767  0.29741  0.78174  1.0000
  O   O12       1.0  0.7008999999999997  0.04883  0.28476  1.0000
  O   O13       1.0  0.20224  0.78169  0.48233000000000004  1.0000
  O   O14       1.0  0.78381  0.95038  0.30009  1.0000
  O   O15       1.0  0.54932  0.29911  0.71521  1.0000
  O   O16       1.0  0.7174499999999998  0.01823  0.20226  1.0000
  O   O17       1.0  0.71677  0.95093  0.19998000000000005  1.0000
  O   O18       1.0  0.28267  0.79613  0.51733  1.0000
  O   O19       1.0  0.19998  0.71677  0.95093  1.0000
  O   O20       1.0  0.9815799999999999  0.28096  0.7012200000000002  1.0000
  O   O21       1.0  0.48197  0.29705999999999994  0.71708  1.0000
  O   O22       1.0  0.29705  0.71708  0.48197000000000007  1.0000
  O   O23       1.0  0.70276  0.5175  0.21813  1.0000
  O   O24       1.0  0.71521  0.54932  0.2991100000000001  1.0000
  O   O25       1.0  0.48233  0.20224  0.78169  1.0000
  O   O26       1.0  0.28096  0.70122  0.98158  1.0000
  O   O27       1.0  0.79793  0.9820099999999999  0.21828  1.0000
  O   O28       1.0  0.21827999999999997  0.79793  0.98201  1.0000
  O   O29       1.0  0.21812999999999996  0.70276  0.5175  1.0000
  O   O30       1.0  0.20011  0.7838399999999999  0.54962  1.0000
  O   O31       1.0  0.7997999999999998  0.04939  0.21618  1.0000
  O   O32       1.0  0.30009  0.78381  0.95038  1.0000
  O   O33       1.0  0.71708  0.48196999999999995  0.29706  1.0000
  O   O34       1.0  0.04939  0.21618  0.7998  1.0000
  O   O35       1.0  0.78169  0.48233  0.20224  1.0000
  O   O36       1.0  0.78384  0.54962  0.20011  1.0000
  O   O37       1.0  0.69973  0.4503499999999999  0.21618  1.0000
  O   O38       1.0  0.51749  0.21813  0.70276  1.0000
  O   O39       1.0  0.45017  0.28449  0.7995800000000002  1.0000
  O   O40       1.0  0.2844899999999999  0.79958  0.45017  1.0000
  O   O41       1.0  0.95093  0.19998  0.71677  1.0000
  O   O42       1.0  0.78174  0.01767  0.29741  1.0000
  O   O43       1.0  0.9820099999999999  0.21828  0.79793  1.0000
  O   O44       1.0  0.04883  0.28476  0.7009  1.0000
  O   O45       1.0  0.9503799999999998  0.30009  0.78382  1.0000
  O   O46       1.0  0.20226  0.71745  0.01823  1.0000
  O   O47       1.0  0.79613  0.51733  0.28267  1.0000
  O   O48       1.0  0.21617999999999996  0.7998  0.04939  1.0000
  O   O49       1.0  0.71904  0.29877  0.01841  1.0000
  O   O50       1.0  0.21617999999999996  0.04961  0.6999  1.0000
  O   O51       1.0  0.71551  0.20041  0.54982  1.0000
  O   O52       1.0  0.20206  0.01799  0.78172  1.0000
  O   O53       1.0  0.95116  0.71523  0.2991  1.0000
  O   O54       1.0  0.45067  0.70089  0.28479  1.0000
  O   O55       1.0  0.70294  0.28291  0.51803  1.0000
  O   O56       1.0  0.01841  0.71904  0.29877  1.0000
  O   O57       1.0  0.6999  0.21618  0.04961  1.0000
  O   O58       1.0  0.2002  0.95061  0.78381  1.0000
  O   O59       1.0  0.51803  0.70294  0.28291  1.0000
  O   O60       1.0  0.98176  0.79773  0.28255  1.0000
  O   O61       1.0  0.20387  0.48267  0.71733  1.0000
  O   O62       1.0  0.04961  0.6999  0.21618  1.0000
  O   O63       1.0  0.7838199999999997  0.30026  0.54965  1.0000
  O   O64       1.0  0.79988  0.21616  0.45037  1.0000
  O   O65       1.0  0.29877  0.01841  0.7190400000000001  1.0000
  O   O66       1.0  0.01799  0.78172  0.20207  1.0000
  O   O67       1.0  0.4825  0.78187  0.29723  1.0000
  O   O68       1.0  0.78187  0.29723  0.4825  1.0000
  O   O69       1.0  0.28255  0.98176  0.79773  1.0000
  O   O70       1.0  0.28322  0.04907  0.80002  1.0000
  O   O71       1.0  0.28478999999999993  0.45067  0.70089  1.0000
  O   O72       1.0  0.2972299999999999  0.48249999999999993  0.78187  1.0000
  O   O73       1.0  0.04907  0.80002  0.28322  1.0000
  O   O74       1.0  0.54982  0.71551  0.20041  1.0000
  O   O75       1.0  0.9823199999999999  0.70259  0.21825000000000006  1.0000
  O   O76       1.0  0.48266999999999993  0.71733  0.20387000000000002  1.0000
  O   O77       1.0  0.54965  0.78382  0.30026  1.0000
  O   O78       1.0  0.21616  0.45037  0.79988  1.0000
  O   O79       1.0  0.20041  0.54982  0.71551  1.0000
  O   O80       1.0  0.71733  0.20387  0.48267000000000004  1.0000
  O   O81       1.0  0.30026  0.54965  0.78382  1.0000
  O   O82       1.0  0.79776  0.21831  0.51766  1.0000
  O   O83       1.0  0.78381  0.2002  0.95061  1.0000
  O   O84       1.0  0.21825  0.98232  0.70259  1.0000
  O   O85       1.0  0.95061  0.78381  0.2002  1.0000
  O   O86       1.0  0.2991  0.95117  0.71523  1.0000
  O   O87       1.0  0.21830999999999995  0.51766  0.79776  1.0000
  O   O88       1.0  0.45037  0.79988  0.21616  1.0000
  O   O89       1.0  0.51766  0.79776  0.21831  1.0000
  O   O90       1.0  0.2829099999999999  0.51803  0.70294  1.0000
  O   O91       1.0  0.78172  0.20207  0.01799  1.0000
  O   O92       1.0  0.71523  0.2991  0.95117  1.0000
  O   O93       1.0  0.8000199999999997  0.28322  0.04907  1.0000
  O   O94       1.0  0.70258  0.21825  0.98232  1.0000
  O   O95       1.0  0.79773  0.28255  0.9817600000000001  1.0000
  O   O96       1.0  0.70089  0.28479  0.45067  1.0000
