data_image0
_chemical_formula_structural       Cu48H384C816N48O192
_chemical_formula_sum              "Cu48 H384 C816 N48 O192"
_cell_length_a       39.9864
_cell_length_b       39.9864
_cell_length_c       39.9864
_cell_angle_alpha    90.0
_cell_angle_beta     90.0
_cell_angle_gamma    90.0

_symmetry_space_group_name_H-M    'P 1'
_symmetry_Int_Tables_number       1

loop_
  _symmetry_equiv_pos_as_xyz
  'x,y,z'

loop_
  _atom_site_type_symbol
  _atom_site_label
  _atom_site_symmetry_multiplicity
  _atom_site_fract_x
  _atom_site_fract_y
  _atom_site_fract_z
  _atom_site_occupancy
  Cu  Cu1       1.0  0.9659  0.45951  0.73293  1.0000
  Cu  Cu2       1.0  0.97436  0.47002000000000005  0.67354  1.0000
  Cu  Cu3       1.0  0.5341  0.54049  0.23293  1.0000
  Cu  Cu4       1.0  0.52564  0.52998  0.17354  1.0000
  Cu  Cu5       1.0  0.0341  0.9595  0.76706  1.0000
  Cu  Cu6       1.0  0.025639999999999996  0.97002  0.8264499999999999  1.0000
  Cu  Cu7       1.0  0.4658999999999999  0.04049  0.26707  1.0000
  Cu  Cu8       1.0  0.47436  0.02998  0.32646  1.0000
  Cu  Cu9       1.0  0.73293  0.9659  0.45951  1.0000
  Cu  Cu10      1.0  0.67354  0.97435  0.47002000000000005  1.0000
  Cu  Cu11      1.0  0.23293  0.5341  0.54049  1.0000
  Cu  Cu12      1.0  0.17354  0.52564  0.52998  1.0000
  Cu  Cu13      1.0  0.76706  0.0341  0.9595  1.0000
  Cu  Cu14      1.0  0.8264499999999999  0.025639999999999996  0.97002  1.0000
  Cu  Cu15      1.0  0.26707  0.4658999999999999  0.04049  1.0000
  Cu  Cu16      1.0  0.32646  0.47436  0.02998  1.0000
  Cu  Cu17      1.0  0.45951  0.73293  0.9659  1.0000
  Cu  Cu18      1.0  0.47002000000000005  0.67354  0.97436  1.0000
  Cu  Cu19      1.0  0.54049  0.23293  0.5341  1.0000
  Cu  Cu20      1.0  0.52998  0.17354  0.52564  1.0000
  Cu  Cu21      1.0  0.9595  0.76706  0.0341  1.0000
  Cu  Cu22      1.0  0.97002  0.8264499999999999  0.025639999999999996  1.0000
  Cu  Cu23      1.0  0.04049  0.26707  0.4658999999999999  1.0000
  Cu  Cu24      1.0  0.02998  0.32646  0.47436  1.0000
  Cu  Cu25      1.0  0.0341  0.54049  0.26707  1.0000
  Cu  Cu26      1.0  0.025639999999999996  0.52998  0.32646  1.0000
  Cu  Cu27      1.0  0.4658999999999999  0.45951  0.76706  1.0000
  Cu  Cu28      1.0  0.47436  0.47002000000000005  0.8264499999999999  1.0000
  Cu  Cu29      1.0  0.9659  0.04049  0.23293  1.0000
  Cu  Cu30      1.0  0.97436  0.02998  0.17354  1.0000
  Cu  Cu31      1.0  0.5341  0.9595  0.73293  1.0000
  Cu  Cu32      1.0  0.52564  0.97002  0.67354  1.0000
  Cu  Cu33      1.0  0.26707  0.0341  0.54049  1.0000
  Cu  Cu34      1.0  0.32646  0.025639999999999996  0.52998  1.0000
  Cu  Cu35      1.0  0.76706  0.4658999999999999  0.45951  1.0000
  Cu  Cu36      1.0  0.8264499999999999  0.47436  0.47002000000000005  1.0000
  Cu  Cu37      1.0  0.23293  0.9659  0.04049  1.0000
  Cu  Cu38      1.0  0.17354  0.97436  0.02998  1.0000
  Cu  Cu39      1.0  0.73293  0.5341  0.9595  1.0000
  Cu  Cu40      1.0  0.67354  0.52564  0.97002  1.0000
  Cu  Cu41      1.0  0.54049  0.26707  0.0341  1.0000
  Cu  Cu42      1.0  0.52998  0.32646  0.025639999999999996  1.0000
  Cu  Cu43      1.0  0.45951  0.76706  0.4658999999999999  1.0000
  Cu  Cu44      1.0  0.47002000000000005  0.8264499999999999  0.47436  1.0000
  Cu  Cu45      1.0  0.04049  0.23293  0.9659  1.0000
  Cu  Cu46      1.0  0.02998  0.17354  0.97436  1.0000
  Cu  Cu47      1.0  0.9595  0.73293  0.5341  1.0000
  Cu  Cu48      1.0  0.97002  0.67354  0.52564  1.0000
  H   H1        1.0  0.9627700000000001  0.57668  0.66731  1.0000
  H   H2        1.0  0.96805  0.55908  0.77326  1.0000
  H   H3        1.0  0.9681799999999999  0.6206  0.78501  1.0000
  H   H4        1.0  0.96237  0.73305  0.70193  1.0000
  H   H5        1.0  0.95989  0.74003  0.63989  1.0000
  H   H6        1.0  0.96079  0.63361  0.62529  1.0000
  H   H7        1.0  0.012610000000000001  0.66798  0.77795  1.0000
  H   H8        1.0  0.02162  0.71269  0.82099  1.0000
  H   H9        1.0  0.93255  0.76281  0.78808  1.0000
  H   H10       1.0  0.9226499999999999  0.71749  0.74587  1.0000
  H   H11       1.0  0.96684  0.71596  0.8738599999999999  1.0000
  H   H12       1.0  0.96196  0.72777  0.9354  1.0000
  H   H13       1.0  0.98931  0.8305399999999998  0.92055  1.0000
  H   H14       1.0  0.00689  0.8709499999999999  0.8647  1.0000
  H   H15       1.0  0.00066  0.795  0.76468  1.0000
  H   H16       1.0  0.01736  0.85526  0.75887  1.0000
  H   H17       1.0  0.53722  0.42330999999999996  0.16731  1.0000
  H   H18       1.0  0.53195  0.44092  0.27326  1.0000
  H   H19       1.0  0.53182  0.3794  0.28501  1.0000
  H   H20       1.0  0.53762  0.26695  0.20192999999999997  1.0000
  H   H21       1.0  0.54011  0.25997  0.13989  1.0000
  H   H22       1.0  0.53921  0.36639  0.12529  1.0000
  H   H23       1.0  0.48739  0.33202  0.27795  1.0000
  H   H24       1.0  0.47838  0.2873  0.32099  1.0000
  H   H25       1.0  0.56744  0.23718999999999998  0.28808  1.0000
  H   H26       1.0  0.57735  0.28251  0.24587  1.0000
  H   H27       1.0  0.53316  0.28404  0.37386  1.0000
  H   H28       1.0  0.53804  0.27223  0.43540999999999996  1.0000
  H   H29       1.0  0.51068  0.16945  0.4205499999999999  1.0000
  H   H30       1.0  0.49311  0.12905  0.3647  1.0000
  H   H31       1.0  0.49934  0.205  0.26468  1.0000
  H   H32       1.0  0.48264  0.14474  0.25887  1.0000
  H   H33       1.0  0.03723  0.07669  0.8326900000000002  1.0000
  H   H34       1.0  0.03195  0.059079999999999994  0.72674  1.0000
  H   H35       1.0  0.03182  0.12060000000000001  0.71499  1.0000
  H   H36       1.0  0.03762  0.23304999999999998  0.79807  1.0000
  H   H37       1.0  0.04011  0.24003  0.86011  1.0000
  H   H38       1.0  0.03921  0.13361  0.87471  1.0000
  H   H39       1.0  0.9873899999999999  0.16798  0.72204  1.0000
  H   H40       1.0  0.9783700000000001  0.2127  0.67901  1.0000
  H   H41       1.0  0.06744  0.26281  0.71192  1.0000
  H   H42       1.0  0.07735  0.21748999999999996  0.75412  1.0000
  H   H43       1.0  0.03316  0.21595999999999999  0.62614  1.0000
  H   H44       1.0  0.03804  0.22776999999999997  0.56459  1.0000
  H   H45       1.0  0.01068  0.33055  0.57944  1.0000
  H   H46       1.0  0.99311  0.37095  0.6353  1.0000
  H   H47       1.0  0.99934  0.295  0.73532  1.0000
  H   H48       1.0  0.98264  0.35526  0.74113  1.0000
  H   H49       1.0  0.46277  0.9233099999999999  0.33269  1.0000
  H   H50       1.0  0.46805  0.9409199999999999  0.22674  1.0000
  H   H51       1.0  0.46817999999999993  0.8793999999999998  0.21499000000000001  1.0000
  H   H52       1.0  0.46237999999999996  0.76695  0.29807  1.0000
  H   H53       1.0  0.45988999999999997  0.75997  0.36011  1.0000
  H   H54       1.0  0.46079  0.8663899999999999  0.37471  1.0000
  H   H55       1.0  0.5126  0.8320199999999999  0.22205000000000003  1.0000
  H   H56       1.0  0.52162  0.7873  0.17901  1.0000
  H   H57       1.0  0.43256  0.73718  0.21192  1.0000
  H   H58       1.0  0.42265  0.7825  0.25412  1.0000
  H   H59       1.0  0.46684  0.78404  0.12614  1.0000
  H   H60       1.0  0.46196  0.77223  0.06459  1.0000
  H   H61       1.0  0.48931  0.66945  0.07944  1.0000
  H   H62       1.0  0.50689  0.62904  0.1353  1.0000
  H   H63       1.0  0.50066  0.705  0.23531999999999997  1.0000
  H   H64       1.0  0.51736  0.64474  0.24113  1.0000
  H   H65       1.0  0.66731  0.9627700000000001  0.57668  1.0000
  H   H66       1.0  0.77326  0.96805  0.55908  1.0000
  H   H67       1.0  0.78501  0.9681799999999999  0.6206  1.0000
  H   H68       1.0  0.70193  0.96237  0.73305  1.0000
  H   H69       1.0  0.63989  0.95989  0.74003  1.0000
  H   H70       1.0  0.62529  0.96079  0.63361  1.0000
  H   H71       1.0  0.77795  0.012610000000000001  0.66798  1.0000
  H   H72       1.0  0.82099  0.02162  0.71269  1.0000
  H   H73       1.0  0.78808  0.93255  0.76281  1.0000
  H   H74       1.0  0.74587  0.9226499999999999  0.71749  1.0000
  H   H75       1.0  0.8738599999999999  0.96684  0.71596  1.0000
  H   H76       1.0  0.9354  0.96196  0.72777  1.0000
  H   H77       1.0  0.92055  0.98931  0.8305399999999998  1.0000
  H   H78       1.0  0.8647  0.00689  0.8709499999999999  1.0000
  H   H79       1.0  0.76468  0.00066  0.795  1.0000
  H   H80       1.0  0.75887  0.01736  0.85526  1.0000
  H   H81       1.0  0.16731  0.53722  0.42330999999999996  1.0000
  H   H82       1.0  0.27326  0.53195  0.44092  1.0000
  H   H83       1.0  0.28501  0.53182  0.3794  1.0000
  H   H84       1.0  0.20192999999999997  0.53762  0.26695  1.0000
  H   H85       1.0  0.13989  0.54011  0.25997  1.0000
  H   H86       1.0  0.12529  0.53921  0.36639  1.0000
  H   H87       1.0  0.27795  0.48739  0.33202  1.0000
  H   H88       1.0  0.32099  0.47838  0.2873  1.0000
  H   H89       1.0  0.28808  0.56744  0.23718999999999998  1.0000
  H   H90       1.0  0.24587  0.57735  0.28251  1.0000
  H   H91       1.0  0.37386  0.53316  0.28404  1.0000
  H   H92       1.0  0.43540999999999996  0.53804  0.27223  1.0000
  H   H93       1.0  0.4205499999999999  0.51068  0.16945  1.0000
  H   H94       1.0  0.3647  0.49311  0.12905  1.0000
  H   H95       1.0  0.26468  0.49934  0.205  1.0000
  H   H96       1.0  0.25887  0.48264  0.14474  1.0000
  H   H97       1.0  0.8326900000000002  0.03723  0.07669  1.0000
  H   H98       1.0  0.72674  0.03195  0.059079999999999994  1.0000
  H   H99       1.0  0.71499  0.03182  0.12060000000000001  1.0000
  H   H100      1.0  0.79807  0.03762  0.23304999999999998  1.0000
  H   H101      1.0  0.86011  0.04011  0.24003  1.0000
  H   H102      1.0  0.87471  0.03921  0.13361  1.0000
  H   H103      1.0  0.72204  0.9873899999999999  0.16798  1.0000
  H   H104      1.0  0.67901  0.9783700000000001  0.2127  1.0000
  H   H105      1.0  0.71192  0.06744  0.26281  1.0000
  H   H106      1.0  0.75412  0.07735  0.21748999999999996  1.0000
  H   H107      1.0  0.62614  0.03316  0.21595999999999999  1.0000
  H   H108      1.0  0.56459  0.03804  0.22776999999999997  1.0000
  H   H109      1.0  0.57944  0.01068  0.33055  1.0000
  H   H110      1.0  0.6353  0.99311  0.37095  1.0000
  H   H111      1.0  0.73532  0.99934  0.295  1.0000
  H   H112      1.0  0.74113  0.98264  0.35526  1.0000
  H   H113      1.0  0.33269  0.46277  0.9233099999999999  1.0000
  H   H114      1.0  0.22674  0.46805  0.9409199999999999  1.0000
  H   H115      1.0  0.21499000000000001  0.46817999999999993  0.8793999999999998  1.0000
  H   H116      1.0  0.29807  0.46237999999999996  0.76695  1.0000
  H   H117      1.0  0.36011  0.45988999999999997  0.75997  1.0000
  H   H118      1.0  0.37471  0.46079  0.8663899999999999  1.0000
  H   H119      1.0  0.22205000000000003  0.5126  0.8320199999999999  1.0000
  H   H120      1.0  0.17901  0.52162  0.7873  1.0000
  H   H121      1.0  0.21192  0.43255  0.73718  1.0000
  H   H122      1.0  0.25412  0.42265  0.7825  1.0000
  H   H123      1.0  0.12614  0.46684  0.78404  1.0000
  H   H124      1.0  0.06459  0.46196  0.77223  1.0000
  H   H125      1.0  0.07944  0.48931  0.66945  1.0000
  H   H126      1.0  0.1353  0.50689  0.62904  1.0000
  H   H127      1.0  0.23531999999999997  0.50066  0.705  1.0000
  H   H128      1.0  0.24113  0.51736  0.64474  1.0000
  H   H129      1.0  0.57668  0.66731  0.9627700000000001  1.0000
  H   H130      1.0  0.55908  0.77326  0.96805  1.0000
  H   H131      1.0  0.6206  0.78501  0.9681799999999999  1.0000
  H   H132      1.0  0.73305  0.70193  0.96237  1.0000
  H   H133      1.0  0.74003  0.63989  0.95989  1.0000
  H   H134      1.0  0.63361  0.62529  0.96079  1.0000
  H   H135      1.0  0.66798  0.77795  0.012610000000000001  1.0000
  H   H136      1.0  0.71269  0.82099  0.02162  1.0000
  H   H137      1.0  0.76281  0.78808  0.93255  1.0000
  H   H138      1.0  0.71749  0.74587  0.9226499999999999  1.0000
  H   H139      1.0  0.71596  0.8738599999999999  0.96684  1.0000
  H   H140      1.0  0.72777  0.9354  0.96196  1.0000
  H   H141      1.0  0.8305399999999998  0.92055  0.98931  1.0000
  H   H142      1.0  0.8709499999999999  0.8647  0.00689  1.0000
  H   H143      1.0  0.795  0.76468  0.00066  1.0000
  H   H144      1.0  0.85526  0.75887  0.01736  1.0000
  H   H145      1.0  0.42330999999999996  0.16731  0.53722  1.0000
  H   H146      1.0  0.44092  0.27326  0.53195  1.0000
  H   H147      1.0  0.3794  0.28501  0.53182  1.0000
  H   H148      1.0  0.26695  0.20192999999999997  0.53762  1.0000
  H   H149      1.0  0.25997  0.13989  0.54011  1.0000
  H   H150      1.0  0.36639  0.12529  0.53921  1.0000
  H   H151      1.0  0.33202  0.27795  0.48739  1.0000
  H   H152      1.0  0.2873  0.32099  0.47838  1.0000
  H   H153      1.0  0.23718999999999998  0.28808  0.56744  1.0000
  H   H154      1.0  0.28251  0.24587  0.57735  1.0000
  H   H155      1.0  0.28404  0.37386  0.53316  1.0000
  H   H156      1.0  0.27223  0.43540999999999996  0.53804  1.0000
  H   H157      1.0  0.16945  0.4205499999999999  0.51068  1.0000
  H   H158      1.0  0.12905  0.3647  0.49311  1.0000
  H   H159      1.0  0.205  0.26468  0.49934  1.0000
  H   H160      1.0  0.14474  0.25887  0.48264  1.0000
  H   H161      1.0  0.07669  0.8326900000000002  0.03723  1.0000
  H   H162      1.0  0.059079999999999994  0.72674  0.03195  1.0000
  H   H163      1.0  0.12060000000000001  0.71499  0.03182  1.0000
  H   H164      1.0  0.23304999999999998  0.79807  0.03762  1.0000
  H   H165      1.0  0.24003  0.86011  0.04011  1.0000
  H   H166      1.0  0.13361  0.87471  0.03921  1.0000
  H   H167      1.0  0.16798  0.72204  0.9873899999999999  1.0000
  H   H168      1.0  0.2127  0.67901  0.9783700000000001  1.0000
  H   H169      1.0  0.26281  0.71192  0.06744  1.0000
  H   H170      1.0  0.21748999999999996  0.75412  0.07735  1.0000
  H   H171      1.0  0.21595999999999999  0.62614  0.03316  1.0000
  H   H172      1.0  0.22776999999999997  0.56459  0.03804  1.0000
  H   H173      1.0  0.33055  0.57944  0.01068  1.0000
  H   H174      1.0  0.37095  0.6353  0.99311  1.0000
  H   H175      1.0  0.295  0.73531  0.99934  1.0000
  H   H176      1.0  0.35526  0.74113  0.98264  1.0000
  H   H177      1.0  0.9233099999999999  0.33269  0.46277  1.0000
  H   H178      1.0  0.9409199999999999  0.22674  0.46805  1.0000
  H   H179      1.0  0.8793999999999998  0.21499000000000001  0.46817999999999993  1.0000
  H   H180      1.0  0.76695  0.29807  0.46237999999999996  1.0000
  H   H181      1.0  0.75997  0.36011  0.45988999999999997  1.0000
  H   H182      1.0  0.8663899999999999  0.37471  0.46079  1.0000
  H   H183      1.0  0.8320199999999999  0.22205000000000003  0.5126  1.0000
  H   H184      1.0  0.7873  0.17901  0.52162  1.0000
  H   H185      1.0  0.73718  0.21192  0.43256  1.0000
  H   H186      1.0  0.7825  0.25412  0.42265  1.0000
  H   H187      1.0  0.78404  0.12614  0.46684  1.0000
  H   H188      1.0  0.77223  0.06459  0.46196  1.0000
  H   H189      1.0  0.66945  0.07944  0.48931  1.0000
  H   H190      1.0  0.62904  0.1353  0.50689  1.0000
  H   H191      1.0  0.705  0.23531999999999997  0.50066  1.0000
  H   H192      1.0  0.64474  0.24113  0.51736  1.0000
  H   H193      1.0  0.03723  0.42330999999999996  0.33269  1.0000
  H   H194      1.0  0.03195  0.44092  0.22674  1.0000
  H   H195      1.0  0.03182  0.3794  0.21499000000000001  1.0000
  H   H196      1.0  0.03762  0.26695  0.29807  1.0000
  H   H197      1.0  0.04011  0.25997  0.36011  1.0000
  H   H198      1.0  0.03921  0.36639  0.37471  1.0000
  H   H199      1.0  0.9873899999999999  0.33202  0.22205000000000003  1.0000
  H   H200      1.0  0.9783700000000001  0.2873  0.17901  1.0000
  H   H201      1.0  0.06744  0.23718999999999998  0.21192  1.0000
  H   H202      1.0  0.07735  0.28251  0.25412  1.0000
  H   H203      1.0  0.03316  0.28404  0.12614  1.0000
  H   H204      1.0  0.03804  0.27223  0.06459  1.0000
  H   H205      1.0  0.01068  0.16945  0.07944  1.0000
  H   H206      1.0  0.99311  0.12905  0.1353  1.0000
  H   H207      1.0  0.99934  0.205  0.23531999999999997  1.0000
  H   H208      1.0  0.98264  0.14474  0.24113  1.0000
  H   H209      1.0  0.46277  0.57668  0.8326900000000002  1.0000
  H   H210      1.0  0.46805  0.55908  0.72674  1.0000
  H   H211      1.0  0.46817999999999993  0.6206  0.71499  1.0000
  H   H212      1.0  0.46237999999999996  0.73305  0.79807  1.0000
  H   H213      1.0  0.45988999999999997  0.74003  0.86011  1.0000
  H   H214      1.0  0.46079  0.63361  0.87471  1.0000
  H   H215      1.0  0.5126  0.66798  0.72204  1.0000
  H   H216      1.0  0.52162  0.71269  0.67901  1.0000
  H   H217      1.0  0.43256  0.76281  0.71192  1.0000
  H   H218      1.0  0.42265  0.71749  0.75412  1.0000
  H   H219      1.0  0.46684  0.71596  0.62614  1.0000
  H   H220      1.0  0.46196  0.72777  0.56459  1.0000
  H   H221      1.0  0.48931  0.8305399999999998  0.57944  1.0000
  H   H222      1.0  0.50689  0.8709499999999999  0.6353  1.0000
  H   H223      1.0  0.50066  0.795  0.73532  1.0000
  H   H224      1.0  0.51736  0.85526  0.74113  1.0000
  H   H225      1.0  0.9627700000000001  0.9233099999999999  0.16731  1.0000
  H   H226      1.0  0.96805  0.9409199999999999  0.27326  1.0000
  H   H227      1.0  0.9681799999999999  0.8793999999999998  0.28501  1.0000
  H   H228      1.0  0.96237  0.76695  0.20192999999999997  1.0000
  H   H229      1.0  0.95989  0.75997  0.13989  1.0000
  H   H230      1.0  0.96079  0.8663899999999999  0.12529  1.0000
  H   H231      1.0  0.012610000000000001  0.8320199999999999  0.27795  1.0000
  H   H232      1.0  0.02162  0.7873  0.32099  1.0000
  H   H233      1.0  0.93255  0.73718  0.28808  1.0000
  H   H234      1.0  0.9226499999999999  0.7825  0.24587  1.0000
  H   H235      1.0  0.96684  0.78404  0.37386  1.0000
  H   H236      1.0  0.96196  0.77223  0.43540999999999996  1.0000
  H   H237      1.0  0.98931  0.66945  0.4205499999999999  1.0000
  H   H238      1.0  0.00689  0.62904  0.3647  1.0000
  H   H239      1.0  0.00066  0.705  0.26468  1.0000
  H   H240      1.0  0.01736  0.64474  0.25887  1.0000
  H   H241      1.0  0.53722  0.07669  0.66731  1.0000
  H   H242      1.0  0.53195  0.059079999999999994  0.77326  1.0000
  H   H243      1.0  0.53182  0.12060000000000001  0.78501  1.0000
  H   H244      1.0  0.53762  0.23304999999999998  0.70193  1.0000
  H   H245      1.0  0.54011  0.24003  0.63989  1.0000
  H   H246      1.0  0.53921  0.13361  0.62529  1.0000
  H   H247      1.0  0.48739  0.16798  0.77795  1.0000
  H   H248      1.0  0.47838  0.2127  0.82099  1.0000
  H   H249      1.0  0.56744  0.26281  0.78808  1.0000
  H   H250      1.0  0.57735  0.21748999999999996  0.74587  1.0000
  H   H251      1.0  0.53316  0.21595999999999999  0.8738599999999999  1.0000
  H   H252      1.0  0.53804  0.22776999999999997  0.9354  1.0000
  H   H253      1.0  0.51068  0.33055  0.92055  1.0000
  H   H254      1.0  0.49311  0.37095  0.8647  1.0000
  H   H255      1.0  0.49934  0.295  0.76468  1.0000
  H   H256      1.0  0.48264  0.35526  0.75887  1.0000
  H   H257      1.0  0.33269  0.03723  0.42330999999999996  1.0000
  H   H258      1.0  0.22674  0.03195  0.44092  1.0000
  H   H259      1.0  0.21499000000000001  0.03182  0.3794  1.0000
  H   H260      1.0  0.29807  0.03762  0.26695  1.0000
  H   H261      1.0  0.36011  0.04011  0.25997  1.0000
  H   H262      1.0  0.37471  0.03921  0.36639  1.0000
  H   H263      1.0  0.22205000000000003  0.9873899999999999  0.33202  1.0000
  H   H264      1.0  0.17901  0.9783700000000001  0.2873  1.0000
  H   H265      1.0  0.21192  0.06744  0.23718999999999998  1.0000
  H   H266      1.0  0.25412  0.07735  0.28251  1.0000
  H   H267      1.0  0.12614  0.03316  0.28404  1.0000
  H   H268      1.0  0.06459  0.03804  0.27223  1.0000
  H   H269      1.0  0.07944  0.01068  0.16945  1.0000
  H   H270      1.0  0.1353  0.99311  0.12905  1.0000
  H   H271      1.0  0.23531999999999997  0.99934  0.205  1.0000
  H   H272      1.0  0.24113  0.98264  0.14474  1.0000
  H   H273      1.0  0.8326900000000002  0.46277  0.57668  1.0000
  H   H274      1.0  0.72674  0.46805  0.55908  1.0000
  H   H275      1.0  0.71499  0.46817999999999993  0.6206  1.0000
  H   H276      1.0  0.79807  0.46237999999999996  0.73305  1.0000
  H   H277      1.0  0.86011  0.45988999999999997  0.74003  1.0000
  H   H278      1.0  0.87471  0.46079  0.63361  1.0000
  H   H279      1.0  0.72204  0.5126  0.66798  1.0000
  H   H280      1.0  0.67901  0.52162  0.71269  1.0000
  H   H281      1.0  0.71192  0.43255  0.76281  1.0000
  H   H282      1.0  0.75412  0.42265  0.71749  1.0000
  H   H283      1.0  0.62614  0.46684  0.71596  1.0000
  H   H284      1.0  0.56459  0.46196  0.72777  1.0000
  H   H285      1.0  0.57944  0.48931  0.8305399999999998  1.0000
  H   H286      1.0  0.6353  0.50689  0.8709499999999999  1.0000
  H   H287      1.0  0.73532  0.50066  0.795  1.0000
  H   H288      1.0  0.74113  0.51736  0.85526  1.0000
  H   H289      1.0  0.16731  0.9627700000000001  0.9233099999999999  1.0000
  H   H290      1.0  0.27326  0.96805  0.9409199999999999  1.0000
  H   H291      1.0  0.28501  0.9681799999999999  0.8793999999999998  1.0000
  H   H292      1.0  0.20192999999999997  0.96237  0.76695  1.0000
  H   H293      1.0  0.13989  0.95989  0.75997  1.0000
  H   H294      1.0  0.12529  0.96079  0.8663899999999999  1.0000
  H   H295      1.0  0.27795  0.012610000000000001  0.8320199999999999  1.0000
  H   H296      1.0  0.32099  0.02162  0.7873  1.0000
  H   H297      1.0  0.28808  0.93255  0.73718  1.0000
  H   H298      1.0  0.24587  0.9226499999999999  0.7825  1.0000
  H   H299      1.0  0.37386  0.96684  0.78404  1.0000
  H   H300      1.0  0.43540999999999996  0.96196  0.77223  1.0000
  H   H301      1.0  0.4205499999999999  0.98931  0.66945  1.0000
  H   H302      1.0  0.3647  0.00689  0.62904  1.0000
  H   H303      1.0  0.26468  0.00066  0.705  1.0000
  H   H304      1.0  0.25887  0.01736  0.64474  1.0000
  H   H305      1.0  0.66731  0.53722  0.07669  1.0000
  H   H306      1.0  0.77326  0.53195  0.059079999999999994  1.0000
  H   H307      1.0  0.78501  0.53182  0.12060000000000001  1.0000
  H   H308      1.0  0.70193  0.53762  0.23304999999999998  1.0000
  H   H309      1.0  0.63989  0.54011  0.24003  1.0000
  H   H310      1.0  0.62529  0.53921  0.13361  1.0000
  H   H311      1.0  0.77795  0.48739  0.16798  1.0000
  H   H312      1.0  0.82099  0.47838  0.2127  1.0000
  H   H313      1.0  0.78808  0.56744  0.26281  1.0000
  H   H314      1.0  0.74587  0.57735  0.21748999999999996  1.0000
  H   H315      1.0  0.8738599999999999  0.53316  0.21595999999999999  1.0000
  H   H316      1.0  0.9354  0.53804  0.22776999999999997  1.0000
  H   H317      1.0  0.92055  0.51068  0.33055  1.0000
  H   H318      1.0  0.8647  0.49311  0.37095  1.0000
  H   H319      1.0  0.76468  0.49934  0.295  1.0000
  H   H320      1.0  0.75887  0.48264  0.35526  1.0000
  H   H321      1.0  0.42330999999999996  0.33269  0.03723  1.0000
  H   H322      1.0  0.44092  0.22674  0.03195  1.0000
  H   H323      1.0  0.3794  0.21499000000000001  0.03182  1.0000
  H   H324      1.0  0.26695  0.29807  0.03762  1.0000
  H   H325      1.0  0.25997  0.36011  0.04011  1.0000
  H   H326      1.0  0.36639  0.37471  0.03921  1.0000
  H   H327      1.0  0.33202  0.22205000000000003  0.9873899999999999  1.0000
  H   H328      1.0  0.2873  0.17901  0.9783700000000001  1.0000
  H   H329      1.0  0.23718999999999998  0.21192  0.06744  1.0000
  H   H330      1.0  0.28251  0.25412  0.07735  1.0000
  H   H331      1.0  0.28404  0.12614  0.03316  1.0000
  H   H332      1.0  0.27223  0.06459  0.03804  1.0000
  H   H333      1.0  0.16945  0.07944  0.01068  1.0000
  H   H334      1.0  0.12905  0.1353  0.99311  1.0000
  H   H335      1.0  0.205  0.23531999999999997  0.99934  1.0000
  H   H336      1.0  0.14474  0.24113  0.98264  1.0000
  H   H337      1.0  0.57668  0.8326900000000002  0.46277  1.0000
  H   H338      1.0  0.55908  0.72674  0.46805  1.0000
  H   H339      1.0  0.6206  0.71499  0.46817999999999993  1.0000
  H   H340      1.0  0.73305  0.79807  0.46237999999999996  1.0000
  H   H341      1.0  0.74003  0.86011  0.45988999999999997  1.0000
  H   H342      1.0  0.63361  0.87471  0.46079  1.0000
  H   H343      1.0  0.66798  0.72204  0.5126  1.0000
  H   H344      1.0  0.71269  0.67901  0.52162  1.0000
  H   H345      1.0  0.76281  0.71192  0.43256  1.0000
  H   H346      1.0  0.71749  0.75412  0.42265  1.0000
  H   H347      1.0  0.71596  0.62614  0.46684  1.0000
  H   H348      1.0  0.72777  0.56459  0.46196  1.0000
  H   H349      1.0  0.8305399999999998  0.57944  0.48931  1.0000
  H   H350      1.0  0.8709499999999999  0.6353  0.50689  1.0000
  H   H351      1.0  0.795  0.73531  0.50066  1.0000
  H   H352      1.0  0.85526  0.74113  0.51736  1.0000
  H   H353      1.0  0.9233099999999999  0.16731  0.9627700000000001  1.0000
  H   H354      1.0  0.9409199999999999  0.27326  0.96805  1.0000
  H   H355      1.0  0.8793999999999998  0.28501  0.9681799999999999  1.0000
  H   H356      1.0  0.76695  0.20192999999999997  0.96237  1.0000
  H   H357      1.0  0.75997  0.13989  0.95989  1.0000
  H   H358      1.0  0.8663899999999999  0.12529  0.96079  1.0000
  H   H359      1.0  0.8320199999999999  0.27795  0.012610000000000001  1.0000
  H   H360      1.0  0.7873  0.32099  0.02162  1.0000
  H   H361      1.0  0.73718  0.28808  0.93255  1.0000
  H   H362      1.0  0.7825  0.24587  0.9226499999999999  1.0000
  H   H363      1.0  0.78404  0.37386  0.96684  1.0000
  H   H364      1.0  0.77223  0.43540999999999996  0.96196  1.0000
  H   H365      1.0  0.66945  0.4205499999999999  0.98931  1.0000
  H   H366      1.0  0.62904  0.3647  0.00689  1.0000
  H   H367      1.0  0.705  0.26468  0.00066  1.0000
  H   H368      1.0  0.64474  0.25887  0.01736  1.0000
  H   H369      1.0  0.07669  0.66731  0.53722  1.0000
  H   H370      1.0  0.059079999999999994  0.77326  0.53195  1.0000
  H   H371      1.0  0.12060000000000001  0.78501  0.53182  1.0000
  H   H372      1.0  0.23304999999999998  0.70193  0.53762  1.0000
  H   H373      1.0  0.24003  0.63989  0.54011  1.0000
  H   H374      1.0  0.13361  0.62529  0.53921  1.0000
  H   H375      1.0  0.16798  0.77795  0.48739  1.0000
  H   H376      1.0  0.2127  0.82099  0.47838  1.0000
  H   H377      1.0  0.26281  0.78808  0.56744  1.0000
  H   H378      1.0  0.21748999999999996  0.74587  0.57735  1.0000
  H   H379      1.0  0.21595999999999999  0.8738599999999999  0.53316  1.0000
  H   H380      1.0  0.22776999999999997  0.9354  0.53804  1.0000
  H   H381      1.0  0.33055  0.92055  0.51068  1.0000
  H   H382      1.0  0.37095  0.8647  0.49311  1.0000
  H   H383      1.0  0.295  0.76468  0.49934  1.0000
  H   H384      1.0  0.35526  0.75887  0.48264  1.0000
  C   C1        1.0  0.96544  0.52793  0.71368  1.0000
  C   C2        1.0  0.96387  0.58674  0.69256  1.0000
  C   C3        1.0  0.96537  0.56467  0.71979  1.0000
  C   C4        1.0  0.96694  0.57704  0.75287  1.0000
  C   C5        1.0  0.9671  0.61125  0.7595  1.0000
  C   C6        1.0  0.9654499999999999  0.63307  0.73217  1.0000
  C   C7        1.0  0.96366  0.62114  0.69861  1.0000
  C   C8        1.0  0.9616099999999999  0.65026  0.67706  1.0000
  C   C9        1.0  0.9619699999999999  0.67879  0.69829  1.0000
  C   C10       1.0  0.96143  0.71139  0.68557  1.0000
  C   C11       1.0  0.9603  0.71524  0.65103  1.0000
  C   C12       1.0  0.9600699999999999  0.6872899999999998  0.62942  1.0000
  C   C13       1.0  0.96069  0.65472  0.64241  1.0000
  C   C14       1.0  0.96068  0.69273  0.59263  1.0000
  C   C15       1.0  0.9675199999999999  0.69059  0.75884  1.0000
  C   C16       1.0  0.99482  0.68836  0.78072  1.0000
  C   C17       1.0  0.99996  0.71335  0.80456  1.0000
  C   C18       1.0  0.97805  0.74059  0.8063499999999999  1.0000
  C   C19       1.0  0.9498699999999999  0.74196  0.78564  1.0000
  C   C20       1.0  0.94444  0.71684  0.76212  1.0000
  C   C21       1.0  0.9878499999999999  0.79987  0.87569  1.0000
  C   C22       1.0  0.98103  0.76724  0.86312  1.0000
  C   C23       1.0  0.9717900000000002  0.74071  0.8839299999999999  1.0000
  C   C24       1.0  0.96904  0.74735  0.91796  1.0000
  C   C25       1.0  0.97511  0.77965  0.93095  1.0000
  C   C26       1.0  0.98471  0.80598  0.90988  1.0000
  C   C27       1.0  0.97075  0.78576  0.96728  1.0000
  C   C28       1.0  0.00537  0.8540899999999999  0.84342  1.0000
  C   C29       1.0  0.9964399999999999  0.82056  0.84719  1.0000
  C   C30       1.0  0.9943399999999999  0.79971  0.8183799999999999  1.0000
  C   C31       1.0  0.0019000000000000002  0.81141  0.78631  1.0000
  C   C32       1.0  0.01113  0.8448200000000001  0.78319  1.0000
  C   C33       1.0  0.012549999999999999  0.8662199999999999  0.8112999999999999  1.0000
  C   C34       1.0  0.02077  0.90215  0.80646  1.0000
  C   C35       1.0  0.53456  0.47207000000000005  0.21367999999999998  1.0000
  C   C36       1.0  0.53613  0.41325999999999996  0.19256  1.0000
  C   C37       1.0  0.53462  0.43533  0.21979  1.0000
  C   C38       1.0  0.53306  0.42295  0.25287  1.0000
  C   C39       1.0  0.5329  0.38874  0.2595  1.0000
  C   C40       1.0  0.53454  0.36693  0.23217  1.0000
  C   C41       1.0  0.53633  0.37886  0.19862  1.0000
  C   C42       1.0  0.53839  0.34973  0.17706  1.0000
  C   C43       1.0  0.53803  0.3212  0.1983  1.0000
  C   C44       1.0  0.53856  0.2886  0.18557  1.0000
  C   C45       1.0  0.5397  0.28475  0.15103  1.0000
  C   C46       1.0  0.53992  0.31271  0.12942  1.0000
  C   C47       1.0  0.5393  0.34527  0.14241  1.0000
  C   C48       1.0  0.53931  0.30727  0.09264  1.0000
  C   C49       1.0  0.53248  0.30941  0.25884  1.0000
  C   C50       1.0  0.50518  0.31163  0.28072  1.0000
  C   C51       1.0  0.50004  0.28665  0.30456  1.0000
  C   C52       1.0  0.52194  0.25941  0.30635  1.0000
  C   C53       1.0  0.55013  0.25803  0.28564  1.0000
  C   C54       1.0  0.55555  0.28316  0.26212  1.0000
  C   C55       1.0  0.51215  0.20012000000000002  0.37569  1.0000
  C   C56       1.0  0.51897  0.23276  0.36312  1.0000
  C   C57       1.0  0.5282  0.25929  0.38393  1.0000
  C   C58       1.0  0.53096  0.25264  0.41797  1.0000
  C   C59       1.0  0.52489  0.22034999999999996  0.43095000000000006  1.0000
  C   C60       1.0  0.51528  0.19402  0.40989  1.0000
  C   C61       1.0  0.52925  0.21424  0.46729  1.0000
  C   C62       1.0  0.49462999999999996  0.14591  0.34342  1.0000
  C   C63       1.0  0.50356  0.17944  0.34719  1.0000
  C   C64       1.0  0.50566  0.20028999999999997  0.31838  1.0000
  C   C65       1.0  0.4981  0.18859  0.28631  1.0000
  C   C66       1.0  0.48887  0.15517  0.28319  1.0000
  C   C67       1.0  0.48745  0.13378  0.3113  1.0000
  C   C68       1.0  0.47922999999999993  0.09784  0.30646  1.0000
  C   C69       1.0  0.03456  0.02793  0.78632  1.0000
  C   C70       1.0  0.03613  0.08674  0.8074400000000002  1.0000
  C   C71       1.0  0.03463  0.06467  0.78021  1.0000
  C   C72       1.0  0.03306  0.07704  0.74712  1.0000
  C   C73       1.0  0.0329  0.11126  0.7405  1.0000
  C   C74       1.0  0.03455  0.13307  0.76783  1.0000
  C   C75       1.0  0.03633  0.12113999999999998  0.80138  1.0000
  C   C76       1.0  0.03839  0.15026  0.82293  1.0000
  C   C77       1.0  0.03803  0.17879  0.8017  1.0000
  C   C78       1.0  0.03856  0.21138999999999997  0.81443  1.0000
  C   C79       1.0  0.0397  0.21524  0.84897  1.0000
  C   C80       1.0  0.03992  0.18729  0.87057  1.0000
  C   C81       1.0  0.0393  0.15472  0.85758  1.0000
  C   C82       1.0  0.03931  0.19273  0.90736  1.0000
  C   C83       1.0  0.03248  0.19059  0.74116  1.0000
  C   C84       1.0  0.00518  0.18837  0.71927  1.0000
  C   C85       1.0  4e-05  0.21335  0.69544  1.0000
  C   C86       1.0  0.02194  0.24059  0.69365  1.0000
  C   C87       1.0  0.05013  0.24197  0.71436  1.0000
  C   C88       1.0  0.05555  0.21684  0.73787  1.0000
  C   C89       1.0  0.01215  0.29988  0.62431  1.0000
  C   C90       1.0  0.01897  0.26724  0.63687  1.0000
  C   C91       1.0  0.0282  0.24071  0.61607  1.0000
  C   C92       1.0  0.03096  0.24736  0.58203  1.0000
  C   C93       1.0  0.02489  0.27965  0.56905  1.0000
  C   C94       1.0  0.01528  0.30598  0.59011  1.0000
  C   C95       1.0  0.02925  0.28576  0.53271  1.0000
  C   C96       1.0  0.99462  0.35409  0.65658  1.0000
  C   C97       1.0  0.00356  0.32056  0.65281  1.0000
  C   C98       1.0  0.00566  0.29971  0.68161  1.0000
  C   C99       1.0  0.9981  0.31141  0.71369  1.0000
  C   C100      1.0  0.9888699999999999  0.34482  0.7168  1.0000
  C   C101      1.0  0.98745  0.36622  0.6887  1.0000
  C   C102      1.0  0.9792199999999999  0.40215999999999996  0.69354  1.0000
  C   C103      1.0  0.46544  0.9720699999999999  0.28632  1.0000
  C   C104      1.0  0.46386999999999995  0.9132499999999999  0.30744  1.0000
  C   C105      1.0  0.46537  0.9353199999999999  0.28021  1.0000
  C   C106      1.0  0.46693999999999997  0.92295  0.24712  1.0000
  C   C107      1.0  0.46709999999999996  0.88874  0.24049999999999996  1.0000
  C   C108      1.0  0.46545  0.86693  0.26783  1.0000
  C   C109      1.0  0.46367  0.87886  0.30138  1.0000
  C   C110      1.0  0.46160999999999996  0.8497299999999999  0.32294  1.0000
  C   C111      1.0  0.46197000000000005  0.8212  0.3017  1.0000
  C   C112      1.0  0.46144  0.7886  0.31443  1.0000
  C   C113      1.0  0.4603  0.78475  0.34897  1.0000
  C   C114      1.0  0.46007999999999993  0.8127  0.37058  1.0000
  C   C115      1.0  0.46068999999999993  0.8452699999999999  0.35758  1.0000
  C   C116      1.0  0.46068  0.8072699999999999  0.40736  1.0000
  C   C117      1.0  0.46752  0.80941  0.24115999999999999  1.0000
  C   C118      1.0  0.49482  0.8116300000000001  0.21928  1.0000
  C   C119      1.0  0.49995999999999996  0.78665  0.19544  1.0000
  C   C120      1.0  0.47806  0.75941  0.19365  1.0000
  C   C121      1.0  0.44987000000000005  0.75803  0.21436000000000002  1.0000
  C   C122      1.0  0.44445  0.78316  0.23786999999999997  1.0000
  C   C123      1.0  0.48785  0.70012  0.12431000000000002  1.0000
  C   C124      1.0  0.48103  0.73276  0.13688  1.0000
  C   C125      1.0  0.47179000000000004  0.7592899999999999  0.11607  1.0000
  C   C126      1.0  0.46904  0.75264  0.08203  1.0000
  C   C127      1.0  0.47511  0.72034  0.06905  1.0000
  C   C128      1.0  0.48472  0.69402  0.09011  1.0000
  C   C129      1.0  0.47075  0.71424  0.03271  1.0000
  C   C130      1.0  0.50537  0.6459  0.15658  1.0000
  C   C131      1.0  0.49644  0.67944  0.15281  1.0000
  C   C132      1.0  0.49434  0.70028  0.18162  1.0000
  C   C133      1.0  0.5019  0.68859  0.21369  1.0000
  C   C134      1.0  0.51113  0.65517  0.21680999999999997  1.0000
  C   C135      1.0  0.51255  0.63378  0.1887  1.0000
  C   C136      1.0  0.52077  0.59784  0.19354  1.0000
  C   C137      1.0  0.71368  0.96544  0.52793  1.0000
  C   C138      1.0  0.69256  0.96387  0.58674  1.0000
  C   C139      1.0  0.71979  0.96537  0.56467  1.0000
  C   C140      1.0  0.75287  0.96694  0.57704  1.0000
  C   C141      1.0  0.7595  0.9671  0.61125  1.0000
  C   C142      1.0  0.73217  0.9654499999999999  0.63307  1.0000
  C   C143      1.0  0.69861  0.96366  0.62114  1.0000
  C   C144      1.0  0.67706  0.9616099999999999  0.65026  1.0000
  C   C145      1.0  0.69829  0.9619699999999999  0.67879  1.0000
  C   C146      1.0  0.68557  0.96143  0.71139  1.0000
  C   C147      1.0  0.65103  0.9603  0.71524  1.0000
  C   C148      1.0  0.62942  0.9600799999999999  0.6872899999999998  1.0000
  C   C149      1.0  0.64241  0.96069  0.65472  1.0000
  C   C150      1.0  0.59263  0.96068  0.69273  1.0000
  C   C151      1.0  0.75884  0.9675199999999999  0.69059  1.0000
  C   C152      1.0  0.78072  0.99482  0.68836  1.0000
  C   C153      1.0  0.80456  0.99996  0.71335  1.0000
  C   C154      1.0  0.8063499999999999  0.97805  0.74059  1.0000
  C   C155      1.0  0.78564  0.9498699999999999  0.74197  1.0000
  C   C156      1.0  0.76212  0.94444  0.71684  1.0000
  C   C157      1.0  0.87569  0.9878499999999999  0.79987  1.0000
  C   C158      1.0  0.86312  0.98103  0.76724  1.0000
  C   C159      1.0  0.8839299999999999  0.9717900000000002  0.74071  1.0000
  C   C160      1.0  0.91796  0.96904  0.74735  1.0000
  C   C161      1.0  0.93095  0.97511  0.77965  1.0000
  C   C162      1.0  0.90988  0.98471  0.80598  1.0000
  C   C163      1.0  0.96728  0.97075  0.78576  1.0000
  C   C164      1.0  0.84342  0.00537  0.8540899999999999  1.0000
  C   C165      1.0  0.84719  0.9964399999999999  0.82056  1.0000
  C   C166      1.0  0.8183799999999999  0.9943399999999999  0.79971  1.0000
  C   C167      1.0  0.78631  0.0019000000000000002  0.81141  1.0000
  C   C168      1.0  0.78319  0.01113  0.8448200000000001  1.0000
  C   C169      1.0  0.8112999999999999  0.012549999999999999  0.8662199999999999  1.0000
  C   C170      1.0  0.80646  0.02077  0.90215  1.0000
  C   C171      1.0  0.21367999999999998  0.53456  0.47207000000000005  1.0000
  C   C172      1.0  0.19256  0.53613  0.41325999999999996  1.0000
  C   C173      1.0  0.21979  0.53462  0.43533  1.0000
  C   C174      1.0  0.25287  0.53306  0.42295  1.0000
  C   C175      1.0  0.2595  0.5329  0.38874  1.0000
  C   C176      1.0  0.23217  0.53454  0.36693  1.0000
  C   C177      1.0  0.19862  0.53633  0.37886  1.0000
  C   C178      1.0  0.17706  0.53839  0.34973  1.0000
  C   C179      1.0  0.1983  0.53803  0.3212  1.0000
  C   C180      1.0  0.18557  0.53856  0.2886  1.0000
  C   C181      1.0  0.15103  0.5397  0.28475  1.0000
  C   C182      1.0  0.12942  0.53992  0.31271  1.0000
  C   C183      1.0  0.14241  0.5393  0.34527  1.0000
  C   C184      1.0  0.09264  0.53931  0.30727  1.0000
  C   C185      1.0  0.25884  0.53248  0.30941  1.0000
  C   C186      1.0  0.28072  0.50518  0.31163  1.0000
  C   C187      1.0  0.30456  0.50004  0.28665  1.0000
  C   C188      1.0  0.30635  0.52194  0.25941  1.0000
  C   C189      1.0  0.28564  0.55013  0.25803  1.0000
  C   C190      1.0  0.26212  0.55555  0.28316  1.0000
  C   C191      1.0  0.37569  0.51215  0.20012000000000002  1.0000
  C   C192      1.0  0.36312  0.51897  0.23276  1.0000
  C   C193      1.0  0.38393  0.5282  0.25929  1.0000
  C   C194      1.0  0.41797  0.53096  0.25264  1.0000
  C   C195      1.0  0.43095000000000006  0.52489  0.22034999999999996  1.0000
  C   C196      1.0  0.40989  0.51528  0.19402  1.0000
  C   C197      1.0  0.46729  0.52925  0.21424  1.0000
  C   C198      1.0  0.34342  0.49462999999999996  0.14591  1.0000
  C   C199      1.0  0.34719  0.50356  0.17944  1.0000
  C   C200      1.0  0.31838  0.50566  0.20028999999999997  1.0000
  C   C201      1.0  0.28631  0.4981  0.18859  1.0000
  C   C202      1.0  0.28319  0.48887  0.15517  1.0000
  C   C203      1.0  0.3113  0.48745  0.13378  1.0000
  C   C204      1.0  0.30646  0.47922999999999993  0.09784  1.0000
  C   C205      1.0  0.78632  0.03456  0.02793  1.0000
  C   C206      1.0  0.8074400000000002  0.03613  0.08674  1.0000
  C   C207      1.0  0.78021  0.03463  0.06467  1.0000
  C   C208      1.0  0.74712  0.03306  0.07705  1.0000
  C   C209      1.0  0.7405  0.0329  0.11126  1.0000
  C   C210      1.0  0.76783  0.03455  0.13307  1.0000
  C   C211      1.0  0.80138  0.03633  0.12113999999999998  1.0000
  C   C212      1.0  0.82293  0.03839  0.15026  1.0000
  C   C213      1.0  0.8017  0.03803  0.17879  1.0000
  C   C214      1.0  0.81443  0.03856  0.21138999999999997  1.0000
  C   C215      1.0  0.84897  0.0397  0.21524  1.0000
  C   C216      1.0  0.87057  0.03992  0.18729  1.0000
  C   C217      1.0  0.85758  0.0393  0.15472  1.0000
  C   C218      1.0  0.90736  0.03931  0.19273  1.0000
  C   C219      1.0  0.74116  0.03248  0.19059  1.0000
  C   C220      1.0  0.71927  0.00518  0.18837  1.0000
  C   C221      1.0  0.69544  4e-05  0.21335  1.0000
  C   C222      1.0  0.69365  0.02194  0.24059  1.0000
  C   C223      1.0  0.71436  0.05013  0.24197  1.0000
  C   C224      1.0  0.73787  0.05555  0.21684  1.0000
  C   C225      1.0  0.62431  0.01215  0.29988  1.0000
  C   C226      1.0  0.63687  0.01897  0.26724  1.0000
  C   C227      1.0  0.61607  0.0282  0.24071  1.0000
  C   C228      1.0  0.58203  0.03096  0.24736  1.0000
  C   C229      1.0  0.56905  0.02489  0.27965  1.0000
  C   C230      1.0  0.59011  0.01528  0.30598  1.0000
  C   C231      1.0  0.53271  0.02925  0.28576  1.0000
  C   C232      1.0  0.65658  0.99462  0.35409  1.0000
  C   C233      1.0  0.65281  0.00356  0.32056  1.0000
  C   C234      1.0  0.68161  0.00566  0.29971  1.0000
  C   C235      1.0  0.71369  0.9981  0.31141  1.0000
  C   C236      1.0  0.7168  0.9888699999999999  0.34482  1.0000
  C   C237      1.0  0.6887  0.98745  0.36622  1.0000
  C   C238      1.0  0.69354  0.9792199999999999  0.40215999999999996  1.0000
  C   C239      1.0  0.28632  0.46544  0.9720699999999999  1.0000
  C   C240      1.0  0.30744  0.46386999999999995  0.9132499999999999  1.0000
  C   C241      1.0  0.28021  0.46537  0.9353199999999999  1.0000
  C   C242      1.0  0.24712  0.46693999999999997  0.92295  1.0000
  C   C243      1.0  0.24049999999999996  0.46709999999999996  0.88874  1.0000
  C   C244      1.0  0.26783  0.46545  0.86693  1.0000
  C   C245      1.0  0.30138  0.46367  0.87886  1.0000
  C   C246      1.0  0.32294  0.46160999999999996  0.8497299999999999  1.0000
  C   C247      1.0  0.3017  0.46197000000000005  0.8212  1.0000
  C   C248      1.0  0.31443  0.46144  0.7886  1.0000
  C   C249      1.0  0.34897  0.4603  0.78475  1.0000
  C   C250      1.0  0.37058  0.46007999999999993  0.8127  1.0000
  C   C251      1.0  0.35758  0.46068999999999993  0.8452699999999999  1.0000
  C   C252      1.0  0.40736  0.46068  0.8072699999999999  1.0000
  C   C253      1.0  0.24115999999999999  0.46752  0.80941  1.0000
  C   C254      1.0  0.21928  0.49482  0.8116300000000001  1.0000
  C   C255      1.0  0.19544  0.49995999999999996  0.78665  1.0000
  C   C256      1.0  0.19365  0.47806  0.75941  1.0000
  C   C257      1.0  0.21436000000000002  0.44987000000000005  0.75803  1.0000
  C   C258      1.0  0.23787999999999998  0.44445  0.78316  1.0000
  C   C259      1.0  0.12431000000000002  0.48785  0.70012  1.0000
  C   C260      1.0  0.13688  0.48103  0.73276  1.0000
  C   C261      1.0  0.11607  0.47179000000000004  0.7592899999999999  1.0000
  C   C262      1.0  0.08203  0.46904  0.75264  1.0000
  C   C263      1.0  0.06905  0.47511  0.72034  1.0000
  C   C264      1.0  0.09011  0.48472  0.69402  1.0000
  C   C265      1.0  0.03271  0.47075  0.71424  1.0000
  C   C266      1.0  0.15658  0.50537  0.6459  1.0000
  C   C267      1.0  0.15281  0.49644  0.67944  1.0000
  C   C268      1.0  0.18162  0.49434  0.70028  1.0000
  C   C269      1.0  0.21369  0.5019  0.68859  1.0000
  C   C270      1.0  0.21680999999999997  0.51113  0.65517  1.0000
  C   C271      1.0  0.1887  0.51255  0.63378  1.0000
  C   C272      1.0  0.19354  0.52077  0.59784  1.0000
  C   C273      1.0  0.52793  0.71368  0.96544  1.0000
  C   C274      1.0  0.58674  0.69256  0.96387  1.0000
  C   C275      1.0  0.56467  0.71979  0.96537  1.0000
  C   C276      1.0  0.57704  0.75287  0.96694  1.0000
  C   C277      1.0  0.61125  0.7595  0.9671  1.0000
  C   C278      1.0  0.63307  0.73217  0.9654499999999999  1.0000
  C   C279      1.0  0.62114  0.69861  0.96366  1.0000
  C   C280      1.0  0.65026  0.67706  0.9616099999999999  1.0000
  C   C281      1.0  0.67879  0.69829  0.9619699999999999  1.0000
  C   C282      1.0  0.71139  0.68557  0.96143  1.0000
  C   C283      1.0  0.71524  0.65103  0.9603  1.0000
  C   C284      1.0  0.6872899999999998  0.62942  0.9600799999999999  1.0000
  C   C285      1.0  0.65472  0.64241  0.96069  1.0000
  C   C286      1.0  0.69273  0.59263  0.96068  1.0000
  C   C287      1.0  0.69059  0.75884  0.9675199999999999  1.0000
  C   C288      1.0  0.68836  0.78072  0.99482  1.0000
  C   C289      1.0  0.71335  0.80456  0.99996  1.0000
  C   C290      1.0  0.74059  0.8063499999999999  0.97805  1.0000
  C   C291      1.0  0.74197  0.78564  0.9498699999999999  1.0000
  C   C292      1.0  0.71684  0.76212  0.94444  1.0000
  C   C293      1.0  0.79987  0.87569  0.9878499999999999  1.0000
  C   C294      1.0  0.76724  0.86312  0.98103  1.0000
  C   C295      1.0  0.74071  0.8839299999999999  0.9717900000000002  1.0000
  C   C296      1.0  0.74735  0.91796  0.96904  1.0000
  C   C297      1.0  0.77965  0.93095  0.97511  1.0000
  C   C298      1.0  0.80598  0.90988  0.98471  1.0000
  C   C299      1.0  0.78576  0.96728  0.97075  1.0000
  C   C300      1.0  0.8540899999999999  0.84342  0.00537  1.0000
  C   C301      1.0  0.82056  0.84719  0.9964399999999999  1.0000
  C   C302      1.0  0.79971  0.8183799999999999  0.9943399999999999  1.0000
  C   C303      1.0  0.81141  0.78631  0.0019000000000000002  1.0000
  C   C304      1.0  0.8448200000000001  0.78319  0.01113  1.0000
  C   C305      1.0  0.8662199999999999  0.8112999999999999  0.012549999999999999  1.0000
  C   C306      1.0  0.90215  0.80646  0.02077  1.0000
  C   C307      1.0  0.47207000000000005  0.21367999999999998  0.53456  1.0000
  C   C308      1.0  0.41325999999999996  0.19256  0.53613  1.0000
  C   C309      1.0  0.43533  0.21979  0.53462  1.0000
  C   C310      1.0  0.42295  0.25287  0.53306  1.0000
  C   C311      1.0  0.38874  0.2595  0.5329  1.0000
  C   C312      1.0  0.36693  0.23217  0.53454  1.0000
  C   C313      1.0  0.37886  0.19862  0.53633  1.0000
  C   C314      1.0  0.34973  0.17706  0.53839  1.0000
  C   C315      1.0  0.3212  0.1983  0.53803  1.0000
  C   C316      1.0  0.2886  0.18557  0.53856  1.0000
  C   C317      1.0  0.28475  0.15103  0.5397  1.0000
  C   C318      1.0  0.31271  0.12942  0.53992  1.0000
  C   C319      1.0  0.34527  0.14241  0.5393  1.0000
  C   C320      1.0  0.30727  0.09264  0.53931  1.0000
  C   C321      1.0  0.30941  0.25884  0.53248  1.0000
  C   C322      1.0  0.31163  0.28072  0.50518  1.0000
  C   C323      1.0  0.28665  0.30456  0.50004  1.0000
  C   C324      1.0  0.25941  0.30635  0.52194  1.0000
  C   C325      1.0  0.25803  0.28564  0.55013  1.0000
  C   C326      1.0  0.28316  0.26212  0.55555  1.0000
  C   C327      1.0  0.20012000000000002  0.37569  0.51215  1.0000
  C   C328      1.0  0.23276  0.36312  0.51897  1.0000
  C   C329      1.0  0.25929  0.38393  0.5282  1.0000
  C   C330      1.0  0.25264  0.41797  0.53096  1.0000
  C   C331      1.0  0.22034999999999996  0.43095000000000006  0.52489  1.0000
  C   C332      1.0  0.19402  0.40989  0.51528  1.0000
  C   C333      1.0  0.21424  0.46729  0.52925  1.0000
  C   C334      1.0  0.14591  0.34342  0.49462999999999996  1.0000
  C   C335      1.0  0.17944  0.34719  0.50356  1.0000
  C   C336      1.0  0.20028999999999997  0.31838  0.50566  1.0000
  C   C337      1.0  0.18859  0.28631  0.4981  1.0000
  C   C338      1.0  0.15517  0.28319  0.48887  1.0000
  C   C339      1.0  0.13378  0.3113  0.48745  1.0000
  C   C340      1.0  0.09784  0.30646  0.47922999999999993  1.0000
  C   C341      1.0  0.02793  0.78632  0.03456  1.0000
  C   C342      1.0  0.08674  0.8074400000000002  0.03613  1.0000
  C   C343      1.0  0.06467  0.78021  0.03463  1.0000
  C   C344      1.0  0.07705  0.74712  0.03306  1.0000
  C   C345      1.0  0.11126  0.7405  0.0329  1.0000
  C   C346      1.0  0.13307  0.76783  0.03455  1.0000
  C   C347      1.0  0.12113999999999998  0.80138  0.03633  1.0000
  C   C348      1.0  0.15026  0.82293  0.03839  1.0000
  C   C349      1.0  0.17879  0.8017  0.03803  1.0000
  C   C350      1.0  0.21138999999999997  0.81443  0.03856  1.0000
  C   C351      1.0  0.21524  0.84897  0.0397  1.0000
  C   C352      1.0  0.18729  0.87057  0.03992  1.0000
  C   C353      1.0  0.15472  0.85758  0.0393  1.0000
  C   C354      1.0  0.19273  0.90736  0.03931  1.0000
  C   C355      1.0  0.19059  0.74116  0.03248  1.0000
  C   C356      1.0  0.18837  0.71927  0.00518  1.0000
  C   C357      1.0  0.21335  0.69544  4e-05  1.0000
  C   C358      1.0  0.24059  0.69365  0.02194  1.0000
  C   C359      1.0  0.24197  0.71436  0.05013  1.0000
  C   C360      1.0  0.21684  0.73787  0.05555  1.0000
  C   C361      1.0  0.29988  0.62431  0.01215  1.0000
  C   C362      1.0  0.26724  0.63687  0.01897  1.0000
  C   C363      1.0  0.24071  0.61607  0.0282  1.0000
  C   C364      1.0  0.24736  0.58203  0.03096  1.0000
  C   C365      1.0  0.27965  0.56905  0.02489  1.0000
  C   C366      1.0  0.30598  0.59011  0.01528  1.0000
  C   C367      1.0  0.28576  0.53271  0.02925  1.0000
  C   C368      1.0  0.35409  0.65658  0.99463  1.0000
  C   C369      1.0  0.32056  0.65281  0.00356  1.0000
  C   C370      1.0  0.29971  0.68161  0.00566  1.0000
  C   C371      1.0  0.31141  0.71369  0.9981  1.0000
  C   C372      1.0  0.34482  0.7168  0.9888699999999999  1.0000
  C   C373      1.0  0.36622  0.6887  0.98745  1.0000
  C   C374      1.0  0.40215999999999996  0.69354  0.9792199999999999  1.0000
  C   C375      1.0  0.9720699999999999  0.28632  0.46544  1.0000
  C   C376      1.0  0.9132499999999999  0.30744  0.46386999999999995  1.0000
  C   C377      1.0  0.9353199999999999  0.28021  0.46537  1.0000
  C   C378      1.0  0.92295  0.24712  0.46693999999999997  1.0000
  C   C379      1.0  0.88874  0.24049999999999996  0.46709999999999996  1.0000
  C   C380      1.0  0.86693  0.26783  0.46545  1.0000
  C   C381      1.0  0.87886  0.30138  0.46367  1.0000
  C   C382      1.0  0.8497299999999999  0.32294  0.46160999999999996  1.0000
  C   C383      1.0  0.8212  0.3017  0.46197000000000005  1.0000
  C   C384      1.0  0.7886  0.31443  0.46144  1.0000
  C   C385      1.0  0.78475  0.34897  0.4603  1.0000
  C   C386      1.0  0.8127  0.37058  0.46007999999999993  1.0000
  C   C387      1.0  0.8452699999999999  0.35758  0.46068999999999993  1.0000
  C   C388      1.0  0.8072699999999999  0.40736  0.46068  1.0000
  C   C389      1.0  0.80941  0.24115999999999999  0.46752  1.0000
  C   C390      1.0  0.8116300000000001  0.21928  0.49482  1.0000
  C   C391      1.0  0.78665  0.19544  0.49995999999999996  1.0000
  C   C392      1.0  0.75941  0.19365  0.47806  1.0000
  C   C393      1.0  0.75803  0.21436000000000002  0.44987000000000005  1.0000
  C   C394      1.0  0.78316  0.23786999999999997  0.44445  1.0000
  C   C395      1.0  0.70012  0.12431000000000002  0.48785  1.0000
  C   C396      1.0  0.73276  0.13688  0.48103  1.0000
  C   C397      1.0  0.7592899999999999  0.11607  0.47179000000000004  1.0000
  C   C398      1.0  0.75264  0.08203  0.46904  1.0000
  C   C399      1.0  0.72034  0.06905  0.47511  1.0000
  C   C400      1.0  0.69402  0.09011  0.48472  1.0000
  C   C401      1.0  0.71424  0.03271  0.47075  1.0000
  C   C402      1.0  0.6459  0.15658  0.50537  1.0000
  C   C403      1.0  0.67944  0.15281  0.49644  1.0000
  C   C404      1.0  0.70028  0.18162  0.49434  1.0000
  C   C405      1.0  0.68859  0.21369  0.5019  1.0000
  C   C406      1.0  0.65517  0.21680999999999997  0.51113  1.0000
  C   C407      1.0  0.63378  0.1887  0.51255  1.0000
  C   C408      1.0  0.59784  0.19354  0.52077  1.0000
  C   C409      1.0  0.03456  0.47207000000000005  0.28632  1.0000
  C   C410      1.0  0.03613  0.41325999999999996  0.30744  1.0000
  C   C411      1.0  0.03463  0.43533  0.28021  1.0000
  C   C412      1.0  0.03306  0.42295  0.24712  1.0000
  C   C413      1.0  0.0329  0.38874  0.24049999999999996  1.0000
  C   C414      1.0  0.03455  0.36693  0.26783  1.0000
  C   C415      1.0  0.03633  0.37886  0.30138  1.0000
  C   C416      1.0  0.03839  0.34973  0.32294  1.0000
  C   C417      1.0  0.03803  0.3212  0.3017  1.0000
  C   C418      1.0  0.03856  0.2886  0.31443  1.0000
  C   C419      1.0  0.0397  0.28475  0.34897  1.0000
  C   C420      1.0  0.03992  0.31271  0.37058  1.0000
  C   C421      1.0  0.0393  0.34527  0.35758  1.0000
  C   C422      1.0  0.03931  0.30727  0.40736  1.0000
  C   C423      1.0  0.03248  0.30941  0.24115999999999999  1.0000
  C   C424      1.0  0.00518  0.31163  0.21928  1.0000
  C   C425      1.0  4e-05  0.28665  0.19544  1.0000
  C   C426      1.0  0.02194  0.25941  0.19365  1.0000
  C   C427      1.0  0.05013  0.25803  0.21436000000000002  1.0000
  C   C428      1.0  0.05555  0.28316  0.23786999999999997  1.0000
  C   C429      1.0  0.01215  0.20012000000000002  0.12431000000000002  1.0000
  C   C430      1.0  0.01897  0.23276  0.13688  1.0000
  C   C431      1.0  0.0282  0.25929  0.11607  1.0000
  C   C432      1.0  0.03096  0.25264  0.08203  1.0000
  C   C433      1.0  0.02489  0.22034999999999996  0.06905  1.0000
  C   C434      1.0  0.01528  0.19402  0.09011  1.0000
  C   C435      1.0  0.02925  0.21424  0.03271  1.0000
  C   C436      1.0  0.99463  0.14591  0.15658  1.0000
  C   C437      1.0  0.00356  0.17944  0.15281  1.0000
  C   C438      1.0  0.00566  0.20028999999999997  0.18162  1.0000
  C   C439      1.0  0.9981  0.18859  0.21369  1.0000
  C   C440      1.0  0.9888699999999999  0.15517  0.21680999999999997  1.0000
  C   C441      1.0  0.98745  0.13378  0.1887  1.0000
  C   C442      1.0  0.9792199999999999  0.09784  0.19354  1.0000
  C   C443      1.0  0.46544  0.52793  0.78632  1.0000
  C   C444      1.0  0.46386999999999995  0.58674  0.8074400000000002  1.0000
  C   C445      1.0  0.46537  0.56467  0.78021  1.0000
  C   C446      1.0  0.46693999999999997  0.57704  0.74712  1.0000
  C   C447      1.0  0.46709999999999996  0.61125  0.7405  1.0000
  C   C448      1.0  0.46545  0.63307  0.76783  1.0000
  C   C449      1.0  0.46367  0.62114  0.80138  1.0000
  C   C450      1.0  0.46160999999999996  0.65026  0.82293  1.0000
  C   C451      1.0  0.46197000000000005  0.67879  0.8017  1.0000
  C   C452      1.0  0.46144  0.71139  0.81443  1.0000
  C   C453      1.0  0.4603  0.71524  0.84897  1.0000
  C   C454      1.0  0.46007999999999993  0.6872899999999998  0.87057  1.0000
  C   C455      1.0  0.46068999999999993  0.65472  0.85758  1.0000
  C   C456      1.0  0.46068  0.69273  0.90736  1.0000
  C   C457      1.0  0.46752  0.69059  0.74116  1.0000
  C   C458      1.0  0.49482  0.68836  0.71927  1.0000
  C   C459      1.0  0.49995999999999996  0.71335  0.69544  1.0000
  C   C460      1.0  0.47806  0.74059  0.69365  1.0000
  C   C461      1.0  0.44987000000000005  0.74196  0.71436  1.0000
  C   C462      1.0  0.44445  0.71684  0.73787  1.0000
  C   C463      1.0  0.48785  0.79987  0.62431  1.0000
  C   C464      1.0  0.48103  0.76724  0.63687  1.0000
  C   C465      1.0  0.47179000000000004  0.74071  0.61607  1.0000
  C   C466      1.0  0.46904  0.74735  0.58203  1.0000
  C   C467      1.0  0.47511  0.77965  0.56905  1.0000
  C   C468      1.0  0.48472  0.80598  0.59011  1.0000
  C   C469      1.0  0.47075  0.78576  0.53271  1.0000
  C   C470      1.0  0.50537  0.8540899999999999  0.65658  1.0000
  C   C471      1.0  0.49644  0.82056  0.65281  1.0000
  C   C472      1.0  0.49434  0.79971  0.68161  1.0000
  C   C473      1.0  0.5019  0.81141  0.71369  1.0000
  C   C474      1.0  0.51113  0.8448200000000001  0.7168  1.0000
  C   C475      1.0  0.51255  0.8662199999999999  0.6887  1.0000
  C   C476      1.0  0.52077  0.90215  0.69354  1.0000
  C   C477      1.0  0.96544  0.9720699999999999  0.21367999999999998  1.0000
  C   C478      1.0  0.96387  0.9132499999999999  0.19256  1.0000
  C   C479      1.0  0.96537  0.9353199999999999  0.21979  1.0000
  C   C480      1.0  0.96694  0.92295  0.25287  1.0000
  C   C481      1.0  0.9671  0.88874  0.2595  1.0000
  C   C482      1.0  0.9654499999999999  0.86693  0.23217  1.0000
  C   C483      1.0  0.96366  0.87886  0.19862  1.0000
  C   C484      1.0  0.9616099999999999  0.8497299999999999  0.17706  1.0000
  C   C485      1.0  0.9619699999999999  0.8212  0.1983  1.0000
  C   C486      1.0  0.96143  0.7886  0.18557  1.0000
  C   C487      1.0  0.9603  0.78475  0.15103  1.0000
  C   C488      1.0  0.9600699999999999  0.8127  0.12942  1.0000
  C   C489      1.0  0.96069  0.8452699999999999  0.14241  1.0000
  C   C490      1.0  0.96068  0.8072699999999999  0.09264  1.0000
  C   C491      1.0  0.9675199999999999  0.80941  0.25884  1.0000
  C   C492      1.0  0.99482  0.8116300000000001  0.28072  1.0000
  C   C493      1.0  0.99996  0.78665  0.30456  1.0000
  C   C494      1.0  0.97805  0.75941  0.30635  1.0000
  C   C495      1.0  0.9498699999999999  0.75803  0.28564  1.0000
  C   C496      1.0  0.94444  0.78316  0.26212  1.0000
  C   C497      1.0  0.9878499999999999  0.70012  0.37569  1.0000
  C   C498      1.0  0.98103  0.73276  0.36312  1.0000
  C   C499      1.0  0.9717900000000002  0.7592899999999999  0.38393  1.0000
  C   C500      1.0  0.96904  0.75264  0.41797  1.0000
  C   C501      1.0  0.97511  0.72034  0.43095000000000006  1.0000
  C   C502      1.0  0.98471  0.69402  0.40989  1.0000
  C   C503      1.0  0.97075  0.71424  0.46729  1.0000
  C   C504      1.0  0.00537  0.6459  0.34342  1.0000
  C   C505      1.0  0.9964399999999999  0.67944  0.34719  1.0000
  C   C506      1.0  0.9943399999999999  0.70028  0.31838  1.0000
  C   C507      1.0  0.0019000000000000002  0.68859  0.28631  1.0000
  C   C508      1.0  0.01113  0.65517  0.28319  1.0000
  C   C509      1.0  0.012549999999999999  0.63378  0.3113  1.0000
  C   C510      1.0  0.02077  0.59784  0.30646  1.0000
  C   C511      1.0  0.53456  0.02793  0.71368  1.0000
  C   C512      1.0  0.53613  0.08674  0.69256  1.0000
  C   C513      1.0  0.53462  0.06467  0.71979  1.0000
  C   C514      1.0  0.53306  0.07704  0.75287  1.0000
  C   C515      1.0  0.5329  0.11126  0.7595  1.0000
  C   C516      1.0  0.53454  0.13307  0.73217  1.0000
  C   C517      1.0  0.53633  0.12113999999999998  0.69861  1.0000
  C   C518      1.0  0.53839  0.15026  0.67706  1.0000
  C   C519      1.0  0.53803  0.17879  0.69829  1.0000
  C   C520      1.0  0.53856  0.21138999999999997  0.68557  1.0000
  C   C521      1.0  0.5397  0.21524  0.65103  1.0000
  C   C522      1.0  0.53992  0.18729  0.62942  1.0000
  C   C523      1.0  0.5393  0.15472  0.64241  1.0000
  C   C524      1.0  0.53931  0.19273  0.59263  1.0000
  C   C525      1.0  0.53248  0.19059  0.75884  1.0000
  C   C526      1.0  0.50518  0.18837  0.78072  1.0000
  C   C527      1.0  0.50004  0.21335  0.80456  1.0000
  C   C528      1.0  0.52194  0.24059  0.8063499999999999  1.0000
  C   C529      1.0  0.55013  0.24197  0.78564  1.0000
  C   C530      1.0  0.55555  0.21684  0.76212  1.0000
  C   C531      1.0  0.51215  0.29988  0.87569  1.0000
  C   C532      1.0  0.51897  0.26724  0.86312  1.0000
  C   C533      1.0  0.5282  0.24071  0.8839299999999999  1.0000
  C   C534      1.0  0.53096  0.24736  0.91796  1.0000
  C   C535      1.0  0.52489  0.27965  0.93095  1.0000
  C   C536      1.0  0.51528  0.30598  0.90988  1.0000
  C   C537      1.0  0.52925  0.28576  0.96728  1.0000
  C   C538      1.0  0.49462999999999996  0.35409  0.84342  1.0000
  C   C539      1.0  0.50356  0.32056  0.84719  1.0000
  C   C540      1.0  0.50566  0.29971  0.8183799999999999  1.0000
  C   C541      1.0  0.4981  0.31141  0.78631  1.0000
  C   C542      1.0  0.48887  0.34482  0.78319  1.0000
  C   C543      1.0  0.48745  0.36622  0.8112999999999999  1.0000
  C   C544      1.0  0.47922999999999993  0.40215999999999996  0.80646  1.0000
  C   C545      1.0  0.28632  0.03456  0.47207000000000005  1.0000
  C   C546      1.0  0.30744  0.03613  0.41325999999999996  1.0000
  C   C547      1.0  0.28021  0.03463  0.43533  1.0000
  C   C548      1.0  0.24712  0.03306  0.42295  1.0000
  C   C549      1.0  0.24049999999999996  0.0329  0.38874  1.0000
  C   C550      1.0  0.26783  0.03455  0.36693  1.0000
  C   C551      1.0  0.30138  0.03633  0.37886  1.0000
  C   C552      1.0  0.32294  0.03839  0.34973  1.0000
  C   C553      1.0  0.3017  0.03803  0.3212  1.0000
  C   C554      1.0  0.31443  0.03856  0.2886  1.0000
  C   C555      1.0  0.34897  0.0397  0.28475  1.0000
  C   C556      1.0  0.37058  0.03992  0.31271  1.0000
  C   C557      1.0  0.35758  0.0393  0.34527  1.0000
  C   C558      1.0  0.40736  0.03931  0.30727  1.0000
  C   C559      1.0  0.24115999999999999  0.03248  0.30941  1.0000
  C   C560      1.0  0.21928  0.00518  0.31163  1.0000
  C   C561      1.0  0.19544  4e-05  0.28665  1.0000
  C   C562      1.0  0.19365  0.02194  0.25941  1.0000
  C   C563      1.0  0.21436000000000002  0.05013  0.25803  1.0000
  C   C564      1.0  0.23786999999999997  0.05555  0.28316  1.0000
  C   C565      1.0  0.12431000000000002  0.01215  0.20012000000000002  1.0000
  C   C566      1.0  0.13688  0.01897  0.23276  1.0000
  C   C567      1.0  0.11607  0.0282  0.25929  1.0000
  C   C568      1.0  0.08203  0.03096  0.25264  1.0000
  C   C569      1.0  0.06905  0.02489  0.22034999999999996  1.0000
  C   C570      1.0  0.09011  0.01528  0.19402  1.0000
  C   C571      1.0  0.03271  0.02925  0.21424  1.0000
  C   C572      1.0  0.15658  0.99463  0.14591  1.0000
  C   C573      1.0  0.15281  0.00356  0.17944  1.0000
  C   C574      1.0  0.18162  0.00566  0.20028999999999997  1.0000
  C   C575      1.0  0.21369  0.9981  0.18859  1.0000
  C   C576      1.0  0.21680999999999997  0.9888699999999999  0.15517  1.0000
  C   C577      1.0  0.1887  0.98745  0.13378  1.0000
  C   C578      1.0  0.19354  0.9792199999999999  0.09784  1.0000
  C   C579      1.0  0.78632  0.46544  0.52793  1.0000
  C   C580      1.0  0.8074400000000002  0.46386999999999995  0.58674  1.0000
  C   C581      1.0  0.78021  0.46537  0.56467  1.0000
  C   C582      1.0  0.74712  0.46693999999999997  0.57704  1.0000
  C   C583      1.0  0.7405  0.46709999999999996  0.61125  1.0000
  C   C584      1.0  0.76783  0.46545  0.63307  1.0000
  C   C585      1.0  0.80138  0.46367  0.62114  1.0000
  C   C586      1.0  0.82293  0.46160999999999996  0.65026  1.0000
  C   C587      1.0  0.8017  0.46197000000000005  0.67879  1.0000
  C   C588      1.0  0.81443  0.46144  0.71139  1.0000
  C   C589      1.0  0.84897  0.4603  0.71524  1.0000
  C   C590      1.0  0.87057  0.46007999999999993  0.6872899999999998  1.0000
  C   C591      1.0  0.85758  0.46068999999999993  0.65472  1.0000
  C   C592      1.0  0.90736  0.46068  0.69273  1.0000
  C   C593      1.0  0.74116  0.46752  0.69059  1.0000
  C   C594      1.0  0.71927  0.49482  0.68836  1.0000
  C   C595      1.0  0.69544  0.49995999999999996  0.71335  1.0000
  C   C596      1.0  0.69365  0.47806  0.74059  1.0000
  C   C597      1.0  0.71436  0.44987000000000005  0.74197  1.0000
  C   C598      1.0  0.73787  0.44445  0.71684  1.0000
  C   C599      1.0  0.62431  0.48785  0.79987  1.0000
  C   C600      1.0  0.63687  0.48103  0.76724  1.0000
  C   C601      1.0  0.61607  0.47179000000000004  0.74071  1.0000
  C   C602      1.0  0.58203  0.46904  0.74735  1.0000
  C   C603      1.0  0.56905  0.47511  0.77965  1.0000
  C   C604      1.0  0.59011  0.48472  0.80598  1.0000
  C   C605      1.0  0.53271  0.47075  0.78576  1.0000
  C   C606      1.0  0.65658  0.50537  0.8540899999999999  1.0000
  C   C607      1.0  0.65281  0.49644  0.82056  1.0000
  C   C608      1.0  0.68161  0.49434  0.79971  1.0000
  C   C609      1.0  0.71369  0.5019  0.81141  1.0000
  C   C610      1.0  0.7168  0.51113  0.8448200000000001  1.0000
  C   C611      1.0  0.6887  0.51255  0.8662199999999999  1.0000
  C   C612      1.0  0.69354  0.52077  0.90215  1.0000
  C   C613      1.0  0.21367999999999998  0.96544  0.9720699999999999  1.0000
  C   C614      1.0  0.19256  0.96387  0.9132499999999999  1.0000
  C   C615      1.0  0.21979  0.96537  0.9353199999999999  1.0000
  C   C616      1.0  0.25287  0.96694  0.92295  1.0000
  C   C617      1.0  0.2595  0.9671  0.88874  1.0000
  C   C618      1.0  0.23217  0.9654499999999999  0.86693  1.0000
  C   C619      1.0  0.19862  0.96366  0.87886  1.0000
  C   C620      1.0  0.17706  0.9616099999999999  0.8497299999999999  1.0000
  C   C621      1.0  0.1983  0.9619699999999999  0.8212  1.0000
  C   C622      1.0  0.18557  0.96143  0.7886  1.0000
  C   C623      1.0  0.15103  0.9603  0.78475  1.0000
  C   C624      1.0  0.12942  0.9600699999999999  0.8127  1.0000
  C   C625      1.0  0.14241  0.96069  0.8452699999999999  1.0000
  C   C626      1.0  0.09264  0.96068  0.8072699999999999  1.0000
  C   C627      1.0  0.25884  0.9675199999999999  0.80941  1.0000
  C   C628      1.0  0.28072  0.99482  0.8116300000000001  1.0000
  C   C629      1.0  0.30456  0.99996  0.78665  1.0000
  C   C630      1.0  0.30635  0.97805  0.75941  1.0000
  C   C631      1.0  0.28564  0.9498699999999999  0.75803  1.0000
  C   C632      1.0  0.26212  0.94444  0.78316  1.0000
  C   C633      1.0  0.37569  0.9878499999999999  0.70012  1.0000
  C   C634      1.0  0.36312  0.98103  0.73276  1.0000
  C   C635      1.0  0.38393  0.9717900000000002  0.7592899999999999  1.0000
  C   C636      1.0  0.41797  0.96904  0.75264  1.0000
  C   C637      1.0  0.43095000000000006  0.97511  0.72034  1.0000
  C   C638      1.0  0.40989  0.98471  0.69402  1.0000
  C   C639      1.0  0.46729  0.97075  0.71424  1.0000
  C   C640      1.0  0.34342  0.00537  0.6459  1.0000
  C   C641      1.0  0.34719  0.9964399999999999  0.67944  1.0000
  C   C642      1.0  0.31838  0.9943399999999999  0.70028  1.0000
  C   C643      1.0  0.28631  0.0019000000000000002  0.68859  1.0000
  C   C644      1.0  0.28319  0.01113  0.65517  1.0000
  C   C645      1.0  0.3113  0.012549999999999999  0.63378  1.0000
  C   C646      1.0  0.30646  0.02077  0.59784  1.0000
  C   C647      1.0  0.71368  0.53456  0.02793  1.0000
  C   C648      1.0  0.69256  0.53613  0.08674  1.0000
  C   C649      1.0  0.71979  0.53462  0.06467  1.0000
  C   C650      1.0  0.75287  0.53306  0.07705  1.0000
  C   C651      1.0  0.7595  0.5329  0.11126  1.0000
  C   C652      1.0  0.73217  0.53454  0.13307  1.0000
  C   C653      1.0  0.69861  0.53633  0.12113999999999998  1.0000
  C   C654      1.0  0.67706  0.53839  0.15026  1.0000
  C   C655      1.0  0.69829  0.53803  0.17879  1.0000
  C   C656      1.0  0.68557  0.53856  0.21138999999999997  1.0000
  C   C657      1.0  0.65103  0.5397  0.21524  1.0000
  C   C658      1.0  0.62942  0.53992  0.18729  1.0000
  C   C659      1.0  0.64241  0.5393  0.15472  1.0000
  C   C660      1.0  0.59263  0.53931  0.19273  1.0000
  C   C661      1.0  0.75884  0.53248  0.19059  1.0000
  C   C662      1.0  0.78072  0.50518  0.18837  1.0000
  C   C663      1.0  0.80456  0.50004  0.21335  1.0000
  C   C664      1.0  0.8063499999999999  0.52194  0.24059  1.0000
  C   C665      1.0  0.78564  0.55013  0.24197  1.0000
  C   C666      1.0  0.76212  0.55555  0.21684  1.0000
  C   C667      1.0  0.87569  0.51215  0.29988  1.0000
  C   C668      1.0  0.86312  0.51897  0.26724  1.0000
  C   C669      1.0  0.8839299999999999  0.5282  0.24071  1.0000
  C   C670      1.0  0.91796  0.53096  0.24736  1.0000
  C   C671      1.0  0.93095  0.52489  0.27965  1.0000
  C   C672      1.0  0.90988  0.51528  0.30598  1.0000
  C   C673      1.0  0.96728  0.52925  0.28576  1.0000
  C   C674      1.0  0.84342  0.49462999999999996  0.35409  1.0000
  C   C675      1.0  0.84719  0.50356  0.32056  1.0000
  C   C676      1.0  0.8183799999999999  0.50566  0.29971  1.0000
  C   C677      1.0  0.78631  0.4981  0.31141  1.0000
  C   C678      1.0  0.78319  0.48887  0.34482  1.0000
  C   C679      1.0  0.8112999999999999  0.48745  0.36622  1.0000
  C   C680      1.0  0.80646  0.47922999999999993  0.40215999999999996  1.0000
  C   C681      1.0  0.47207000000000005  0.28632  0.03456  1.0000
  C   C682      1.0  0.41325999999999996  0.30744  0.03613  1.0000
  C   C683      1.0  0.43533  0.28021  0.03463  1.0000
  C   C684      1.0  0.42295  0.24712  0.03306  1.0000
  C   C685      1.0  0.38874  0.24049999999999996  0.0329  1.0000
  C   C686      1.0  0.36693  0.26783  0.03455  1.0000
  C   C687      1.0  0.37886  0.30138  0.03633  1.0000
  C   C688      1.0  0.34973  0.32294  0.03839  1.0000
  C   C689      1.0  0.3212  0.3017  0.03803  1.0000
  C   C690      1.0  0.2886  0.31443  0.03856  1.0000
  C   C691      1.0  0.28475  0.34897  0.0397  1.0000
  C   C692      1.0  0.31271  0.37058  0.03992  1.0000
  C   C693      1.0  0.34527  0.35758  0.0393  1.0000
  C   C694      1.0  0.30727  0.40736  0.03931  1.0000
  C   C695      1.0  0.30941  0.24115999999999999  0.03248  1.0000
  C   C696      1.0  0.31163  0.21928  0.00518  1.0000
  C   C697      1.0  0.28665  0.19544  4e-05  1.0000
  C   C698      1.0  0.25941  0.19365  0.02194  1.0000
  C   C699      1.0  0.25803  0.21436000000000002  0.05013  1.0000
  C   C700      1.0  0.28316  0.23786999999999997  0.05555  1.0000
  C   C701      1.0  0.20012000000000002  0.12431000000000002  0.01215  1.0000
  C   C702      1.0  0.23276  0.13688  0.01897  1.0000
  C   C703      1.0  0.25929  0.11607  0.0282  1.0000
  C   C704      1.0  0.25264  0.08203  0.03096  1.0000
  C   C705      1.0  0.22034999999999996  0.06905  0.02489  1.0000
  C   C706      1.0  0.19402  0.09011  0.01528  1.0000
  C   C707      1.0  0.21424  0.03271  0.02925  1.0000
  C   C708      1.0  0.14591  0.15658  0.99463  1.0000
  C   C709      1.0  0.17944  0.15281  0.00356  1.0000
  C   C710      1.0  0.20028999999999997  0.18162  0.00566  1.0000
  C   C711      1.0  0.18859  0.21369  0.9981  1.0000
  C   C712      1.0  0.15517  0.21680999999999997  0.9888699999999999  1.0000
  C   C713      1.0  0.13378  0.1887  0.98745  1.0000
  C   C714      1.0  0.09784  0.19354  0.9792199999999999  1.0000
  C   C715      1.0  0.52793  0.78632  0.46544  1.0000
  C   C716      1.0  0.58674  0.8074400000000002  0.46386999999999995  1.0000
  C   C717      1.0  0.56467  0.78021  0.46537  1.0000
  C   C718      1.0  0.57704  0.74712  0.46693999999999997  1.0000
  C   C719      1.0  0.61125  0.7405  0.46709999999999996  1.0000
  C   C720      1.0  0.63307  0.76783  0.46545  1.0000
  C   C721      1.0  0.62114  0.80138  0.46367  1.0000
  C   C722      1.0  0.65026  0.82293  0.46160999999999996  1.0000
  C   C723      1.0  0.67879  0.8017  0.46197000000000005  1.0000
  C   C724      1.0  0.71139  0.81443  0.46144  1.0000
  C   C725      1.0  0.71524  0.84897  0.4603  1.0000
  C   C726      1.0  0.6872899999999998  0.87057  0.46007999999999993  1.0000
  C   C727      1.0  0.65472  0.85758  0.46068999999999993  1.0000
  C   C728      1.0  0.69273  0.90736  0.46068  1.0000
  C   C729      1.0  0.69059  0.74116  0.46752  1.0000
  C   C730      1.0  0.68836  0.71927  0.49482  1.0000
  C   C731      1.0  0.71335  0.69544  0.49995999999999996  1.0000
  C   C732      1.0  0.74059  0.69365  0.47806  1.0000
  C   C733      1.0  0.74197  0.71436  0.44987000000000005  1.0000
  C   C734      1.0  0.71684  0.73787  0.44445  1.0000
  C   C735      1.0  0.79987  0.62431  0.48785  1.0000
  C   C736      1.0  0.76724  0.63687  0.48103  1.0000
  C   C737      1.0  0.74071  0.61607  0.47179000000000004  1.0000
  C   C738      1.0  0.74735  0.58203  0.46904  1.0000
  C   C739      1.0  0.77965  0.56905  0.47511  1.0000
  C   C740      1.0  0.80598  0.59011  0.48472  1.0000
  C   C741      1.0  0.78576  0.53271  0.47075  1.0000
  C   C742      1.0  0.8540899999999999  0.65658  0.50537  1.0000
  C   C743      1.0  0.82056  0.65281  0.49644  1.0000
  C   C744      1.0  0.79971  0.68161  0.49434  1.0000
  C   C745      1.0  0.81141  0.71369  0.5019  1.0000
  C   C746      1.0  0.8448200000000001  0.7168  0.51113  1.0000
  C   C747      1.0  0.8662199999999999  0.6887  0.51255  1.0000
  C   C748      1.0  0.90215  0.69354  0.52077  1.0000
  C   C749      1.0  0.9720699999999999  0.21367999999999998  0.96544  1.0000
  C   C750      1.0  0.9132499999999999  0.19256  0.96387  1.0000
  C   C751      1.0  0.9353199999999999  0.21979  0.96537  1.0000
  C   C752      1.0  0.92295  0.25287  0.96694  1.0000
  C   C753      1.0  0.88874  0.2595  0.9671  1.0000
  C   C754      1.0  0.86693  0.23217  0.9654499999999999  1.0000
  C   C755      1.0  0.87886  0.19862  0.96366  1.0000
  C   C756      1.0  0.8497299999999999  0.17706  0.9616099999999999  1.0000
  C   C757      1.0  0.8212  0.1983  0.9619699999999999  1.0000
  C   C758      1.0  0.7886  0.18557  0.96143  1.0000
  C   C759      1.0  0.78475  0.15103  0.9603  1.0000
  C   C760      1.0  0.8127  0.12942  0.9600799999999999  1.0000
  C   C761      1.0  0.8452699999999999  0.14241  0.96069  1.0000
  C   C762      1.0  0.8072699999999999  0.09264  0.96068  1.0000
  C   C763      1.0  0.80941  0.25884  0.9675199999999999  1.0000
  C   C764      1.0  0.8116300000000001  0.28072  0.99482  1.0000
  C   C765      1.0  0.78665  0.30456  0.99996  1.0000
  C   C766      1.0  0.75941  0.30635  0.97805  1.0000
  C   C767      1.0  0.75803  0.28564  0.9498699999999999  1.0000
  C   C768      1.0  0.78316  0.26212  0.94444  1.0000
  C   C769      1.0  0.70012  0.37569  0.9878499999999999  1.0000
  C   C770      1.0  0.73276  0.36312  0.98103  1.0000
  C   C771      1.0  0.7592899999999999  0.38393  0.9717900000000002  1.0000
  C   C772      1.0  0.75264  0.41795999999999994  0.96904  1.0000
  C   C773      1.0  0.72034  0.43095000000000006  0.97511  1.0000
  C   C774      1.0  0.69402  0.40989  0.98471  1.0000
  C   C775      1.0  0.71424  0.46729  0.97075  1.0000
  C   C776      1.0  0.6459  0.34342  0.00537  1.0000
  C   C777      1.0  0.67944  0.34719  0.9964399999999999  1.0000
  C   C778      1.0  0.70028  0.31838  0.9943399999999999  1.0000
  C   C779      1.0  0.68859  0.28631  0.0019000000000000002  1.0000
  C   C780      1.0  0.65517  0.28319  0.01113  1.0000
  C   C781      1.0  0.63378  0.3113  0.012549999999999999  1.0000
  C   C782      1.0  0.59784  0.30646  0.02077  1.0000
  C   C783      1.0  0.02793  0.71368  0.53456  1.0000
  C   C784      1.0  0.08674  0.69256  0.53613  1.0000
  C   C785      1.0  0.06467  0.71979  0.53462  1.0000
  C   C786      1.0  0.07705  0.75287  0.53306  1.0000
  C   C787      1.0  0.11126  0.7595  0.5329  1.0000
  C   C788      1.0  0.13307  0.73217  0.53454  1.0000
  C   C789      1.0  0.12113999999999998  0.69861  0.53633  1.0000
  C   C790      1.0  0.15026  0.67706  0.53839  1.0000
  C   C791      1.0  0.17879  0.69829  0.53803  1.0000
  C   C792      1.0  0.21138999999999997  0.68557  0.53856  1.0000
  C   C793      1.0  0.21524  0.65103  0.5397  1.0000
  C   C794      1.0  0.18729  0.62942  0.53992  1.0000
  C   C795      1.0  0.15472  0.64241  0.5393  1.0000
  C   C796      1.0  0.19273  0.59263  0.53931  1.0000
  C   C797      1.0  0.19059  0.75884  0.53248  1.0000
  C   C798      1.0  0.18837  0.78072  0.50518  1.0000
  C   C799      1.0  0.21335  0.80456  0.50004  1.0000
  C   C800      1.0  0.24059  0.8063499999999999  0.52194  1.0000
  C   C801      1.0  0.24197  0.78564  0.55013  1.0000
  C   C802      1.0  0.21684  0.76212  0.55555  1.0000
  C   C803      1.0  0.29988  0.87569  0.51215  1.0000
  C   C804      1.0  0.26724  0.86312  0.51897  1.0000
  C   C805      1.0  0.24071  0.8839299999999999  0.5282  1.0000
  C   C806      1.0  0.24736  0.91796  0.53096  1.0000
  C   C807      1.0  0.27965  0.93095  0.52489  1.0000
  C   C808      1.0  0.30598  0.90988  0.51528  1.0000
  C   C809      1.0  0.28576  0.96728  0.52925  1.0000
  C   C810      1.0  0.35409  0.84342  0.49462999999999996  1.0000
  C   C811      1.0  0.32056  0.84719  0.50356  1.0000
  C   C812      1.0  0.29971  0.8183799999999999  0.50566  1.0000
  C   C813      1.0  0.31141  0.78631  0.4981  1.0000
  C   C814      1.0  0.34482  0.78319  0.48887  1.0000
  C   C815      1.0  0.36622  0.8112999999999999  0.48745  1.0000
  C   C816      1.0  0.40215999999999996  0.80646  0.47922999999999993  1.0000
  N   N1        1.0  0.9640799999999999  0.66808  0.73163  1.0000
  N   N2        1.0  0.9848599999999998  0.76762  0.82847  1.0000
  N   N3        1.0  0.53591  0.33191  0.23163  1.0000
  N   N4        1.0  0.51514  0.23238  0.32847  1.0000
  N   N5        1.0  0.03591  0.16808  0.76837  1.0000
  N   N6        1.0  0.015139999999999999  0.26762  0.67153  1.0000
  N   N7        1.0  0.46407999999999994  0.83191  0.26837  1.0000
  N   N8        1.0  0.48485999999999996  0.73238  0.17153  1.0000
  N   N9        1.0  0.73163  0.9640799999999999  0.66808  1.0000
  N   N10       1.0  0.82847  0.9848599999999998  0.76762  1.0000
  N   N11       1.0  0.23163  0.53591  0.33191  1.0000
  N   N12       1.0  0.32847  0.51514  0.23238  1.0000
  N   N13       1.0  0.76837  0.03591  0.16808  1.0000
  N   N14       1.0  0.67153  0.015139999999999999  0.26762  1.0000
  N   N15       1.0  0.26837  0.46407999999999994  0.83191  1.0000
  N   N16       1.0  0.17153  0.48485999999999996  0.73238  1.0000
  N   N17       1.0  0.66808  0.73163  0.9640799999999999  1.0000
  N   N18       1.0  0.76762  0.82847  0.9848599999999998  1.0000
  N   N19       1.0  0.33191  0.23163  0.53591  1.0000
  N   N20       1.0  0.23238  0.32847  0.51514  1.0000
  N   N21       1.0  0.16808  0.76837  0.03591  1.0000
  N   N22       1.0  0.26762  0.67153  0.015139999999999999  1.0000
  N   N23       1.0  0.83191  0.26837  0.46407999999999994  1.0000
  N   N24       1.0  0.73238  0.17153  0.48485999999999996  1.0000
  N   N25       1.0  0.03591  0.33191  0.26837  1.0000
  N   N26       1.0  0.015139999999999999  0.23238  0.17153  1.0000
  N   N27       1.0  0.46407999999999994  0.66808  0.76837  1.0000
  N   N28       1.0  0.48485999999999996  0.76762  0.67153  1.0000
  N   N29       1.0  0.9640799999999999  0.83191  0.23163  1.0000
  N   N30       1.0  0.9848599999999998  0.73238  0.32847  1.0000
  N   N31       1.0  0.53591  0.16808  0.73163  1.0000
  N   N32       1.0  0.51514  0.26762  0.82847  1.0000
  N   N33       1.0  0.26837  0.03591  0.33191  1.0000
  N   N34       1.0  0.17153  0.015139999999999999  0.23238  1.0000
  N   N35       1.0  0.76837  0.46407999999999994  0.66808  1.0000
  N   N36       1.0  0.67153  0.48485999999999996  0.76762  1.0000
  N   N37       1.0  0.23163  0.9640799999999999  0.83191  1.0000
  N   N38       1.0  0.32847  0.9848599999999998  0.73238  1.0000
  N   N39       1.0  0.73163  0.53591  0.16808  1.0000
  N   N40       1.0  0.82847  0.51514  0.26762  1.0000
  N   N41       1.0  0.33191  0.26837  0.03591  1.0000
  N   N42       1.0  0.23238  0.17153  0.015139999999999999  1.0000
  N   N43       1.0  0.66808  0.76837  0.46407999999999994  1.0000
  N   N44       1.0  0.76762  0.67153  0.48485999999999996  1.0000
  N   N45       1.0  0.83191  0.23163  0.9640799999999999  1.0000
  N   N46       1.0  0.73238  0.32847  0.9848599999999998  1.0000
  N   N47       1.0  0.16808  0.73163  0.53591  1.0000
  N   N48       1.0  0.26762  0.82847  0.51514  1.0000
  O   O1        1.0  0.9664  0.5182  0.68313  1.0000
  O   O2        1.0  0.9646699999999999  0.50863  0.73933  1.0000
  O   O3        1.0  0.96293  0.66674  0.57394  1.0000
  O   O4        1.0  0.95946  0.72316  0.58239  1.0000
  O   O5        1.0  0.96124  0.76088  0.9852199999999999  1.0000
  O   O6        1.0  0.97662  0.8153899999999998  0.9780699999999999  1.0000
  O   O7        1.0  0.01702  0.92159  0.83172  1.0000
  O   O8        1.0  0.03052  0.91116  0.77722  1.0000
  O   O9        1.0  0.53359  0.4818  0.18313  1.0000
  O   O10       1.0  0.53533  0.49137  0.23933  1.0000
  O   O11       1.0  0.53707  0.33326  0.07394  1.0000
  O   O12       1.0  0.54054  0.27684  0.08239  1.0000
  O   O13       1.0  0.53875  0.23912  0.48523  1.0000
  O   O14       1.0  0.52337  0.18461  0.47806999999999994  1.0000
  O   O15       1.0  0.48296999999999995  0.07841  0.33172  1.0000
  O   O16       1.0  0.46947999999999995  0.08884  0.27723  1.0000
  O   O17       1.0  0.0336  0.0182  0.8168699999999999  1.0000
  O   O18       1.0  0.03533  0.00863  0.76067  1.0000
  O   O19       1.0  0.03707  0.16674  0.92606  1.0000
  O   O20       1.0  0.04054  0.22316  0.9176099999999999  1.0000
  O   O21       1.0  0.03875  0.26088  0.51477  1.0000
  O   O22       1.0  0.02337  0.31539  0.52193  1.0000
  O   O23       1.0  0.98297  0.42158999999999996  0.66828  1.0000
  O   O24       1.0  0.9694799999999999  0.41115999999999997  0.72277  1.0000
  O   O25       1.0  0.4664  0.9818  0.31687  1.0000
  O   O26       1.0  0.46467  0.99137  0.26067  1.0000
  O   O27       1.0  0.46293  0.83326  0.42605999999999994  1.0000
  O   O28       1.0  0.45946000000000004  0.77684  0.41761  1.0000
  O   O29       1.0  0.46125  0.73912  0.014769999999999998  1.0000
  O   O30       1.0  0.47663  0.6846  0.02193  1.0000
  O   O31       1.0  0.51702  0.57841  0.16828  1.0000
  O   O32       1.0  0.53052  0.58883  0.22276999999999997  1.0000
  O   O33       1.0  0.68313  0.9664  0.5182  1.0000
  O   O34       1.0  0.73933  0.9646699999999999  0.50863  1.0000
  O   O35       1.0  0.57394  0.96293  0.66674  1.0000
  O   O36       1.0  0.58239  0.95946  0.72316  1.0000
  O   O37       1.0  0.9852199999999999  0.96124  0.76088  1.0000
  O   O38       1.0  0.9780699999999999  0.97662  0.8153899999999998  1.0000
  O   O39       1.0  0.83172  0.01702  0.92159  1.0000
  O   O40       1.0  0.77722  0.03052  0.91116  1.0000
  O   O41       1.0  0.18313  0.53359  0.4818  1.0000
  O   O42       1.0  0.23933  0.53533  0.49137  1.0000
  O   O43       1.0  0.07394  0.53707  0.33326  1.0000
  O   O44       1.0  0.08239  0.54054  0.27684  1.0000
  O   O45       1.0  0.48523  0.53875  0.23912  1.0000
  O   O46       1.0  0.47806999999999994  0.52337  0.18461  1.0000
  O   O47       1.0  0.33172  0.48296999999999995  0.07841  1.0000
  O   O48       1.0  0.27723  0.46947999999999995  0.08884  1.0000
  O   O49       1.0  0.8168699999999999  0.0336  0.0182  1.0000
  O   O50       1.0  0.76067  0.03533  0.00863  1.0000
  O   O51       1.0  0.92606  0.03707  0.16674  1.0000
  O   O52       1.0  0.9176099999999999  0.04054  0.22316  1.0000
  O   O53       1.0  0.51477  0.03875  0.26088  1.0000
  O   O54       1.0  0.52193  0.02337  0.31539  1.0000
  O   O55       1.0  0.66828  0.98297  0.42158999999999996  1.0000
  O   O56       1.0  0.72277  0.9694799999999999  0.41115999999999997  1.0000
  O   O57       1.0  0.31687  0.4664  0.9818  1.0000
  O   O58       1.0  0.26067  0.46467  0.99137  1.0000
  O   O59       1.0  0.42605999999999994  0.46293  0.83326  1.0000
  O   O60       1.0  0.41761  0.45946000000000004  0.77684  1.0000
  O   O61       1.0  0.014769999999999998  0.46125  0.73912  1.0000
  O   O62       1.0  0.02193  0.47663  0.6846  1.0000
  O   O63       1.0  0.16828  0.51702  0.57841  1.0000
  O   O64       1.0  0.22276999999999997  0.53052  0.58883  1.0000
  O   O65       1.0  0.5182  0.68313  0.9664  1.0000
  O   O66       1.0  0.50863  0.73933  0.9646699999999999  1.0000
  O   O67       1.0  0.66674  0.57394  0.96293  1.0000
  O   O68       1.0  0.72316  0.58239  0.95946  1.0000
  O   O69       1.0  0.76088  0.9852199999999999  0.96125  1.0000
  O   O70       1.0  0.8153899999999998  0.9780699999999999  0.97662  1.0000
  O   O71       1.0  0.92159  0.83172  0.01702  1.0000
  O   O72       1.0  0.91116  0.77722  0.03052  1.0000
  O   O73       1.0  0.4818  0.18313  0.53359  1.0000
  O   O74       1.0  0.49137  0.23933  0.53533  1.0000
  O   O75       1.0  0.33326  0.07394  0.53707  1.0000
  O   O76       1.0  0.27684  0.08239  0.54054  1.0000
  O   O77       1.0  0.23912  0.48523  0.53875  1.0000
  O   O78       1.0  0.18461  0.47806999999999994  0.52337  1.0000
  O   O79       1.0  0.07841  0.33172  0.48296999999999995  1.0000
  O   O80       1.0  0.08884  0.27723  0.46947999999999995  1.0000
  O   O81       1.0  0.0182  0.8168699999999999  0.0336  1.0000
  O   O82       1.0  0.00863  0.76067  0.03533  1.0000
  O   O83       1.0  0.16674  0.92606  0.03707  1.0000
  O   O84       1.0  0.22316  0.9176099999999999  0.04054  1.0000
  O   O85       1.0  0.26088  0.51477  0.03875  1.0000
  O   O86       1.0  0.31539  0.52193  0.02337  1.0000
  O   O87       1.0  0.42158999999999996  0.66828  0.98297  1.0000
  O   O88       1.0  0.41115999999999997  0.72277  0.9694799999999999  1.0000
  O   O89       1.0  0.9818  0.31687  0.4664  1.0000
  O   O90       1.0  0.99137  0.26067  0.46467  1.0000
  O   O91       1.0  0.83326  0.42605999999999994  0.46293  1.0000
  O   O92       1.0  0.77684  0.41761  0.45946000000000004  1.0000
  O   O93       1.0  0.73912  0.014769999999999998  0.46125  1.0000
  O   O94       1.0  0.6846  0.02193  0.47663  1.0000
  O   O95       1.0  0.57841  0.16828  0.51702  1.0000
  O   O96       1.0  0.58883  0.22276999999999997  0.53052  1.0000
  O   O97       1.0  0.0336  0.4818  0.31687  1.0000
  O   O98       1.0  0.03533  0.49137  0.26067  1.0000
  O   O99       1.0  0.03707  0.33326  0.42605999999999994  1.0000
  O   O100      1.0  0.04054  0.27684  0.41761  1.0000
  O   O101      1.0  0.03875  0.23912  0.014769999999999998  1.0000
  O   O102      1.0  0.02337  0.18461  0.02193  1.0000
  O   O103      1.0  0.98297  0.07841  0.16828  1.0000
  O   O104      1.0  0.9694799999999999  0.08884  0.22276999999999997  1.0000
  O   O105      1.0  0.4664  0.5182  0.8168699999999999  1.0000
  O   O106      1.0  0.46467  0.50863  0.76067  1.0000
  O   O107      1.0  0.46293  0.66674  0.92606  1.0000
  O   O108      1.0  0.45946000000000004  0.72316  0.9176099999999999  1.0000
  O   O109      1.0  0.46125  0.76088  0.51477  1.0000
  O   O110      1.0  0.47663  0.8153899999999998  0.52193  1.0000
  O   O111      1.0  0.51702  0.92159  0.66828  1.0000
  O   O112      1.0  0.53052  0.91116  0.72277  1.0000
  O   O113      1.0  0.9664  0.9818  0.18313  1.0000
  O   O114      1.0  0.9646699999999999  0.99137  0.23933  1.0000
  O   O115      1.0  0.96293  0.83326  0.07394  1.0000
  O   O116      1.0  0.95946  0.77684  0.08239  1.0000
  O   O117      1.0  0.96124  0.73912  0.48523  1.0000
  O   O118      1.0  0.97662  0.6846  0.47806999999999994  1.0000
  O   O119      1.0  0.01702  0.57841  0.33172  1.0000
  O   O120      1.0  0.03052  0.58883  0.27723  1.0000
  O   O121      1.0  0.53359  0.0182  0.68313  1.0000
  O   O122      1.0  0.53533  0.00863  0.73933  1.0000
  O   O123      1.0  0.53707  0.16674  0.57394  1.0000
  O   O124      1.0  0.54054  0.22316  0.58239  1.0000
  O   O125      1.0  0.53875  0.26088  0.9852199999999999  1.0000
  O   O126      1.0  0.52337  0.31539  0.9780699999999999  1.0000
  O   O127      1.0  0.48296999999999995  0.42158999999999996  0.83172  1.0000
  O   O128      1.0  0.46947999999999995  0.41115999999999997  0.77722  1.0000
  O   O129      1.0  0.31687  0.0336  0.4818  1.0000
  O   O130      1.0  0.26067  0.03533  0.49137  1.0000
  O   O131      1.0  0.42605999999999994  0.03707  0.33326  1.0000
  O   O132      1.0  0.41761  0.04054  0.27684  1.0000
  O   O133      1.0  0.014769999999999998  0.03875  0.23912  1.0000
  O   O134      1.0  0.02193  0.02337  0.18461  1.0000
  O   O135      1.0  0.16828  0.98297  0.07841  1.0000
  O   O136      1.0  0.22276999999999997  0.9694799999999999  0.08884  1.0000
  O   O137      1.0  0.8168699999999999  0.4664  0.5182  1.0000
  O   O138      1.0  0.76067  0.46467  0.50863  1.0000
  O   O139      1.0  0.92606  0.46293  0.66674  1.0000
  O   O140      1.0  0.9176099999999999  0.45946000000000004  0.72316  1.0000
  O   O141      1.0  0.51477  0.46125  0.76088  1.0000
  O   O142      1.0  0.52193  0.47663  0.8153899999999998  1.0000
  O   O143      1.0  0.66828  0.51702  0.92159  1.0000
  O   O144      1.0  0.72277  0.53052  0.91116  1.0000
  O   O145      1.0  0.18313  0.9664  0.9818  1.0000
  O   O146      1.0  0.23933  0.9646699999999999  0.99137  1.0000
  O   O147      1.0  0.07394  0.96293  0.83326  1.0000
  O   O148      1.0  0.08239  0.95946  0.77684  1.0000
  O   O149      1.0  0.48523  0.96124  0.73912  1.0000
  O   O150      1.0  0.47806999999999994  0.97662  0.6846  1.0000
  O   O151      1.0  0.33172  0.01702  0.57841  1.0000
  O   O152      1.0  0.27723  0.03052  0.58883  1.0000
  O   O153      1.0  0.68313  0.53359  0.0182  1.0000
  O   O154      1.0  0.73933  0.53533  0.00863  1.0000
  O   O155      1.0  0.57394  0.53707  0.16674  1.0000
  O   O156      1.0  0.58239  0.54054  0.22316  1.0000
  O   O157      1.0  0.9852199999999999  0.53875  0.26088  1.0000
  O   O158      1.0  0.9780699999999999  0.52337  0.31539  1.0000
  O   O159      1.0  0.83172  0.48296999999999995  0.42158999999999996  1.0000
  O   O160      1.0  0.77722  0.46947999999999995  0.41115999999999997  1.0000
  O   O161      1.0  0.4818  0.31687  0.0336  1.0000
  O   O162      1.0  0.49137  0.26067  0.03533  1.0000
  O   O163      1.0  0.33326  0.42605999999999994  0.03707  1.0000
  O   O164      1.0  0.27684  0.41761  0.04054  1.0000
  O   O165      1.0  0.23912  0.014769999999999998  0.03875  1.0000
  O   O166      1.0  0.18461  0.02193  0.02337  1.0000
  O   O167      1.0  0.07841  0.16828  0.98297  1.0000
  O   O168      1.0  0.08884  0.22276999999999997  0.9694799999999999  1.0000
  O   O169      1.0  0.5182  0.8168699999999999  0.4664  1.0000
  O   O170      1.0  0.50863  0.76067  0.46467  1.0000
  O   O171      1.0  0.66674  0.92606  0.46293  1.0000
  O   O172      1.0  0.72316  0.9176099999999999  0.45946000000000004  1.0000
  O   O173      1.0  0.76088  0.51477  0.46125  1.0000
  O   O174      1.0  0.8153899999999998  0.52193  0.47663  1.0000
  O   O175      1.0  0.92159  0.66828  0.51702  1.0000
  O   O176      1.0  0.91116  0.72277  0.53052  1.0000
  O   O177      1.0  0.9818  0.18313  0.9664  1.0000
  O   O178      1.0  0.99137  0.23933  0.9646699999999999  1.0000
  O   O179      1.0  0.83326  0.07394  0.96293  1.0000
  O   O180      1.0  0.77684  0.08239  0.95946  1.0000
  O   O181      1.0  0.73912  0.48523  0.96125  1.0000
  O   O182      1.0  0.6846  0.47806999999999994  0.97662  1.0000
  O   O183      1.0  0.57841  0.33172  0.01702  1.0000
  O   O184      1.0  0.58883  0.27723  0.03052  1.0000
  O   O185      1.0  0.0182  0.68313  0.53359  1.0000
  O   O186      1.0  0.00863  0.73933  0.53533  1.0000
  O   O187      1.0  0.16674  0.57394  0.53707  1.0000
  O   O188      1.0  0.22316  0.58239  0.54054  1.0000
  O   O189      1.0  0.26088  0.9852199999999999  0.53875  1.0000
  O   O190      1.0  0.31539  0.9780699999999999  0.52337  1.0000
  O   O191      1.0  0.42158999999999996  0.83172  0.48296999999999995  1.0000
  O   O192      1.0  0.41115999999999997  0.77722  0.46947999999999995  1.0000
