data_image0
_chemical_formula_structural       Cu36H192W6C240S24Br24N96
_chemical_formula_sum              "Cu36 H192 W6 C240 S24 Br24 N96"
_cell_length_a       26.26699
_cell_length_b       26.26729
_cell_length_c       26.26734
_cell_angle_alpha    109.46321999999999
_cell_angle_beta     109.4611
_cell_angle_gamma    109.46113

_symmetry_space_group_name_H-M    'P 1'
_symmetry_Int_Tables_number       1

loop_
  _symmetry_equiv_pos_as_xyz
  'x,y,z'

loop_
  _atom_site_type_symbol
  _atom_site_label
  _atom_site_symmetry_multiplicity
  _atom_site_fract_x
  _atom_site_fract_y
  _atom_site_fract_z
  _atom_site_occupancy
  Cu  Cu1       1.0  0.8017  0.12266  0.057789999999999994  1.0000
  Cu  Cu2       1.0  0.69839  0.75602  0.32108  1.0000
  Cu  Cu3       1.0  0.5649500000000001  0.74382  0.44217  1.0000
  Cu  Cu4       1.0  0.9349999999999999  0.3772199999999999  0.17895  1.0000
  Cu  Cu5       1.0  0.32106  0.19837999999999997  0.25603  1.0000
  Cu  Cu6       1.0  0.057789999999999994  0.30169  0.62263  1.0000
  Cu  Cu7       1.0  0.17896000000000004  0.43500999999999995  0.87721  1.0000
  Cu  Cu8       1.0  0.4421600000000001  0.06493999999999998  0.24383000000000002  1.0000
  Cu  Cu9       1.0  0.87718  0.6789499999999999  0.935  1.0000
  Cu  Cu10      1.0  0.24383000000000005  0.94214  0.56495  1.0000
  Cu  Cu11      1.0  0.25601999999999997  0.8210599999999999  0.69837  1.0000
  Cu  Cu12      1.0  0.6226700000000002  0.55781  0.80171  1.0000
  Cu  Cu13      1.0  0.19838999999999998  0.3210699999999999  0.75602  1.0000
  Cu  Cu14      1.0  0.3017  0.05779  0.12265999999999999  1.0000
  Cu  Cu15      1.0  0.43500000000000005  0.17894  0.37722  1.0000
  Cu  Cu16      1.0  0.06494999999999995  0.44217  0.74382  1.0000
  Cu  Cu17      1.0  0.6789600000000002  0.87721  0.43501  1.0000
  Cu  Cu18      1.0  0.9421599999999999  0.2438299999999999  0.06494  1.0000
  Cu  Cu19      1.0  0.8210600000000001  0.2560299999999999  0.19837999999999997  1.0000
  Cu  Cu20      1.0  0.55779  0.6226299999999999  0.3017  1.0000
  Cu  Cu21      1.0  0.12267000000000004  0.80171  0.55782  1.0000
  Cu  Cu22      1.0  0.75602  0.6983699999999998  0.82106  1.0000
  Cu  Cu23      1.0  0.7438300000000002  0.56495  0.94214  1.0000
  Cu  Cu24      1.0  0.37719  0.9349999999999998  0.67895  1.0000
  Cu  Cu25      1.0  0.9611500000000001  0.24994  0.21108  1.0000
  Cu  Cu26      1.0  0.5389000000000003  0.74997  0.28885  1.0000
  Cu  Cu27      1.0  0.28885  0.0389  0.24998999999999996  1.0000
  Cu  Cu28      1.0  0.21107999999999996  0.4611499999999999  0.7499199999999999  1.0000
  Cu  Cu29      1.0  0.7499299999999998  0.7110899999999998  0.9611499999999998  1.0000
  Cu  Cu30      1.0  0.24998000000000004  0.7888499999999999  0.53891  1.0000
  Cu  Cu31      1.0  0.03889999999999988  0.2888399999999998  0.7499699999999999  1.0000
  Cu  Cu32      1.0  0.46115  0.21107999999999996  0.24993999999999997  1.0000
  Cu  Cu33      1.0  0.71108  0.7499199999999999  0.46115000000000006  1.0000
  Cu  Cu34      1.0  0.7888500000000003  0.24998999999999993  0.0389  1.0000
  Cu  Cu35      1.0  0.24993000000000012  0.96115  0.71109  1.0000
  Cu  Cu36      1.0  0.74998  0.5389099999999999  0.7888500000000002  1.0000
  H   H1        1.0  0.68091  0.10512999999999997  0.07966  1.0000
  H   H2        1.0  0.6907900000000002  0.014100000000000017  0.92039  1.0000
  H   H3        1.0  0.56646  0.96338  0.8881  1.0000
  H   H4        1.0  0.60618  0.06693999999999999  0.09394  1.0000
  H   H5        1.0  0.03596000000000002  0.39109  0.32029  1.0000
  H   H6        1.0  0.9807400000000001  0.22445  0.32677  1.0000
  H   H7        1.0  0.04982000000000001  0.32197  0.44751  1.0000
  H   H8        1.0  0.08586999999999999  0.4793299999999999  0.39076  1.0000
  H   H9        1.0  0.8189300000000002  0.8988199999999997  0.42413999999999996  1.0000
  H   H10       1.0  0.8095100000000002  0.7297599999999997  0.32388  1.0000
  H   H11       1.0  0.9336100000000002  0.8216799999999999  0.39726  1.0000
  H   H12       1.0  0.8938599999999999  0.9879699999999999  0.46117  1.0000
  H   H13       1.0  0.46417  0.7846  0.35534  1.0000
  H   H14       1.0  0.51928  0.84589  0.24364000000000002  1.0000
  H   H15       1.0  0.4500300000000001  0.8976  0.27207  1.0000
  H   H16       1.0  0.4141699999999999  0.8050099999999998  0.3935100000000001  1.0000
  H   H17       1.0  0.52536  0.6011499999999999  0.42029  1.0000
  H   H18       1.0  0.5939599999999999  0.7702399999999999  0.57963  1.0000
  H   H19       1.0  0.57543  0.67825  0.61199  1.0000
  H   H20       1.0  0.47319000000000006  0.51213  0.40606  1.0000
  H   H21       1.0  0.57063  0.7151599999999998  0.17956  1.0000
  H   H22       1.0  0.39771  0.65424  0.1735  1.0000
  H   H23       1.0  0.37439  0.60249  0.05253  1.0000
  H   H24       1.0  0.5883100000000001  0.6948199999999998  0.10917  1.0000
  H   H25       1.0  0.9744400000000002  0.39477  0.07563  1.0000
  H   H26       1.0  0.9062600000000002  0.48587999999999987  0.17655  1.0000
  H   H27       1.0  0.9247500000000002  0.53666  0.10299  1.0000
  H   H28       1.0  0.026869999999999984  0.43283999999999995  0.03898  1.0000
  H   H29       1.0  0.9293900000000002  0.10879  0.14464  1.0000
  H   H30       1.0  0.10227999999999997  0.27548999999999996  0.25621  1.0000
  H   H31       1.0  0.12563  0.17785  0.22791  1.0000
  H   H32       1.0  0.9115800000000002  0.02063999999999998  0.10658999999999999  1.0000
  H   H33       1.0  0.4241400000000001  0.31893  0.39881  1.0000
  H   H34       1.0  0.32388  0.3095  0.22976  1.0000
  H   H35       1.0  0.39728  0.4336199999999999  0.3217  1.0000
  H   H36       1.0  0.46117000000000014  0.39383999999999997  0.48796  1.0000
  H   H37       1.0  0.3553600000000001  0.96417  0.28461  1.0000
  H   H38       1.0  0.24365000000000006  0.01927999999999996  0.3459  1.0000
  H   H39       1.0  0.27206  0.9500399999999998  0.3976  1.0000
  H   H40       1.0  0.3935200000000001  0.91415  0.30502  1.0000
  H   H41       1.0  0.07966000000000005  0.18091000000000002  0.60512  1.0000
  H   H42       1.0  0.9204000000000002  0.19078999999999993  0.5141  1.0000
  H   H43       1.0  0.8881100000000002  0.06645000000000001  0.46338  1.0000
  H   H44       1.0  0.09394999999999998  0.10618  0.56694  1.0000
  H   H45       1.0  0.3202900000000001  0.53596  0.8911  1.0000
  H   H46       1.0  0.32678  0.48074  0.72447  1.0000
  H   H47       1.0  0.4475100000000001  0.54981  0.8219500000000001  1.0000
  H   H48       1.0  0.39077000000000006  0.5858799999999997  0.9793499999999999  1.0000
  H   H49       1.0  0.07563  0.47442  0.89477  1.0000
  H   H50       1.0  0.1765600000000001  0.40625000000000006  0.9858700000000001  1.0000
  H   H51       1.0  0.10297  0.42476  0.03666  1.0000
  H   H52       1.0  0.03899000000000007  0.52685  0.93282  1.0000
  H   H53       1.0  0.14462000000000005  0.42938  0.60878  1.0000
  H   H54       1.0  0.25621  0.6022699999999999  0.7754799999999998  1.0000
  H   H55       1.0  0.2279199999999999  0.6256299999999999  0.67786  1.0000
  H   H56       1.0  0.10659000000000003  0.4115799999999999  0.52063  1.0000
  H   H57       1.0  0.4202900000000001  0.025360000000000008  0.10116  1.0000
  H   H58       1.0  0.57962  0.09395999999999999  0.27025  1.0000
  H   H59       1.0  0.61198  0.07542  0.17823  1.0000
  H   H60       1.0  0.40606  0.9731999999999997  0.012139999999999998  1.0000
  H   H61       1.0  0.17955000000000004  0.07062999999999997  0.21515  1.0000
  H   H62       1.0  0.17351  0.89771  0.15424  1.0000
  H   H63       1.0  0.05253999999999998  0.8743799999999999  0.10249  1.0000
  H   H64       1.0  0.10916000000000002  0.08829999999999998  0.19482  1.0000
  H   H65       1.0  0.8947600000000001  0.57563  0.97442  1.0000
  H   H66       1.0  0.9858700000000001  0.6765499999999999  0.90627  1.0000
  H   H67       1.0  0.03667  0.60298  0.92476  1.0000
  H   H68       1.0  0.9328200000000002  0.53899  0.02686  1.0000
  H   H69       1.0  0.6087900000000002  0.6446300000000001  0.9293800000000001  1.0000
  H   H70       1.0  0.7754900000000002  0.7561999999999999  0.10227  1.0000
  H   H71       1.0  0.67786  0.72792  0.12564  1.0000
  H   H72       1.0  0.5206400000000001  0.60659  0.91158  1.0000
  H   H73       1.0  0.10115999999999992  0.9202899999999998  0.52536  1.0000
  H   H74       1.0  0.27024  0.07961999999999998  0.59395  1.0000
  H   H75       1.0  0.17823000000000003  0.11199  0.57542  1.0000
  H   H76       1.0  0.012140000000000012  0.90605  0.4732  1.0000
  H   H77       1.0  0.21517  0.6795699999999998  0.57064  1.0000
  H   H78       1.0  0.15424000000000002  0.67351  0.39773000000000003  1.0000
  H   H79       1.0  0.10248999999999994  0.5525299999999999  0.3743699999999999  1.0000
  H   H80       1.0  0.19483  0.60917  0.58831  1.0000
  H   H81       1.0  0.39881000000000005  0.9241299999999998  0.81893  1.0000
  H   H82       1.0  0.22976999999999997  0.8238699999999998  0.8095099999999998  1.0000
  H   H83       1.0  0.3217  0.89727  0.93362  1.0000
  H   H84       1.0  0.4879699999999999  0.96117  0.89385  1.0000
  H   H85       1.0  0.2846  0.85534  0.46418  1.0000
  H   H86       1.0  0.3458899999999999  0.7436599999999999  0.51927  1.0000
  H   H87       1.0  0.3975999999999999  0.7720499999999998  0.45003999999999994  1.0000
  H   H88       1.0  0.30500000000000005  0.8935099999999999  0.41416  1.0000
  H   H89       1.0  0.60513  0.57966  0.68092  1.0000
  H   H90       1.0  0.5141000000000001  0.4204  0.69079  1.0000
  H   H91       1.0  0.46338  0.3880999999999999  0.56645  1.0000
  H   H92       1.0  0.5669500000000002  0.59395  0.60619  1.0000
  H   H93       1.0  0.8910899999999999  0.8202799999999998  0.03596  1.0000
  H   H94       1.0  0.7244599999999999  0.8267699999999998  0.98074  1.0000
  H   H95       1.0  0.82195  0.9474999999999999  0.04981  1.0000
  H   H96       1.0  0.9793499999999999  0.89076  0.08587  1.0000
  H   H97       1.0  0.31892999999999994  0.4241399999999999  0.8988099999999999  1.0000
  H   H98       1.0  0.30951  0.32387999999999995  0.72976  1.0000
  H   H99       1.0  0.43361  0.39725999999999995  0.82168  1.0000
  H   H100      1.0  0.39385999999999993  0.4611699999999999  0.98797  1.0000
  H   H101      1.0  0.9641699999999999  0.3553299999999999  0.7845999999999999  1.0000
  H   H102      1.0  0.019279999999999943  0.24364  0.8458899999999999  1.0000
  H   H103      1.0  0.9500300000000003  0.27207  0.8976  1.0000
  H   H104      1.0  0.9141700000000003  0.39351  0.80501  1.0000
  H   H105      1.0  0.18091  0.07966  0.10513  1.0000
  H   H106      1.0  0.19078999999999993  0.92039  0.0141  1.0000
  H   H107      1.0  0.06645999999999992  0.8880999999999998  0.96338  1.0000
  H   H108      1.0  0.10618000000000001  0.09393999999999997  0.06694  1.0000
  H   H109      1.0  0.53597  0.32028999999999996  0.39109  1.0000
  H   H110      1.0  0.48074  0.32676999999999995  0.22445999999999997  1.0000
  H   H111      1.0  0.54982  0.44751  0.32197  1.0000
  H   H112      1.0  0.5858700000000001  0.3907599999999999  0.47933000000000003  1.0000
  H   H113      1.0  0.4744400000000001  0.07562999999999999  0.39477  1.0000
  H   H114      1.0  0.40626  0.17655  0.48587  1.0000
  H   H115      1.0  0.42475000000000007  0.10298  0.53666  1.0000
  H   H116      1.0  0.5268700000000001  0.038980000000000015  0.43284  1.0000
  H   H117      1.0  0.42939  0.14464  0.1088  1.0000
  H   H118      1.0  0.6022800000000001  0.25621  0.27549  1.0000
  H   H119      1.0  0.62563  0.22791999999999998  0.17785  1.0000
  H   H120      1.0  0.41158  0.10658999999999999  0.02064  1.0000
  H   H121      1.0  0.025359999999999987  0.42027999999999993  0.60115  1.0000
  H   H122      1.0  0.09395999999999999  0.57963  0.77024  1.0000
  H   H123      1.0  0.07542999999999998  0.6119899999999999  0.67825  1.0000
  H   H124      1.0  0.9731900000000002  0.40605999999999987  0.51213  1.0000
  H   H125      1.0  0.07062999999999997  0.1795599999999999  0.71516  1.0000
  H   H126      1.0  0.89771  0.17349999999999988  0.65424  1.0000
  H   H127      1.0  0.87439  0.052529999999999986  0.60249  1.0000
  H   H128      1.0  0.08829999999999998  0.10916999999999993  0.69482  1.0000
  H   H129      1.0  0.57563  0.89477  0.47442000000000006  1.0000
  H   H130      1.0  0.67656  0.98587  0.40625  1.0000
  H   H131      1.0  0.6029700000000001  0.036660000000000026  0.4247600000000001  1.0000
  H   H132      1.0  0.53899  0.93282  0.52686  1.0000
  H   H133      1.0  0.64462  0.60878  0.42938  1.0000
  H   H134      1.0  0.75621  0.77548  0.60228  1.0000
  H   H135      1.0  0.72792  0.6778599999999998  0.62563  1.0000
  H   H136      1.0  0.60659  0.52063  0.41159000000000007  1.0000
  H   H137      1.0  0.92029  0.10115  0.02536  1.0000
  H   H138      1.0  0.07962000000000004  0.27025  0.09396  1.0000
  H   H139      1.0  0.11198000000000002  0.17823  0.07542  1.0000
  H   H140      1.0  0.90606  0.01213999999999999  0.97319  1.0000
  H   H141      1.0  0.6795600000000002  0.21515  0.07064  1.0000
  H   H142      1.0  0.67351  0.15423000000000006  0.89771  1.0000
  H   H143      1.0  0.55254  0.10249000000000005  0.87438  1.0000
  H   H144      1.0  0.60916  0.19482  0.0883  1.0000
  H   H145      1.0  0.92414  0.39881  0.31893  1.0000
  H   H146      1.0  0.8238800000000001  0.22975999999999994  0.30951  1.0000
  H   H147      1.0  0.8972800000000001  0.3217  0.43363  1.0000
  H   H148      1.0  0.96117  0.48795  0.3938400000000001  1.0000
  H   H149      1.0  0.85536  0.28461  0.96417  1.0000
  H   H150      1.0  0.74365  0.34589999999999993  0.01927  1.0000
  H   H151      1.0  0.7720600000000001  0.39759  0.95004  1.0000
  H   H152      1.0  0.8935200000000002  0.30501  0.9141500000000001  1.0000
  H   H153      1.0  0.5796600000000001  0.60512  0.18091  1.0000
  H   H154      1.0  0.42039000000000004  0.5141000000000001  0.19079000000000002  1.0000
  H   H155      1.0  0.38811000000000007  0.4633799999999999  0.06645  1.0000
  H   H156      1.0  0.59395  0.56694  0.10618  1.0000
  H   H157      1.0  0.82029  0.8911  0.53596  1.0000
  H   H158      1.0  0.8267800000000002  0.72446  0.48074  1.0000
  H   H159      1.0  0.94751  0.8219499999999997  0.54981  1.0000
  H   H160      1.0  0.8907700000000001  0.9793499999999998  0.58588  1.0000
  H   H161      1.0  0.10513000000000004  0.68092  0.57966  1.0000
  H   H162      1.0  0.014100000000000017  0.69079  0.42041  1.0000
  H   H163      1.0  0.96338  0.56645  0.38809999999999995  1.0000
  H   H164      1.0  0.06695  0.6061899999999999  0.59395  1.0000
  H   H165      1.0  0.39109  0.03595999999999995  0.82028  1.0000
  H   H166      1.0  0.2244600000000001  0.98074  0.82677  1.0000
  H   H167      1.0  0.32195  0.04979999999999999  0.9475  1.0000
  H   H168      1.0  0.47934999999999994  0.0858699999999999  0.8907599999999999  1.0000
  H   H169      1.0  0.8988099999999999  0.81892  0.9241299999999999  1.0000
  H   H170      1.0  0.72977  0.80951  0.8238800000000001  1.0000
  H   H171      1.0  0.8216999999999999  0.9336199999999998  0.89727  1.0000
  H   H172      1.0  0.98797  0.8938399999999999  0.96118  1.0000
  H   H173      1.0  0.78459  0.46417  0.85534  1.0000
  H   H174      1.0  0.8458899999999999  0.5192699999999999  0.74366  1.0000
  H   H175      1.0  0.89761  0.45003999999999994  0.77205  1.0000
  H   H176      1.0  0.8050000000000003  0.41416  0.89351  1.0000
  H   H177      1.0  0.60116  0.52536  0.92029  1.0000
  H   H178      1.0  0.7702400000000001  0.59395  0.07962  1.0000
  H   H179      1.0  0.67823  0.5754199999999999  0.11199000000000002  1.0000
  H   H180      1.0  0.51214  0.47319000000000006  0.9060500000000001  1.0000
  H   H181      1.0  0.71516  0.57064  0.67957  1.0000
  H   H182      1.0  0.6542400000000003  0.39771999999999996  0.6735  1.0000
  H   H183      1.0  0.60249  0.37436  0.55253  1.0000
  H   H184      1.0  0.6948300000000002  0.5883099999999999  0.60917  1.0000
  H   H185      1.0  0.39476000000000006  0.97442  0.57564  1.0000
  H   H186      1.0  0.48586999999999997  0.9062699999999998  0.67655  1.0000
  H   H187      1.0  0.53667  0.9247599999999999  0.60299  1.0000
  H   H188      1.0  0.4328200000000001  0.026859999999999988  0.53899  1.0000
  H   H189      1.0  0.10878999999999997  0.92938  0.64464  1.0000
  H   H190      1.0  0.27549  0.10226  0.7562  1.0000
  H   H191      1.0  0.17786000000000007  0.12563000000000002  0.72792  1.0000
  H   H192      1.0  0.020640000000000006  0.91158  0.60659  1.0000
  W   W1        1.0  0.87502  0.24994  0.12498999999999999  1.0000
  W   W2        1.0  0.625  0.74993  0.3750299999999999  1.0000
  W   W3        1.0  0.37502  0.12498999999999998  0.24993999999999997  1.0000
  W   W4        1.0  0.12499999999999997  0.3750199999999999  0.74993  1.0000
  W   W5        1.0  0.7499299999999999  0.6249899999999999  0.8750199999999999  1.0000
  W   W6        1.0  0.24994  0.8750199999999998  0.62499  1.0000
  C   C1        1.0  0.6673500000000002  0.0723  0.03277  1.0000
  C   C2        1.0  0.66975  0.025130000000000038  0.9485  1.0000
  C   C3        1.0  0.60819  0.9989899999999999  0.93222  1.0000
  C   C4        1.0  0.55266  0.014500000000000008  0.99313  1.0000
  C   C5        1.0  0.55992  0.03692  0.05303  1.0000
  C   C6        1.0  0.032099999999999955  0.35919999999999996  0.3383  1.0000
  C   C7        1.0  0.003709999999999981  0.2740699999999999  0.34384  1.0000
  C   C8        1.0  0.03886999999999998  0.32225999999999994  0.40406  1.0000
  C   C9        1.0  0.09467  0.43905999999999995  0.45074999999999993  1.0000
  C   C10       1.0  0.10676000000000001  0.48821  0.43825000000000003  1.0000
  C   C11       1.0  0.8326300000000002  0.86552  0.40508999999999995  1.0000
  C   C12       1.0  0.8304  0.77888  0.35583  1.0000
  C   C13       1.0  0.8919400000000001  0.82419  0.39118  1.0000
  C   C14       1.0  0.9473700000000004  0.9406199999999999  0.46198  1.0000
  C   C15       1.0  0.9401100000000001  0.9932699999999999  0.47722  1.0000
  C   C16       1.0  0.46803  0.8063699999999999  0.32724  1.0000
  C   C17       1.0  0.49635  0.8401199999999998  0.27036  1.0000
  C   C18       1.0  0.4611400000000001  0.86518  0.28334  1.0000
  C   C19       1.0  0.40536  0.85616  0.34438  1.0000
  C   C20       1.0  0.39323999999999987  0.8315699999999998  0.38143000000000005  1.0000
  C   C21       1.0  0.53954  0.63446  0.46722  1.0000
  C   C22       1.0  0.5768400000000001  0.7211099999999999  0.55153  1.0000
  C   C23       1.0  0.56687  0.6758199999999999  0.56783  1.0000
  C   C24       1.0  0.5213200000000002  0.55938  0.50687  1.0000
  C   C25       1.0  0.48395000000000005  0.50676  0.44698  1.0000
  C   C26       1.0  0.52077  0.6934899999999999  0.16164  1.0000
  C   C27       1.0  0.43017  0.6599399999999999  0.1563  1.0000
  C   C28       1.0  0.41806  0.63486  0.09603  1.0000
  C   C29       1.0  0.48807999999999996  0.6437599999999999  0.049210000000000004  1.0000
  C   C30       1.0  0.54972  0.66831  0.061689999999999995  1.0000
  C   C31       1.0  0.9603400000000001  0.4275799999999999  0.09487  1.0000
  C   C32       1.0  0.92327  0.4747899999999999  0.14443  1.0000
  C   C33       1.0  0.9332100000000001  0.50099  0.10907  1.0000
  C   C34       1.0  0.9786300000000002  0.4854599999999999  0.03806  1.0000
  C   C35       1.0  0.01605999999999999  0.46298  0.02286  1.0000
  C   C36       1.0  0.9792300000000003  0.14070999999999997  0.17269  1.0000
  C   C37       1.0  0.06982000000000003  0.22585  0.22951  1.0000
  C   C38       1.0  0.08193  0.17768999999999996  0.21661  1.0000
  C   C39       1.0  0.011839999999999998  0.060889999999999986  0.15557  1.0000
  C   C40       1.0  0.95021  0.011760000000000003  0.11859  1.0000
  C   C41       1.0  0.40509  0.3326299999999999  0.36552  1.0000
  C   C42       1.0  0.3558299999999999  0.33039999999999997  0.27888  1.0000
  C   C43       1.0  0.39118  0.3919399999999999  0.32419  1.0000
  C   C44       1.0  0.46197999999999995  0.4473599999999999  0.44063  1.0000
  C   C45       1.0  0.4772199999999999  0.44009999999999994  0.49327  1.0000
  C   C46       1.0  0.32725999999999994  0.9680199999999998  0.30638  1.0000
  C   C47       1.0  0.2703600000000001  0.99634  0.34012  1.0000
  C   C48       1.0  0.2833400000000001  0.96113  0.36518  1.0000
  C   C49       1.0  0.3443800000000001  0.9053599999999999  0.35617  1.0000
  C   C50       1.0  0.38144000000000006  0.8932299999999997  0.33158  1.0000
  C   C51       1.0  0.03277000000000002  0.16735  0.5723  1.0000
  C   C52       1.0  0.9485000000000002  0.16975  0.52514  1.0000
  C   C53       1.0  0.9322300000000002  0.10819  0.499  1.0000
  C   C54       1.0  0.99313  0.05266000000000001  0.51451  1.0000
  C   C55       1.0  0.05303000000000001  0.059919999999999994  0.53692  1.0000
  C   C56       1.0  0.33831000000000006  0.5320999999999999  0.85921  1.0000
  C   C57       1.0  0.34385000000000004  0.5037  0.77409  1.0000
  C   C58       1.0  0.40406  0.53887  0.82227  1.0000
  C   C59       1.0  0.45076  0.5946699999999999  0.9390600000000001  1.0000
  C   C60       1.0  0.43826  0.60676  0.98822  1.0000
  C   C61       1.0  0.09487  0.46033  0.92757  1.0000
  C   C62       1.0  0.14442000000000002  0.42325  0.97478  1.0000
  C   C63       1.0  0.10907000000000003  0.43321  0.00099  1.0000
  C   C64       1.0  0.03806999999999991  0.4786299999999999  0.9854600000000001  1.0000
  C   C65       1.0  0.02287000000000002  0.51606  0.96297  1.0000
  C   C66       1.0  0.17268  0.47922  0.6407  1.0000
  C   C67       1.0  0.22951  0.56981  0.72585  1.0000
  C   C68       1.0  0.21661  0.58192  0.67769  1.0000
  C   C69       1.0  0.1555700000000001  0.51184  0.56089  1.0000
  C   C70       1.0  0.11859000000000001  0.45021  0.51175  1.0000
  C   C71       1.0  0.46723000000000003  0.039549999999999995  0.13447  1.0000
  C   C72       1.0  0.55154  0.07684  0.22111  1.0000
  C   C73       1.0  0.56783  0.06687  0.17582  1.0000
  C   C74       1.0  0.50686  0.021310000000000003  0.05938  1.0000
  C   C75       1.0  0.4469800000000001  0.98395  0.00677  1.0000
  C   C76       1.0  0.16163000000000002  0.020769999999999986  0.19348999999999997  1.0000
  C   C77       1.0  0.1563000000000001  0.9301700000000002  0.15994  1.0000
  C   C78       1.0  0.09603  0.9180599999999998  0.13485  1.0000
  C   C79       1.0  0.04919999999999987  0.9880699999999998  0.14375  1.0000
  C   C80       1.0  0.06168  0.04970999999999999  0.16831  1.0000
  C   C81       1.0  0.9275600000000002  0.5948599999999998  0.96033  1.0000
  C   C82       1.0  0.97478  0.64441  0.9232600000000001  1.0000
  C   C83       1.0  0.0009899999999999738  0.6090599999999999  0.93321  1.0000
  C   C84       1.0  0.9854600000000001  0.5380599999999998  0.9786299999999999  1.0000
  C   C85       1.0  0.96297  0.52287  0.01606  1.0000
  C   C86       1.0  0.64071  0.67268  0.97922  1.0000
  C   C87       1.0  0.72585  0.7295099999999998  0.06982  1.0000
  C   C88       1.0  0.6777  0.71661  0.08193  1.0000
  C   C89       1.0  0.56089  0.65557  0.011839999999999998  1.0000
  C   C90       1.0  0.51176  0.6185899999999999  0.9502100000000001  1.0000
  C   C91       1.0  0.13447  0.9672299999999999  0.53955  1.0000
  C   C92       1.0  0.22110999999999997  0.05153999999999999  0.57684  1.0000
  C   C93       1.0  0.17582000000000003  0.06783  0.56687  1.0000
  C   C94       1.0  0.05937999999999999  0.006859999999999958  0.52131  1.0000
  C   C95       1.0  0.006770000000000046  0.9469699999999998  0.48395  1.0000
  C   C96       1.0  0.19348999999999994  0.6616299999999998  0.52077  1.0000
  C   C97       1.0  0.1599399999999999  0.6562899999999998  0.43018000000000006  1.0000
  C   C98       1.0  0.13485  0.59603  0.41806  1.0000
  C   C99       1.0  0.14375  0.5492  0.48808  1.0000
  C   C100      1.0  0.16831  0.56169  0.54972  1.0000
  C   C101      1.0  0.36552  0.90509  0.83263  1.0000
  C   C102      1.0  0.27888999999999997  0.8558299999999998  0.8303999999999999  1.0000
  C   C103      1.0  0.3242  0.89118  0.89194  1.0000
  C   C104      1.0  0.4406300000000001  0.96198  0.9473600000000001  1.0000
  C   C105      1.0  0.49328000000000016  0.97721  0.9401  1.0000
  C   C106      1.0  0.30638  0.8272499999999998  0.46803  1.0000
  C   C107      1.0  0.34013  0.77037  0.49634  1.0000
  C   C108      1.0  0.36519  0.7833399999999999  0.46113  1.0000
  C   C109      1.0  0.35616999999999993  0.8443799999999999  0.40536  1.0000
  C   C110      1.0  0.33157  0.8814299999999999  0.39324  1.0000
  C   C111      1.0  0.5723000000000001  0.53276  0.66734  1.0000
  C   C112      1.0  0.52514  0.4485  0.66974  1.0000
  C   C113      1.0  0.49900000000000005  0.43222  0.60818  1.0000
  C   C114      1.0  0.51451  0.49312999999999996  0.55266  1.0000
  C   C115      1.0  0.53692  0.55303  0.55993  1.0000
  C   C116      1.0  0.85921  0.8383099999999999  0.0321  1.0000
  C   C117      1.0  0.7740900000000002  0.84385  0.0037100000000000006  1.0000
  C   C118      1.0  0.8222699999999998  0.9040599999999998  0.03887  1.0000
  C   C119      1.0  0.9390600000000001  0.9507499999999998  0.09466999999999999  1.0000
  C   C120      1.0  0.98822  0.93825  0.10675999999999998  1.0000
  C   C121      1.0  0.33263000000000004  0.40509  0.86552  1.0000
  C   C122      1.0  0.3304  0.35583  0.77888  1.0000
  C   C123      1.0  0.3919400000000001  0.39117999999999997  0.8241900000000001  1.0000
  C   C124      1.0  0.4473700000000001  0.4619799999999999  0.94062  1.0000
  C   C125      1.0  0.4401  0.4772099999999999  0.99327  1.0000
  C   C126      1.0  0.9680300000000002  0.32724  0.8063700000000001  1.0000
  C   C127      1.0  0.9963500000000002  0.2703599999999999  0.84012  1.0000
  C   C128      1.0  0.9611400000000002  0.28332999999999997  0.8651799999999998  1.0000
  C   C129      1.0  0.90536  0.34438  0.85616  1.0000
  C   C130      1.0  0.8932400000000003  0.38143  0.83157  1.0000
  C   C131      1.0  0.16735  0.03277  0.0723  1.0000
  C   C132      1.0  0.16975  0.9484999999999999  0.025140000000000003  1.0000
  C   C133      1.0  0.10819000000000002  0.93222  0.9989999999999999  1.0000
  C   C134      1.0  0.052660000000000075  0.99313  0.01451  1.0000
  C   C135      1.0  0.05992000000000001  0.05303  0.03692  1.0000
  C   C136      1.0  0.5321  0.3383  0.3592  1.0000
  C   C137      1.0  0.50371  0.34384  0.27408  1.0000
  C   C138      1.0  0.53887  0.4040599999999999  0.32226  1.0000
  C   C139      1.0  0.59467  0.45074999999999993  0.43906  1.0000
  C   C140      1.0  0.60676  0.43824999999999986  0.48821  1.0000
  C   C141      1.0  0.46034000000000014  0.09487000000000002  0.42757  1.0000
  C   C142      1.0  0.42326000000000014  0.14441999999999994  0.47479  1.0000
  C   C143      1.0  0.43321  0.10907000000000003  0.50099  1.0000
  C   C144      1.0  0.47863000000000006  0.03805999999999999  0.48546  1.0000
  C   C145      1.0  0.51606  0.022859999999999946  0.46297999999999995  1.0000
  C   C146      1.0  0.47923000000000004  0.17268999999999998  0.14072  1.0000
  C   C147      1.0  0.56982  0.22950999999999996  0.22585000000000002  1.0000
  C   C148      1.0  0.5819300000000001  0.21661  0.17769  1.0000
  C   C149      1.0  0.51184  0.15557  0.06089  1.0000
  C   C150      1.0  0.45021  0.11858999999999995  0.01176  1.0000
  C   C151      1.0  0.03953999999999994  0.46721999999999997  0.63446  1.0000
  C   C152      1.0  0.07683999999999998  0.5515299999999999  0.72111  1.0000
  C   C153      1.0  0.06687000000000003  0.56782  0.67582  1.0000
  C   C154      1.0  0.021319999999999954  0.5068699999999999  0.55938  1.0000
  C   C155      1.0  0.9839500000000002  0.4469799999999999  0.50677  1.0000
  C   C156      1.0  0.02077  0.16163  0.69349  1.0000
  C   C157      1.0  0.9301700000000002  0.1563  0.65994  1.0000
  C   C158      1.0  0.9180600000000001  0.09603  0.63485  1.0000
  C   C159      1.0  0.98808  0.0492  0.64375  1.0000
  C   C160      1.0  0.04972000000000003  0.06169000000000001  0.66831  1.0000
  C   C161      1.0  0.59487  0.9275699999999998  0.46033  1.0000
  C   C162      1.0  0.64443  0.9747799999999998  0.42324999999999996  1.0000
  C   C163      1.0  0.60907  0.0009899999999999946  0.4332  1.0000
  C   C164      1.0  0.5380700000000002  0.9854599999999998  0.47863  1.0000
  C   C165      1.0  0.5228699999999998  0.9629699999999998  0.51606  1.0000
  C   C166      1.0  0.6726800000000001  0.6407  0.47922  1.0000
  C   C167      1.0  0.72951  0.72585  0.56982  1.0000
  C   C168      1.0  0.7166100000000001  0.67769  0.58193  1.0000
  C   C169      1.0  0.65557  0.56089  0.51184  1.0000
  C   C170      1.0  0.61859  0.51175  0.45021  1.0000
  C   C171      1.0  0.96723  0.13446999999999998  0.03955  1.0000
  C   C172      1.0  0.05154  0.22111  0.07684  1.0000
  C   C173      1.0  0.06783  0.17582  0.06687  1.0000
  C   C174      1.0  0.00686  0.05937999999999999  0.02131  1.0000
  C   C175      1.0  0.9469800000000002  0.006770000000000066  0.98395  1.0000
  C   C176      1.0  0.6616300000000002  0.19349  0.02077  1.0000
  C   C177      1.0  0.6562999999999998  0.15994000000000003  0.93017  1.0000
  C   C178      1.0  0.59603  0.13484999999999994  0.9180599999999999  1.0000
  C   C179      1.0  0.5492  0.14374  0.98807  1.0000
  C   C180      1.0  0.56168  0.16831  0.04972000000000001  1.0000
  C   C181      1.0  0.90509  0.36551999999999996  0.33263  1.0000
  C   C182      1.0  0.85583  0.27887999999999996  0.3304  1.0000
  C   C183      1.0  0.8911800000000002  0.32418999999999987  0.39194  1.0000
  C   C184      1.0  0.96198  0.4406199999999999  0.44736  1.0000
  C   C185      1.0  0.97722  0.49327  0.4401  1.0000
  C   C186      1.0  0.82726  0.30637  0.96802  1.0000
  C   C187      1.0  0.7703600000000003  0.34012  0.99634  1.0000
  C   C188      1.0  0.78334  0.36518  0.96113  1.0000
  C   C189      1.0  0.84438  0.3561699999999999  0.90536  1.0000
  C   C190      1.0  0.8814400000000002  0.33158  0.89323  1.0000
  C   C191      1.0  0.5327700000000001  0.5722999999999999  0.16735  1.0000
  C   C192      1.0  0.44850000000000007  0.5251399999999998  0.16975  1.0000
  C   C193      1.0  0.43221999999999994  0.4989999999999999  0.10819  1.0000
  C   C194      1.0  0.49313  0.51451  0.05266  1.0000
  C   C195      1.0  0.5530299999999999  0.53692  0.05993  1.0000
  C   C196      1.0  0.83831  0.8592  0.5321  1.0000
  C   C197      1.0  0.84385  0.7740899999999997  0.50371  1.0000
  C   C198      1.0  0.9040700000000002  0.82227  0.53887  1.0000
  C   C199      1.0  0.9507600000000002  0.93906  0.59468  1.0000
  C   C200      1.0  0.93826  0.98822  0.60677  1.0000
  C   C201      1.0  0.07230000000000004  0.66734  0.53277  1.0000
  C   C202      1.0  0.02514000000000002  0.66974  0.4485  1.0000
  C   C203      1.0  0.9989999999999999  0.60818  0.43222  1.0000
  C   C204      1.0  0.014509999999999922  0.5526599999999999  0.49313  1.0000
  C   C205      1.0  0.03691999999999997  0.5599299999999999  0.55304  1.0000
  C   C206      1.0  0.3592100000000001  0.03209999999999999  0.8382999999999999  1.0000
  C   C207      1.0  0.27408  0.0036999999999999954  0.84384  1.0000
  C   C208      1.0  0.3222700000000001  0.03886000000000004  0.9040600000000001  1.0000
  C   C209      1.0  0.43906  0.09466999999999996  0.95075  1.0000
  C   C210      1.0  0.48822000000000015  0.10676000000000009  0.9382500000000001  1.0000
  C   C211      1.0  0.8655199999999998  0.8326299999999998  0.90509  1.0000
  C   C212      1.0  0.77889  0.8303999999999998  0.85583  1.0000
  C   C213      1.0  0.8242  0.8919399999999997  0.89118  1.0000
  C   C214      1.0  0.94063  0.94736  0.96198  1.0000
  C   C215      1.0  0.9932800000000002  0.9400899999999998  0.97722  1.0000
  C   C216      1.0  0.8063800000000002  0.4680199999999999  0.8272499999999999  1.0000
  C   C217      1.0  0.84013  0.4963399999999999  0.77037  1.0000
  C   C218      1.0  0.8651899999999999  0.46113  0.7833399999999999  1.0000
  C   C219      1.0  0.8561700000000001  0.40536  0.84438  1.0000
  C   C220      1.0  0.8315700000000001  0.39324  0.88143  1.0000
  C   C221      1.0  0.6344700000000002  0.53955  0.9672300000000001  1.0000
  C   C222      1.0  0.7211100000000003  0.57684  0.05154  1.0000
  C   C223      1.0  0.67582  0.56687  0.06783  1.0000
  C   C224      1.0  0.55938  0.52131  0.006860000000000001  1.0000
  C   C225      1.0  0.5067700000000002  0.48394999999999994  0.94697  1.0000
  C   C226      1.0  0.69349  0.5207699999999997  0.66163  1.0000
  C   C227      1.0  0.6599400000000002  0.43016999999999994  0.65629  1.0000
  C   C228      1.0  0.63485  0.41805999999999993  0.59602  1.0000
  C   C229      1.0  0.64375  0.4880799999999999  0.5492  1.0000
  C   C230      1.0  0.6683200000000002  0.54972  0.56169  1.0000
  C   C231      1.0  0.42757  0.9603299999999999  0.59486  1.0000
  C   C232      1.0  0.47478  0.92326  0.64441  1.0000
  C   C233      1.0  0.5009900000000002  0.9332099999999999  0.60907  1.0000
  C   C234      1.0  0.48546  0.97863  0.53806  1.0000
  C   C235      1.0  0.4629700000000001  0.01605999999999994  0.52287  1.0000
  C   C236      1.0  0.14070999999999995  0.97922  0.67268  1.0000
  C   C237      1.0  0.22585  0.06981  0.72951  1.0000
  C   C238      1.0  0.17770000000000002  0.08193000000000006  0.71661  1.0000
  C   C239      1.0  0.06089  0.011840000000000014  0.65557  1.0000
  C   C240      1.0  0.011759999999999968  0.9502099999999999  0.61859  1.0000
  S   S1        1.0  0.8546699999999999  0.18618999999999994  0.16524  1.0000
  S   S2        1.0  0.64544  0.81063  0.33176  1.0000
  S   S3        1.0  0.52108  0.6893  0.33492  1.0000
  S   S4        1.0  0.97896  0.31364  0.16816  1.0000
  S   S5        1.0  0.33175  0.14545  0.31064  1.0000
  S   S6        1.0  0.16526000000000002  0.3546599999999999  0.68619  1.0000
  S   S7        1.0  0.16816000000000006  0.47896000000000005  0.8136600000000002  1.0000
  S   S8        1.0  0.33492  0.02106999999999998  0.18928999999999999  1.0000
  S   S9        1.0  0.81365  0.66815  0.97896  1.0000
  S   S10       1.0  0.1893  0.83492  0.52107  1.0000
  S   S11       1.0  0.3106400000000001  0.83175  0.64543  1.0000
  S   S12       1.0  0.6861799999999999  0.6652399999999998  0.85466  1.0000
  S   S13       1.0  0.14543999999999999  0.33176  0.8106299999999999  1.0000
  S   S14       1.0  0.35467  0.16523999999999994  0.18619  1.0000
  S   S15       1.0  0.47896000000000016  0.16816  0.31364  1.0000
  S   S16       1.0  0.02107999999999999  0.33492  0.6893  1.0000
  S   S17       1.0  0.6681700000000002  0.81366  0.47896  1.0000
  S   S18       1.0  0.8349200000000001  0.18928999999999999  0.02107  1.0000
  S   S19       1.0  0.8317500000000004  0.31064  0.14545  1.0000
  S   S20       1.0  0.6652600000000003  0.68619  0.35467  1.0000
  S   S21       1.0  0.18617999999999993  0.8546599999999998  0.66524  1.0000
  S   S22       1.0  0.8106400000000001  0.64543  0.83175  1.0000
  S   S23       1.0  0.6892900000000002  0.52107  0.83492  1.0000
  S   S24       1.0  0.3136500000000001  0.9789599999999999  0.66816  1.0000
  Br  Br1       1.0  0.82529  0.03652  0.02338  1.0000
  Br  Br2       1.0  0.67475  0.6981199999999999  0.21145  1.0000
  Br  Br3       1.0  0.51301  0.80169  0.47639999999999993  1.0000
  Br  Br4       1.0  0.9868900000000003  0.46335999999999994  0.28861  1.0000
  Br  Br5       1.0  0.21145000000000005  0.17475  0.19812  1.0000
  Br  Br6       1.0  0.023370000000000002  0.32528  0.53651  1.0000
  Br  Br7       1.0  0.28862  0.4868899999999999  0.96337  1.0000
  Br  Br8       1.0  0.4764100000000001  0.013010000000000008  0.30169  1.0000
  Br  Br9       1.0  0.9633599999999999  0.78861  0.9868899999999999  1.0000
  Br  Br10      1.0  0.30170000000000013  0.9764  0.513  1.0000
  Br  Br11      1.0  0.19811999999999996  0.7114499999999999  0.67475  1.0000
  Br  Br12      1.0  0.53652  0.5233800000000001  0.82529  1.0000
  Br  Br13      1.0  0.17475  0.21145  0.69812  1.0000
  Br  Br14      1.0  0.32529000000000013  0.02338  0.03652  1.0000
  Br  Br15      1.0  0.4868900000000001  0.28861  0.46337  1.0000
  Br  Br16      1.0  0.01301000000000003  0.4764  0.80169  1.0000
  Br  Br17      1.0  0.78862  0.9633699999999998  0.48690000000000005  1.0000
  Br  Br18      1.0  0.9764100000000002  0.3017  0.01301  1.0000
  Br  Br19      1.0  0.71145  0.19812  0.17475  1.0000
  Br  Br20      1.0  0.52337  0.53651  0.32528  1.0000
  Br  Br21      1.0  0.03651999999999995  0.8252899999999999  0.52339  1.0000
  Br  Br22      1.0  0.6981200000000001  0.67474  0.71145  1.0000
  Br  Br23      1.0  0.8017  0.513  0.9764000000000002  1.0000
  Br  Br24      1.0  0.4633600000000001  0.9868899999999999  0.78862  1.0000
  N   N1        1.0  0.70614  0.07089  0.01105  1.0000
  N   N2        1.0  0.6065  0.028979999999999912  0.98621  1.0000
  N   N3        1.0  0.9999500000000002  0.29768  0.30359  1.0000
  N   N4        1.0  0.056929999999999946  0.37673999999999985  0.4003999999999999  1.0000
  N   N5        1.0  0.79392  0.805  0.36505  1.0000
  N   N6        1.0  0.89353  0.8798799999999998  0.42268999999999995  1.0000
  N   N7        1.0  0.50019  0.80375  0.29786  1.0000
  N   N8        1.0  0.44314  0.8435699999999999  0.31984  1.0000
  N   N9        1.0  0.5600000000000003  0.69498  0.48897  1.0000
  N   N10       1.0  0.54274  0.62013  0.51378  1.0000
  N   N11       1.0  0.49403  0.69621  0.19642999999999997  1.0000
  N   N12       1.0  0.47614  0.65634  0.09958000000000002  1.0000
  N   N13       1.0  0.9399900000000002  0.42895999999999995  0.13505  1.0000
  N   N14       1.0  0.95719  0.4709599999999999  0.07739  1.0000
  N   N15       1.0  0.005979999999999989  0.20223999999999998  0.20204999999999998  1.0000
  N   N16       1.0  0.023829999999999997  0.12321999999999998  0.18011  1.0000
  N   N17       1.0  0.36505000000000015  0.29392  0.30499  1.0000
  N   N18       1.0  0.42268  0.39353000000000005  0.37988000000000005  1.0000
  N   N19       1.0  0.2978700000000001  0.000179999999999999  0.30376  1.0000
  N   N20       1.0  0.31985  0.9431399999999999  0.34358  1.0000
  N   N21       1.0  0.01104999999999999  0.20613999999999996  0.57089  1.0000
  N   N22       1.0  0.98622  0.10649999999999996  0.52899  1.0000
  N   N23       1.0  0.30359  0.4999499999999999  0.79769  1.0000
  N   N24       1.0  0.40041  0.55693  0.87675  1.0000
  N   N25       1.0  0.13503999999999988  0.43997  0.92895  1.0000
  N   N26       1.0  0.07738999999999992  0.45718  0.97096  1.0000
  N   N27       1.0  0.20204000000000005  0.50597  0.70223  1.0000
  N   N28       1.0  0.1801  0.52383  0.62321  1.0000
  N   N29       1.0  0.4889700000000001  0.06000999999999998  0.19499  1.0000
  N   N30       1.0  0.51378  0.04274  0.12014  1.0000
  N   N31       1.0  0.19642999999999997  0.9940399999999998  0.19621  1.0000
  N   N32       1.0  0.09957999999999996  0.9761399999999998  0.15634  1.0000
  N   N33       1.0  0.9289500000000002  0.6350199999999999  0.9399700000000001  1.0000
  N   N34       1.0  0.97096  0.5773799999999999  0.9571900000000001  1.0000
  N   N35       1.0  0.70223  0.7020399999999999  0.00597  1.0000
  N   N36       1.0  0.62322  0.6801  0.023830000000000004  1.0000
  N   N37       1.0  0.1949899999999999  0.9889699999999998  0.56001  1.0000
  N   N38       1.0  0.12013  0.013780000000000011  0.54274  1.0000
  N   N39       1.0  0.19620999999999997  0.6964299999999999  0.49404  1.0000
  N   N40       1.0  0.15633000000000002  0.5995700000000002  0.47614  1.0000
  N   N41       1.0  0.3049999999999999  0.8650499999999998  0.7939199999999998  1.0000
  N   N42       1.0  0.3798800000000001  0.9226800000000001  0.8935300000000002  1.0000
  N   N43       1.0  0.30376  0.79787  0.50018  1.0000
  N   N44       1.0  0.3435800000000001  0.81985  0.44314000000000003  1.0000
  N   N45       1.0  0.5709  0.5110499999999999  0.70614  1.0000
  N   N46       1.0  0.52899  0.4862199999999999  0.60649  1.0000
  N   N47       1.0  0.7976899999999999  0.8035899999999998  0.9999599999999998  1.0000
  N   N48       1.0  0.8767500000000003  0.9004099999999998  0.056929999999999994  1.0000
  N   N49       1.0  0.2939200000000001  0.36504999999999993  0.8050000000000002  1.0000
  N   N50       1.0  0.39353  0.42267999999999994  0.87988  1.0000
  N   N51       1.0  0.0001899999999999369  0.29785999999999996  0.8037499999999999  1.0000
  N   N52       1.0  0.94314  0.3198399999999999  0.84357  1.0000
  N   N53       1.0  0.20614000000000005  0.01105  0.07089  1.0000
  N   N54       1.0  0.10649999999999993  0.9862199999999999  0.028989999999999995  1.0000
  N   N55       1.0  0.49996000000000007  0.30359  0.29768  1.0000
  N   N56       1.0  0.55693  0.4003999999999999  0.37674  1.0000
  N   N57       1.0  0.43999000000000005  0.13504  0.42896000000000006  1.0000
  N   N58       1.0  0.45719  0.07737999999999998  0.47096  1.0000
  N   N59       1.0  0.50598  0.20203999999999994  0.20223999999999998  1.0000
  N   N60       1.0  0.52383  0.18010999999999996  0.12322000000000001  1.0000
  N   N61       1.0  0.06000000000000003  0.48897  0.69498  1.0000
  N   N62       1.0  0.042739999999999986  0.51378  0.62013  1.0000
  N   N63       1.0  0.9940300000000002  0.19643  0.69621  1.0000
  N   N64       1.0  0.9761400000000001  0.09957999999999995  0.65634  1.0000
  N   N65       1.0  0.6350399999999999  0.9289499999999998  0.43997  1.0000
  N   N66       1.0  0.57739  0.97096  0.45718  1.0000
  N   N67       1.0  0.70204  0.7022299999999999  0.50597  1.0000
  N   N68       1.0  0.6801  0.62321  0.52383  1.0000
  N   N69       1.0  0.98897  0.19498999999999997  0.06001  1.0000
  N   N70       1.0  0.013780000000000002  0.12013999999999998  0.04274  1.0000
  N   N71       1.0  0.6964300000000001  0.19620999999999997  0.99404  1.0000
  N   N72       1.0  0.59958  0.15633  0.9761400000000001  1.0000
  N   N73       1.0  0.8650500000000001  0.30499  0.29392  1.0000
  N   N74       1.0  0.92268  0.37988000000000005  0.39353000000000005  1.0000
  N   N75       1.0  0.7978700000000002  0.30375  0.00018  1.0000
  N   N76       1.0  0.81985  0.3435699999999999  0.94314  1.0000
  N   N77       1.0  0.51105  0.57089  0.20614  1.0000
  N   N78       1.0  0.4862200000000001  0.5289899999999998  0.10650000000000001  1.0000
  N   N79       1.0  0.8036000000000001  0.7976899999999998  0.49995  1.0000
  N   N80       1.0  0.9004100000000002  0.87675  0.55693  1.0000
  N   N81       1.0  0.0709  0.70614  0.51105  1.0000
  N   N82       1.0  0.02898999999999998  0.6064899999999998  0.48622  1.0000
  N   N83       1.0  0.29769  0.9999599999999998  0.80359  1.0000
  N   N84       1.0  0.3767499999999999  0.05692999999999998  0.9004  1.0000
  N   N85       1.0  0.8050000000000003  0.79392  0.86505  1.0000
  N   N86       1.0  0.8798800000000002  0.8935299999999998  0.92268  1.0000
  N   N87       1.0  0.8037600000000001  0.5001799999999998  0.79787  1.0000
  N   N88       1.0  0.8435800000000002  0.44312999999999986  0.8198499999999999  1.0000
  N   N89       1.0  0.6949900000000001  0.5600099999999999  0.9889699999999999  1.0000
  N   N90       1.0  0.62013  0.5427399999999999  0.01378  1.0000
  N   N91       1.0  0.6962100000000001  0.49403  0.69643  1.0000
  N   N92       1.0  0.65633  0.47614  0.59957  1.0000
  N   N93       1.0  0.42895  0.93997  0.63503  1.0000
  N   N94       1.0  0.47096  0.95719  0.57738  1.0000
  N   N95       1.0  0.20223000000000002  0.005970000000000015  0.70204  1.0000
  N   N96       1.0  0.12321  0.02382999999999998  0.6801  1.0000
