data_image0
_chemical_formula_structural       Zn48H136C360O176
_chemical_formula_sum              "Zn48 H136 C360 O176"
_cell_length_a       20.04742
_cell_length_b       27.7907
_cell_length_c       46.0094
_cell_angle_alpha    89.99953999999998
_cell_angle_beta     90.0
_cell_angle_gamma    90.04124

_space_group_name_H-M_alt    "P 1"
_space_group_IT_number       1

loop_
  _space_group_symop_operation_xyz
  'x, y, z'

loop_
  _atom_site_type_symbol
  _atom_site_label
  _atom_site_symmetry_multiplicity
  _atom_site_fract_x
  _atom_site_fract_y
  _atom_site_fract_z
  _atom_site_occupancy
  Zn  Zn1       1.0  0.67859  0.22043  0.5919900000000001  1.0000
  Zn  Zn2       1.0  0.73557  0.12234  0.58474  1.0000
  Zn  Zn3       1.0  0.7424699999999999  0.17766999999999997  0.6502800000000001  1.0000
  Zn  Zn4       1.0  0.03262  0.68466  0.64745  1.0000
  Zn  Zn5       1.0  0.46002  0.78415  0.5821  1.0000
  Zn  Zn6       1.0  0.56394  0.86772  0.58852  1.0000
  Zn  Zn7       1.0  0.10593  0.7247  0.91152  1.0000
  Zn  Zn8       1.0  0.56384  0.87975  0.91707  1.0000
  Zn  Zn9       1.0  0.54421  0.81744  0.8532600000000002  1.0000
  Zn  Zn10      1.0  0.25129  0.32941  0.85354  1.0000
  Zn  Zn11      1.0  0.33164  0.31584  0.9188  1.0000
  Zn  Zn12      1.0  0.67889  0.19663  0.9139900000000001  1.0000
  Zn  Zn13      1.0  0.1773  0.77958  0.40819  1.0000
  Zn  Zn14      1.0  0.23406999999999997  0.8776799999999999  0.41619  1.0000
  Zn  Zn15      1.0  0.24324  0.82219  0.3499  1.0000
  Zn  Zn16      1.0  0.5333  0.31529  0.35309000000000007  1.0000
  Zn  Zn17      1.0  0.95857  0.21574  0.41773  1.0000
  Zn  Zn18      1.0  0.06213  0.13231  0.41052000000000005  1.0000
  Zn  Zn19      1.0  0.60733  0.27652  0.08836  1.0000
  Zn  Zn20      1.0  0.06523  0.12018  0.0829  1.0000
  Zn  Zn21      1.0  0.04477  0.18217  0.14661  1.0000
  Zn  Zn22      1.0  0.75197  0.67041  0.14626  1.0000
  Zn  Zn23      1.0  0.83313  0.68413  0.08058  1.0000
  Zn  Zn24      1.0  0.17987  0.80158  0.08617  1.0000
  Zn  Zn25      1.0  0.67859  0.7204299999999999  0.40801  1.0000
  Zn  Zn26      1.0  0.73557  0.62234  0.41526  1.0000
  Zn  Zn27      1.0  0.7424799999999999  0.67768  0.34972000000000003  1.0000
  Zn  Zn28      1.0  0.03262  0.18466  0.35255  1.0000
  Zn  Zn29      1.0  0.46002  0.28416  0.4179  1.0000
  Zn  Zn30      1.0  0.56394  0.36772  0.41148000000000007  1.0000
  Zn  Zn31      1.0  0.10593  0.2247  0.08848  1.0000
  Zn  Zn32      1.0  0.56384  0.37975  0.08293000000000002  1.0000
  Zn  Zn33      1.0  0.54421  0.31744  0.14674  1.0000
  Zn  Zn34      1.0  0.25129  0.82941  0.14646  1.0000
  Zn  Zn35      1.0  0.33164  0.81584  0.08120000000000001  1.0000
  Zn  Zn36      1.0  0.67889  0.69664  0.08601  1.0000
  Zn  Zn37      1.0  0.17727  0.27955  0.59186  1.0000
  Zn  Zn38      1.0  0.23406  0.37767  0.58381  1.0000
  Zn  Zn39      1.0  0.24322  0.32218  0.6501000000000001  1.0000
  Zn  Zn40      1.0  0.53331  0.81529  0.64691  1.0000
  Zn  Zn41      1.0  0.95857  0.71574  0.58227  1.0000
  Zn  Zn42      1.0  0.06213  0.63231  0.58948  1.0000
  Zn  Zn43      1.0  0.60732  0.77652  0.9116400000000001  1.0000
  Zn  Zn44      1.0  0.06523  0.62018  0.9171100000000002  1.0000
  Zn  Zn45      1.0  0.04477  0.68217  0.85339  1.0000
  Zn  Zn46      1.0  0.75196  0.17041  0.85374  1.0000
  Zn  Zn47      1.0  0.83313  0.18412999999999996  0.91943  1.0000
  Zn  Zn48      1.0  0.17987  0.30158  0.9138300000000003  1.0000
  H   H1        1.0  0.80244  0.19982999999999998  0.60825  1.0000
  H   H2        1.0  0.39108  0.7833899999999999  0.7967800000000002  1.0000
  H   H3        1.0  0.29155  0.7667  0.8788400000000001  1.0000
  H   H4        1.0  0.18253  0.74427  0.7991200000000002  1.0000
  H   H5        1.0  0.1744  0.74245  0.70387  1.0000
  H   H6        1.0  0.26965  0.76152  0.6208800000000001  1.0000
  H   H7        1.0  0.38150999999999996  0.7848  0.69961  1.0000
  H   H8        1.0  0.69845  0.0618  0.7017000000000001  1.0000
  H   H9        1.0  0.65259  0.99711  0.6191700000000001  1.0000
  H   H10       1.0  0.60527  0.92162  0.6984  1.0000
  H   H11       1.0  0.6058  0.9219999999999999  0.798  1.0000
  H   H12       1.0  0.6594999999999999  0.99489  0.8772700000000001  1.0000
  H   H13       1.0  0.70311  0.06083  0.7949300000000001  1.0000
  H   H14       1.0  0.59891  0.23462  0.7049100000000001  1.0000
  H   H15       1.0  0.49124999999999996  0.25908  0.6251100000000002  1.0000
  H   H16       1.0  0.39289  0.28023  0.7071000000000002  1.0000
  H   H17       1.0  0.40537999999999996  0.288  0.80201  1.0000
  H   H18       1.0  0.5037  0.25675  0.8828700000000003  1.0000
  H   H19       1.0  0.6045  0.22848  0.8019100000000001  1.0000
  H   H20       1.0  0.31573  0.15849  0.9499000000000002  1.0000
  H   H21       1.0  0.17485  0.24156  0.9998700000000001  1.0000
  H   H22       1.0  0.23195  0.10069  0.029300000000000007  1.0000
  H   H23       1.0  0.30282999999999993  0.9773399999999999  0.02863  1.0000
  H   H24       1.0  0.43114  0.86169  0.00177  1.0000
  H   H25       1.0  0.42641  0.99247  0.95186  1.0000
  H   H26       1.0  0.58815  0.78326  0.6061300000000001  1.0000
  H   H27       1.0  0.49157  0.96537  0.53309  1.0000
  H   H28       1.0  0.36471  0.84751  0.5070200000000001  1.0000
  H   H29       1.0  0.36715  0.97823  0.4569800000000001  1.0000
  H   H30       1.0  0.46560999999999997  0.14283  0.45804  1.0000
  H   H31       1.0  0.59517  0.23797  0.50506  1.0000
  H   H32       1.0  0.57084  0.09115  0.5339700000000001  1.0000
  H   H33       1.0  0.9846999999999999  0.69577  0.8966800000000001  1.0000
  H   H34       1.0  0.23867  0.37629  0.8960900000000003  1.0000
  H   H35       1.0  0.30124  0.8004999999999999  0.3926100000000001  1.0000
  H   H36       1.0  0.89059  0.21629  0.20325000000000004  1.0000
  H   H37       1.0  0.79125  0.23238  0.1211  1.0000
  H   H38       1.0  0.68234  0.25587  0.20073  1.0000
  H   H39       1.0  0.67347  0.25772  0.2961  1.0000
  H   H40       1.0  0.76974  0.23798  0.37881  1.0000
  H   H41       1.0  0.88073  0.21584  0.29977000000000004  1.0000
  H   H42       1.0  0.19863  0.9375  0.2985  1.0000
  H   H43       1.0  0.15212  0.00302  0.3807300000000001  1.0000
  H   H44       1.0  0.10609  0.07776  0.30109  1.0000
  H   H45       1.0  0.10542  0.07786  0.20205  1.0000
  H   H46       1.0  0.158  0.00493  0.12271  1.0000
  H   H47       1.0  0.20266999999999996  0.93916  0.20503000000000002  1.0000
  H   H48       1.0  0.09943  0.76455  0.29553000000000007  1.0000
  H   H49       1.0  0.99017  0.74129  0.37506  1.0000
  H   H50       1.0  0.8924699999999999  0.72091  0.29286000000000006  1.0000
  H   H51       1.0  0.9046499999999998  0.7121399999999999  0.19781  1.0000
  H   H52       1.0  0.00484  0.74225  0.11723  1.0000
  H   H53       1.0  0.10437999999999999  0.77093  0.19842  1.0000
  H   H54       1.0  0.81724  0.84083  0.04994000000000001  1.0000
  H   H55       1.0  0.6751099999999999  0.75841  0.00015  1.0000
  H   H56       1.0  0.73192  0.89977  0.97123  1.0000
  H   H57       1.0  0.8028299999999999  0.02217  0.9720500000000002  1.0000
  H   H58       1.0  0.93109  0.13807  0.9986500000000003  1.0000
  H   H59       1.0  0.92804  0.00705  0.04833000000000001  1.0000
  H   H60       1.0  0.08684999999999998  0.2167  0.39328  1.0000
  H   H61       1.0  0.9904  0.03494  0.4664  1.0000
  H   H62       1.0  0.86523  0.15298  0.49348  1.0000
  H   H63       1.0  0.8688900000000002  0.022139999999999996  0.5434300000000001  1.0000
  H   H64       1.0  0.96461  0.85739  0.5422500000000001  1.0000
  H   H65       1.0  0.09322  0.76195  0.49504  1.0000
  H   H66       1.0  0.06944  0.9087  0.46607000000000004  1.0000
  H   H67       1.0  0.48588  0.30330999999999997  0.10322  1.0000
  H   H68       1.0  0.74072  0.62365  0.10357  1.0000
  H   H69       1.0  0.80245  0.69984  0.39175  1.0000
  H   H70       1.0  0.39108  0.2834  0.20322  1.0000
  H   H71       1.0  0.29155  0.2667  0.12116000000000002  1.0000
  H   H72       1.0  0.18253  0.24428  0.20088000000000006  1.0000
  H   H73       1.0  0.17438999999999996  0.24244  0.29614  1.0000
  H   H74       1.0  0.26965  0.26152  0.37912  1.0000
  H   H75       1.0  0.38150999999999996  0.28481  0.30039000000000005  1.0000
  H   H76       1.0  0.69845  0.5618  0.2983  1.0000
  H   H77       1.0  0.65258  0.49710999999999994  0.38083  1.0000
  H   H78       1.0  0.60527  0.42162  0.3016  1.0000
  H   H79       1.0  0.6058  0.422  0.20200000000000007  1.0000
  H   H80       1.0  0.6594999999999999  0.49489  0.12273000000000003  1.0000
  H   H81       1.0  0.70311  0.56083  0.20507  1.0000
  H   H82       1.0  0.59894  0.73462  0.29509  1.0000
  H   H83       1.0  0.49128  0.75906  0.37489  1.0000
  H   H84       1.0  0.39291  0.78021  0.29290000000000005  1.0000
  H   H85       1.0  0.40539  0.788  0.19799  1.0000
  H   H86       1.0  0.5037  0.75675  0.11712000000000003  1.0000
  H   H87       1.0  0.60451  0.72848  0.19809000000000004  1.0000
  H   H88       1.0  0.31573  0.65849  0.05010000000000001  1.0000
  H   H89       1.0  0.17485  0.74156  0.00013  1.0000
  H   H90       1.0  0.23195  0.60068  0.9707000000000001  1.0000
  H   H91       1.0  0.30282999999999993  0.47734  0.97137  1.0000
  H   H92       1.0  0.43114  0.36169  0.9982300000000002  1.0000
  H   H93       1.0  0.42641  0.49248  0.04814  1.0000
  H   H94       1.0  0.58815  0.28327  0.39387000000000005  1.0000
  H   H95       1.0  0.49157  0.46538  0.4669100000000001  1.0000
  H   H96       1.0  0.36471  0.34751  0.4929900000000001  1.0000
  H   H97       1.0  0.36715  0.47823  0.54302  1.0000
  H   H98       1.0  0.46560999999999997  0.64282  0.5419600000000001  1.0000
  H   H99       1.0  0.59517  0.73797  0.49494  1.0000
  H   H100      1.0  0.57084  0.5911499999999998  0.46603000000000006  1.0000
  H   H101      1.0  0.98469  0.19578  0.10332  1.0000
  H   H102      1.0  0.23867  0.8762899999999999  0.10391000000000003  1.0000
  H   H103      1.0  0.3012  0.30049  0.6074  1.0000
  H   H104      1.0  0.89059  0.71629  0.79675  1.0000
  H   H105      1.0  0.79125  0.73238  0.8789000000000001  1.0000
  H   H106      1.0  0.68234  0.75587  0.7992700000000001  1.0000
  H   H107      1.0  0.67348  0.75772  0.7039000000000002  1.0000
  H   H108      1.0  0.76975  0.7379799999999999  0.62119  1.0000
  H   H109      1.0  0.88073  0.71584  0.70023  1.0000
  H   H110      1.0  0.19863  0.4375  0.7015  1.0000
  H   H111      1.0  0.15212  0.50303  0.61927  1.0000
  H   H112      1.0  0.10608  0.57776  0.6989100000000003  1.0000
  H   H113      1.0  0.10543  0.5778599999999999  0.79795  1.0000
  H   H114      1.0  0.158  0.50493  0.87729  1.0000
  H   H115      1.0  0.20266999999999996  0.43916  0.79497  1.0000
  H   H116      1.0  0.0994  0.26455  0.70446  1.0000
  H   H117      1.0  0.9900999999999999  0.24128  0.62494  1.0000
  H   H118      1.0  0.89245  0.22087  0.70714  1.0000
  H   H119      1.0  0.9046199999999999  0.21213  0.80221  1.0000
  H   H120      1.0  0.00486  0.24225  0.88277  1.0000
  H   H121      1.0  0.10437  0.27092  0.80158  1.0000
  H   H122      1.0  0.81724  0.34083  0.9500700000000001  1.0000
  H   H123      1.0  0.6751  0.25842  0.9998500000000001  1.0000
  H   H124      1.0  0.73192  0.39977  0.028780000000000003  1.0000
  H   H125      1.0  0.8028299999999999  0.52218  0.027950000000000006  1.0000
  H   H126      1.0  0.93109  0.63808  0.00135  1.0000
  H   H127      1.0  0.92804  0.50705  0.9516700000000002  1.0000
  H   H128      1.0  0.08684999999999998  0.71671  0.6067200000000001  1.0000
  H   H129      1.0  0.9904  0.53494  0.5336  1.0000
  H   H130      1.0  0.86523  0.65297  0.50652  1.0000
  H   H131      1.0  0.8688900000000002  0.52213  0.45657000000000003  1.0000
  H   H132      1.0  0.96461  0.35739  0.45775  1.0000
  H   H133      1.0  0.09322  0.26194  0.50496  1.0000
  H   H134      1.0  0.06944  0.40868999999999994  0.53393  1.0000
  H   H135      1.0  0.48588  0.80331  0.89678  1.0000
  H   H136      1.0  0.74072  0.12365  0.89643  1.0000
  C   C1        1.0  0.28635  0.7643999999999999  0.7938400000000002  1.0000
  C   C2        1.0  0.34582  0.77535  0.8088200000000001  1.0000
  C   C3        1.0  0.34764  0.77595  0.83923  1.0000
  C   C4        1.0  0.28994  0.76601  0.85523  1.0000
  C   C5        1.0  0.23081999999999997  0.75445  0.8405  1.0000
  C   C6        1.0  0.22883  0.75349  0.8100800000000001  1.0000
  C   C7        1.0  0.41195  0.78727  0.8544900000000001  1.0000
  C   C8        1.0  0.16988  0.74109  0.85693  1.0000
  C   C9        1.0  0.27847  0.76372  0.70578  1.0000
  C   C10       1.0  0.21867  0.75169  0.6914100000000001  1.0000
  C   C11       1.0  0.21561  0.75124  0.66102  1.0000
  C   C12       1.0  0.27228  0.76243  0.64448  1.0000
  C   C13       1.0  0.3319  0.77465  0.65859  1.0000
  C   C14       1.0  0.33493  0.77539  0.6889900000000001  1.0000
  C   C15       1.0  0.15188  0.73692  0.64638  1.0000
  C   C16       1.0  0.39336  0.7869099999999999  0.64171  1.0000
  C   C17       1.0  0.2843  0.76409  0.7630600000000001  1.0000
  C   C18       1.0  0.28169  0.76394  0.7365500000000003  1.0000
  C   C19       1.0  0.6527399999999999  0.9912  0.70414  1.0000
  C   C20       1.0  0.67841  0.03171  0.6893900000000001  1.0000
  C   C21       1.0  0.67782  0.03395  0.65899  1.0000
  C   C22       1.0  0.65262  0.99536  0.6427600000000001  1.0000
  C   C23       1.0  0.6265499999999999  0.95504  0.65719  1.0000
  C   C24       1.0  0.62621  0.95299  0.68762  1.0000
  C   C25       1.0  0.7026699999999999  0.07843  0.6440700000000001  1.0000
  C   C26       1.0  0.59748  0.9143099999999998  0.64029  1.0000
  C   C27       1.0  0.6549099999999999  0.99094  0.7923600000000002  1.0000
  C   C28       1.0  0.6281199999999999  0.9528  0.8088200000000001  1.0000
  C   C29       1.0  0.62988  0.9541  0.8392600000000001  1.0000
  C   C30       1.0  0.65809  0.9936  0.85366  1.0000
  C   C31       1.0  0.68407  0.03201  0.8374800000000001  1.0000
  C   C32       1.0  0.68271  0.0307  0.8071000000000002  1.0000
  C   C33       1.0  0.60106  0.91296  0.85608  1.0000
  C   C34       1.0  0.7115  0.07525  0.85288  1.0000
  C   C35       1.0  0.65311  0.98977  0.73496  1.0000
  C   C36       1.0  0.6537  0.98988  0.76151  1.0000
  C   C37       1.0  0.4964799999999999  0.2579  0.71  1.0000
  C   C38       1.0  0.55326  0.24495  0.6938300000000001  1.0000
  C   C39       1.0  0.55149  0.24564  0.66343  1.0000
  C   C40       1.0  0.49283  0.2585  0.6487200000000001  1.0000
  C   C41       1.0  0.43559999999999993  0.27032  0.66466  1.0000
  C   C42       1.0  0.43753  0.27037  0.69508  1.0000
  C   C43       1.0  0.61258  0.23173  0.64706  1.0000
  C   C44       1.0  0.37214  0.28382  0.6492800000000001  1.0000
  C   C45       1.0  0.50493  0.25843  0.7979800000000001  1.0000
  C   C46       1.0  0.4489  0.27482  0.8136100000000003  1.0000
  C   C47       1.0  0.44863  0.27436  0.84399  1.0000
  C   C48       1.0  0.50415  0.2572  0.8592700000000001  1.0000
  C   C49       1.0  0.56003  0.24054  0.84391  1.0000
  C   C50       1.0  0.56082  0.24149  0.8134800000000002  1.0000
  C   C51       1.0  0.38819  0.29179000000000005  0.8599400000000003  1.0000
  C   C52       1.0  0.6185899999999999  0.2208  0.8599400000000003  1.0000
  C   C53       1.0  0.49924999999999997  0.25829  0.7407600000000002  1.0000
  C   C54       1.0  0.50346  0.25843  0.7672200000000002  1.0000
  C   C55       1.0  0.2781  0.12368  0.98895  1.0000
  C   C56       1.0  0.28335  0.16184  0.9687600000000002  1.0000
  C   C57       1.0  0.24526999999999996  0.20377  0.97251  1.0000
  C   C58       1.0  0.20393  0.20899  0.9969000000000001  1.0000
  C   C59       1.0  0.20045  0.17209  0.017600000000000005  1.0000
  C   C60       1.0  0.23615  0.1295  0.013410000000000004  1.0000
  C   C61       1.0  0.24525999999999998  0.24264  0.9501400000000001  1.0000
  C   C62       1.0  0.16003  0.17867  0.044480000000000006  1.0000
  C   C63       1.0  0.36195  0.99148  0.9899200000000001  1.0000
  C   C64       1.0  0.33958  0.9632  0.0135  1.0000
  C   C65       1.0  0.36424  0.91667  0.01788  1.0000
  C   C66       1.0  0.41136  0.8977099999999999  0.99857  1.0000
  C   C67       1.0  0.43302000000000007  0.9250799999999999  0.9747600000000001  1.0000
  C   C68       1.0  0.40874  0.97177  0.97039  1.0000
  C   C69       1.0  0.3383  0.88794  0.04315000000000001  1.0000
  C   C70       1.0  0.48231999999999997  0.90386  0.95421  1.0000
  C   C71       1.0  0.31221  0.07921  0.98603  1.0000
  C   C72       1.0  0.33653  0.03889  0.9867700000000003  1.0000
  C   C73       1.0  0.43179  0.97837  0.49493000000000004  1.0000
  C   C74       1.0  0.4548  0.95035  0.51834  1.0000
  C   C75       1.0  0.43092  0.90362  0.5228700000000001  1.0000
  C   C76       1.0  0.3836  0.88385  0.5039  1.0000
  C   C77       1.0  0.36182  0.91102  0.48003  1.0000
  C   C78       1.0  0.38522  0.95799  0.4756000000000001  1.0000
  C   C79       1.0  0.45887999999999995  0.87597  0.54773  1.0000
  C   C80       1.0  0.31388  0.8893500000000001  0.4588400000000001  1.0000
  C   C81       1.0  0.51469  0.11093999999999998  0.49547  1.0000
  C   C82       1.0  0.50033  0.14854  0.4758700000000001  1.0000
  C   C83       1.0  0.52985  0.19382  0.47925  1.0000
  C   C84       1.0  0.57352  0.20235  0.50242  1.0000
  C   C85       1.0  0.58827  0.16515999999999997  0.5221  1.0000
  C   C86       1.0  0.55949  0.11959  0.51853  1.0000
  C   C87       1.0  0.5137  0.23382  0.45849000000000006  1.0000
  C   C88       1.0  0.63064  0.17484  0.54788  1.0000
  C   C89       1.0  0.45747000000000004  0.02566  0.4921  1.0000
  C   C90       1.0  0.48379  0.06528  0.4928900000000001  1.0000
  C   C91       1.0  0.78604  0.23563  0.20599000000000003  1.0000
  C   C92       1.0  0.84548  0.22436  0.19112  1.0000
  C   C93       1.0  0.84736  0.22341  0.16071000000000002  1.0000
  C   C94       1.0  0.7895599999999999  0.23334  0.14471  1.0000
  C   C95       1.0  0.73035  0.24507  0.15939  1.0000
  C   C96       1.0  0.7285199999999998  0.24643  0.18977  1.0000
  C   C97       1.0  0.91167  0.21171  0.14548000000000003  1.0000
  C   C98       1.0  0.66899  0.25805  0.14309  1.0000
  C   C99       1.0  0.77753  0.2366  0.29394  1.0000
  C   C100      1.0  0.71788  0.24843  0.30843  1.0000
  C   C101      1.0  0.71523  0.24864  0.33879  1.0000
  C   C102      1.0  0.7720299999999999  0.23736  0.3552  1.0000
  C   C103      1.0  0.83152  0.22547  0.34093000000000007  1.0000
  C   C104      1.0  0.83425  0.22504  0.31053  1.0000
  C   C105      1.0  0.65197  0.26294  0.35367000000000004  1.0000
  C   C106      1.0  0.89316  0.21323  0.35765  1.0000
  C   C107      1.0  0.78377  0.23622  0.23673000000000005  1.0000
  C   C108      1.0  0.78066  0.23648  0.2632  1.0000
  C   C109      1.0  0.15326  0.00811  0.29575  1.0000
  C   C110      1.0  0.17862  0.9677299999999999  0.31067000000000006  1.0000
  C   C111      1.0  0.17781  0.96577  0.34108000000000005  1.0000
  C   C112      1.0  0.15245  0.0045  0.35713  1.0000
  C   C113      1.0  0.12663  0.04468  0.34247  1.0000
  C   C114      1.0  0.12671  0.04648  0.31206000000000006  1.0000
  C   C115      1.0  0.20255999999999996  0.9213  0.35609  1.0000
  C   C116      1.0  0.09733  0.08568  0.35897  1.0000
  C   C117      1.0  0.1545  0.00892  0.2076  1.0000
  C   C118      1.0  0.12766  0.04707  0.19121000000000002  1.0000
  C   C119      1.0  0.12926  0.0457  0.16078000000000003  1.0000
  C   C120      1.0  0.15707  0.00618  0.14632  1.0000
  C   C121      1.0  0.18297  0.96777  0.16246  1.0000
  C   C122      1.0  0.18206  0.96916  0.19284000000000004  1.0000
  C   C123      1.0  0.10062  0.08673  0.14393  1.0000
  C   C124      1.0  0.21006999999999998  0.92455  0.14706  1.0000
  C   C125      1.0  0.15368999999999997  0.00947  0.26496  1.0000
  C   C126      1.0  0.15373  0.00984  0.23842000000000005  1.0000
  C   C127      1.0  0.99642  0.74229  0.29017  1.0000
  C   C128      1.0  0.053309999999999996  0.75473  0.30643  1.0000
  C   C129      1.0  0.051190000000000006  0.7542  0.33682  1.0000
  C   C130      1.0  0.9921199999999999  0.74185  0.3514500000000001  1.0000
  C   C131      1.0  0.93484  0.73038  0.33542000000000005  1.0000
  C   C132      1.0  0.9371099999999999  0.73035  0.30500000000000005  1.0000
  C   C133      1.0  0.11249  0.76759  0.3532300000000001  1.0000
  C   C134      1.0  0.8709700000000001  0.71723  0.35064000000000006  1.0000
  C   C135      1.0  0.0045  0.7413  0.20213000000000003  1.0000
  C   C136      1.0  0.94861  0.72495  0.18635000000000002  1.0000
  C   C137      1.0  0.94903  0.7251  0.15596000000000002  1.0000
  C   C138      1.0  0.00486  0.742  0.14084  1.0000
  C   C139      1.0  0.06042999999999999  0.75876  0.15632  1.0000
  C   C140      1.0  0.06074999999999999  0.75802  0.18675  1.0000
  C   C141      1.0  0.88898  0.70792  0.13967  1.0000
  C   C142      1.0  0.11914  0.77809  0.14026000000000002  1.0000
  C   C143      1.0  0.9992399999999999  0.74182  0.2594  1.0000
  C   C144      1.0  0.0028800000000000006  0.74145  0.23291000000000003  1.0000
  C   C145      1.0  0.7785  0.8761  0.011320000000000002  1.0000
  C   C146      1.0  0.7843  0.83764  0.03124  1.0000
  C   C147      1.0  0.74614  0.79576  0.027410000000000004  1.0000
  C   C148      1.0  0.70422  0.79098  0.00318  1.0000
  C   C149      1.0  0.7004199999999999  0.8281699999999999  0.9826400000000002  1.0000
  C   C150      1.0  0.73618  0.8707100000000001  0.98695  1.0000
  C   C151      1.0  0.74713  0.75641  0.04952  1.0000
  C   C152      1.0  0.66003  0.82156  0.95577  1.0000
  C   C153      1.0  0.86255  0.00811  0.01061  1.0000
  C   C154      1.0  0.8397299999999999  0.03634  0.9871300000000002  1.0000
  C   C155      1.0  0.86423  0.0829  0.98275  1.0000
  C   C156      1.0  0.91161  0.10197  0.00192  1.0000
  C   C157      1.0  0.9339199999999999  0.07448999999999999  0.02555  1.0000
  C   C158      1.0  0.90978  0.02777  0.02995  1.0000
  C   C159      1.0  0.8383299999999999  0.11113  0.9573200000000002  1.0000
  C   C160      1.0  0.98386  0.09532999999999998  0.045930000000000006  1.0000
  C   C161      1.0  0.8127199999999999  0.92046  0.014430000000000002  1.0000
  C   C162      1.0  0.83719  0.96072  0.01377  1.0000
  C   C163      1.0  0.93208  0.02203  0.50505  1.0000
  C   C164      1.0  0.9543499999999999  0.04997  0.48147000000000006  1.0000
  C   C165      1.0  0.9305399999999999  0.09673999999999999  0.47713000000000005  1.0000
  C   C166      1.0  0.8840899999999999  0.11662  0.4965200000000001  1.0000
  C   C167      1.0  0.863  0.08948  0.52057  1.0000
  C   C168      1.0  0.8863899999999999  0.04247  0.52473  1.0000
  C   C169      1.0  0.9575  0.12414  0.4519000000000001  1.0000
  C   C170      1.0  0.81559  0.11086  0.5422  1.0000
  C   C171      1.0  0.01356  0.88914  0.5047200000000001  1.0000
  C   C172      1.0  0.99911  0.8516  0.52436  1.0000
  C   C173      1.0  0.02826  0.80623  0.5209300000000001  1.0000
  C   C174      1.0  0.07168  0.79758  0.49769000000000013  1.0000
  C   C175      1.0  0.08643  0.83472  0.47796  1.0000
  C   C176      1.0  0.05802  0.88035  0.4815700000000001  1.0000
  C   C177      1.0  0.01201  0.7662  0.54166  1.0000
  C   C178      1.0  0.12882  0.82499  0.45223  1.0000
  C   C179      1.0  0.95741  0.97469  0.50782  1.0000
  C   C180      1.0  0.9831299999999998  0.9349  0.50725  1.0000
  C   C181      1.0  0.28635  0.26441  0.20616  1.0000
  C   C182      1.0  0.34582  0.27535  0.19118  1.0000
  C   C183      1.0  0.34764  0.27595  0.16077  1.0000
  C   C184      1.0  0.28994  0.26601  0.14478000000000002  1.0000
  C   C185      1.0  0.23081999999999997  0.25446  0.15951  1.0000
  C   C186      1.0  0.22883  0.25349  0.18992000000000006  1.0000
  C   C187      1.0  0.41195  0.28727  0.14551  1.0000
  C   C188      1.0  0.16988  0.24109  0.14308  1.0000
  C   C189      1.0  0.27847  0.26372  0.29423  1.0000
  C   C190      1.0  0.21867  0.25169  0.30859  1.0000
  C   C191      1.0  0.21561  0.25124  0.33898000000000006  1.0000
  C   C192      1.0  0.27228  0.26243  0.35553  1.0000
  C   C193      1.0  0.3319  0.27464  0.34141  1.0000
  C   C194      1.0  0.33493  0.27539  0.31101000000000006  1.0000
  C   C195      1.0  0.15188  0.23692  0.3536200000000001  1.0000
  C   C196      1.0  0.39336  0.2869  0.35829000000000005  1.0000
  C   C197      1.0  0.2843  0.2641  0.23694000000000007  1.0000
  C   C198      1.0  0.28168  0.26394  0.26345  1.0000
  C   C199      1.0  0.6527399999999999  0.4912  0.29586  1.0000
  C   C200      1.0  0.67841  0.53171  0.31061  1.0000
  C   C201      1.0  0.67782  0.53395  0.34101000000000004  1.0000
  C   C202      1.0  0.65262  0.49536  0.35724  1.0000
  C   C203      1.0  0.6265499999999999  0.45504  0.34281  1.0000
  C   C204      1.0  0.62621  0.45299  0.31238000000000005  1.0000
  C   C205      1.0  0.7026699999999999  0.57843  0.35593000000000014  1.0000
  C   C206      1.0  0.59748  0.41431  0.3597100000000001  1.0000
  C   C207      1.0  0.6549099999999999  0.49093999999999993  0.20764  1.0000
  C   C208      1.0  0.6281199999999999  0.4528  0.19118  1.0000
  C   C209      1.0  0.62988  0.4541  0.16074  1.0000
  C   C210      1.0  0.65809  0.4936  0.14634  1.0000
  C   C211      1.0  0.68407  0.53202  0.16252  1.0000
  C   C212      1.0  0.68271  0.5307  0.19290000000000002  1.0000
  C   C213      1.0  0.60106  0.41296  0.14392  1.0000
  C   C214      1.0  0.7115  0.57525  0.14712  1.0000
  C   C215      1.0  0.65311  0.48978  0.26504000000000005  1.0000
  C   C216      1.0  0.6537  0.48988  0.23849000000000006  1.0000
  C   C217      1.0  0.4965  0.75789  0.29  1.0000
  C   C218      1.0  0.55329  0.74494  0.30617000000000005  1.0000
  C   C219      1.0  0.55151  0.74563  0.33657  1.0000
  C   C220      1.0  0.49284  0.75849  0.3512700000000001  1.0000
  C   C221      1.0  0.43562  0.77031  0.33534  1.0000
  C   C222      1.0  0.43754  0.77035  0.3049200000000001  1.0000
  C   C223      1.0  0.6125899999999999  0.73172  0.35293  1.0000
  C   C224      1.0  0.37216  0.78382  0.35073  1.0000
  C   C225      1.0  0.50493  0.7584300000000002  0.20202000000000006  1.0000
  C   C226      1.0  0.44891  0.7748199999999998  0.18639  1.0000
  C   C227      1.0  0.44864  0.7743599999999999  0.15601000000000004  1.0000
  C   C228      1.0  0.50415  0.75721  0.14073000000000002  1.0000
  C   C229      1.0  0.56003  0.74054  0.15609000000000003  1.0000
  C   C230      1.0  0.56082  0.74149  0.18652  1.0000
  C   C231      1.0  0.38819  0.79179  0.14006  1.0000
  C   C232      1.0  0.6185899999999999  0.7207999999999999  0.14006  1.0000
  C   C233      1.0  0.49926999999999994  0.75828  0.25924  1.0000
  C   C234      1.0  0.50347  0.7584300000000002  0.23278000000000004  1.0000
  C   C235      1.0  0.2781  0.62369  0.01105  1.0000
  C   C236      1.0  0.28335  0.66185  0.03124  1.0000
  C   C237      1.0  0.24526999999999996  0.70377  0.027490000000000004  1.0000
  C   C238      1.0  0.20393  0.7089899999999999  0.0031  1.0000
  C   C239      1.0  0.20045  0.67209  0.9824  1.0000
  C   C240      1.0  0.23615  0.6295  0.9865900000000001  1.0000
  C   C241      1.0  0.24525999999999998  0.74264  0.049860000000000015  1.0000
  C   C242      1.0  0.16003  0.67867  0.9555300000000002  1.0000
  C   C243      1.0  0.36195  0.49149  0.01008  1.0000
  C   C244      1.0  0.33958  0.4632  0.9865000000000002  1.0000
  C   C245      1.0  0.36424  0.41667  0.98212  1.0000
  C   C246      1.0  0.41136  0.39771  0.0014300000000000003  1.0000
  C   C247      1.0  0.43302000000000007  0.42509  0.025240000000000002  1.0000
  C   C248      1.0  0.40873  0.47177  0.029620000000000007  1.0000
  C   C249      1.0  0.3383  0.38794  0.9568600000000003  1.0000
  C   C250      1.0  0.48231999999999997  0.40386  0.04580000000000001  1.0000
  C   C251      1.0  0.31221  0.57921  0.01397  1.0000
  C   C252      1.0  0.33653  0.5389  0.013230000000000004  1.0000
  C   C253      1.0  0.43178  0.47837  0.50507  1.0000
  C   C254      1.0  0.4548  0.45035  0.48167  1.0000
  C   C255      1.0  0.43092  0.40362  0.47713000000000005  1.0000
  C   C256      1.0  0.38358999999999993  0.38385  0.49610000000000004  1.0000
  C   C257      1.0  0.36182  0.41102  0.5199700000000002  1.0000
  C   C258      1.0  0.38521  0.45798999999999995  0.5244  1.0000
  C   C259      1.0  0.45887999999999995  0.37597  0.45227  1.0000
  C   C260      1.0  0.31387  0.38935  0.5411700000000002  1.0000
  C   C261      1.0  0.51469  0.61094  0.5045300000000001  1.0000
  C   C262      1.0  0.50033  0.64854  0.52413  1.0000
  C   C263      1.0  0.52985  0.69381  0.5207500000000002  1.0000
  C   C264      1.0  0.57352  0.70235  0.49758000000000013  1.0000
  C   C265      1.0  0.58827  0.66516  0.4779  1.0000
  C   C266      1.0  0.55949  0.61959  0.48147000000000006  1.0000
  C   C267      1.0  0.5137  0.73381  0.54152  1.0000
  C   C268      1.0  0.63064  0.67484  0.4521200000000001  1.0000
  C   C269      1.0  0.45747000000000004  0.52566  0.5079  1.0000
  C   C270      1.0  0.4838  0.56528  0.50711  1.0000
  C   C271      1.0  0.78603  0.7356199999999999  0.7940100000000001  1.0000
  C   C272      1.0  0.84548  0.72436  0.80889  1.0000
  C   C273      1.0  0.8473499999999999  0.72341  0.83929  1.0000
  C   C274      1.0  0.7895599999999999  0.73334  0.85529  1.0000
  C   C275      1.0  0.73035  0.74507  0.8406200000000001  1.0000
  C   C276      1.0  0.7285199999999998  0.74643  0.8102300000000001  1.0000
  C   C277      1.0  0.91167  0.7116999999999999  0.85452  1.0000
  C   C278      1.0  0.66898  0.75804  0.8569100000000002  1.0000
  C   C279      1.0  0.77754  0.7366  0.70606  1.0000
  C   C280      1.0  0.71788  0.74842  0.69158  1.0000
  C   C281      1.0  0.71523  0.74864  0.6612100000000001  1.0000
  C   C282      1.0  0.7720299999999999  0.73735  0.6448  1.0000
  C   C283      1.0  0.83153  0.72547  0.65907  1.0000
  C   C284      1.0  0.83425  0.72504  0.68947  1.0000
  C   C285      1.0  0.65197  0.7629399999999998  0.6463300000000001  1.0000
  C   C286      1.0  0.89316  0.7132300000000001  0.6423500000000001  1.0000
  C   C287      1.0  0.78377  0.73621  0.7632700000000001  1.0000
  C   C288      1.0  0.78066  0.73647  0.7368  1.0000
  C   C289      1.0  0.15326  0.50811  0.7042500000000002  1.0000
  C   C290      1.0  0.17862  0.46773  0.68933  1.0000
  C   C291      1.0  0.17782  0.46576999999999996  0.65892  1.0000
  C   C292      1.0  0.15246  0.5045  0.64288  1.0000
  C   C293      1.0  0.12663  0.54468  0.65753  1.0000
  C   C294      1.0  0.12671  0.54648  0.68795  1.0000
  C   C295      1.0  0.20255999999999996  0.42131  0.6439100000000001  1.0000
  C   C296      1.0  0.09733  0.58569  0.6410300000000001  1.0000
  C   C297      1.0  0.1545  0.50892  0.7924  1.0000
  C   C298      1.0  0.12766  0.54707  0.8087900000000002  1.0000
  C   C299      1.0  0.12926  0.5457  0.83923  1.0000
  C   C300      1.0  0.15707  0.50618  0.85368  1.0000
  C   C301      1.0  0.18297  0.46777  0.8375400000000002  1.0000
  C   C302      1.0  0.18206  0.46916  0.8071600000000002  1.0000
  C   C303      1.0  0.10063  0.58672  0.8560700000000001  1.0000
  C   C304      1.0  0.21007999999999996  0.4245399999999999  0.85294  1.0000
  C   C305      1.0  0.15368999999999997  0.50947  0.73504  1.0000
  C   C306      1.0  0.15373  0.50984  0.76158  1.0000
  C   C307      1.0  0.99638  0.24229  0.70984  1.0000
  C   C308      1.0  0.05326999999999999  0.25472  0.6935700000000001  1.0000
  C   C309      1.0  0.05116  0.25413  0.66319  1.0000
  C   C310      1.0  0.99207  0.24183  0.64855  1.0000
  C   C311      1.0  0.9348  0.2304  0.66459  1.0000
  C   C312      1.0  0.93707  0.23035  0.69501  1.0000
  C   C313      1.0  0.11251  0.26747  0.6468  1.0000
  C   C314      1.0  0.8709499999999999  0.21724  0.64936  1.0000
  C   C315      1.0  0.00449  0.24128  0.79788  1.0000
  C   C316      1.0  0.94859  0.22494  0.81366  1.0000
  C   C317      1.0  0.9490199999999999  0.22509  0.84406  1.0000
  C   C318      1.0  0.00486  0.24199  0.8591700000000002  1.0000
  C   C319      1.0  0.06042999999999999  0.25876  0.84369  1.0000
  C   C320      1.0  0.06074  0.25801  0.81325  1.0000
  C   C321      1.0  0.88899  0.20792  0.86036  1.0000
  C   C322      1.0  0.11914  0.27809  0.8597500000000001  1.0000
  C   C323      1.0  0.9992099999999999  0.24182  0.7406100000000002  1.0000
  C   C324      1.0  0.00286  0.24143999999999993  0.7670900000000002  1.0000
  C   C325      1.0  0.7785  0.3761  0.9886800000000002  1.0000
  C   C326      1.0  0.7843  0.33764  0.9687600000000002  1.0000
  C   C327      1.0  0.74614  0.29576  0.97259  1.0000
  C   C328      1.0  0.70422  0.29097999999999996  0.9968200000000002  1.0000
  C   C329      1.0  0.7004199999999999  0.32817999999999997  0.017360000000000004  1.0000
  C   C330      1.0  0.73618  0.37071  0.013050000000000003  1.0000
  C   C331      1.0  0.74713  0.25641  0.9504800000000002  1.0000
  C   C332      1.0  0.66004  0.32157  0.044230000000000005  1.0000
  C   C333      1.0  0.86255  0.50811  0.9893900000000002  1.0000
  C   C334      1.0  0.8397299999999999  0.53635  0.012870000000000001  1.0000
  C   C335      1.0  0.86423  0.5829  0.01725  1.0000
  C   C336      1.0  0.91161  0.60197  0.9980800000000002  1.0000
  C   C337      1.0  0.9339199999999999  0.57448  0.9744500000000003  1.0000
  C   C338      1.0  0.90978  0.52777  0.9700600000000001  1.0000
  C   C339      1.0  0.8383299999999999  0.61113  0.04268  1.0000
  C   C340      1.0  0.98386  0.59533  0.95407  1.0000
  C   C341      1.0  0.8127199999999999  0.42046  0.9855800000000001  1.0000
  C   C342      1.0  0.8371799999999999  0.46072  0.98623  1.0000
  C   C343      1.0  0.93208  0.52203  0.4949500000000001  1.0000
  C   C344      1.0  0.9543499999999999  0.54997  0.51853  1.0000
  C   C345      1.0  0.9305399999999999  0.5967299999999999  0.5228700000000001  1.0000
  C   C346      1.0  0.8840899999999999  0.6166199999999998  0.50348  1.0000
  C   C347      1.0  0.863  0.58948  0.47943000000000013  1.0000
  C   C348      1.0  0.8863899999999999  0.54247  0.47527000000000014  1.0000
  C   C349      1.0  0.9575  0.62413  0.5481  1.0000
  C   C350      1.0  0.81559  0.61086  0.4578000000000001  1.0000
  C   C351      1.0  0.01357  0.38913  0.49529  1.0000
  C   C352      1.0  0.99911  0.3516  0.47564000000000006  1.0000
  C   C353      1.0  0.02827  0.30623  0.4790800000000001  1.0000
  C   C354      1.0  0.07168  0.29758  0.50232  1.0000
  C   C355      1.0  0.08644  0.33471  0.52205  1.0000
  C   C356      1.0  0.05803  0.38034  0.5184400000000001  1.0000
  C   C357      1.0  0.01201  0.2662  0.4583400000000001  1.0000
  C   C358      1.0  0.12884  0.32499  0.54779  1.0000
  C   C359      1.0  0.9574199999999999  0.47469  0.49218000000000006  1.0000
  C   C360      1.0  0.98314  0.4349  0.49276000000000003  1.0000
  O   O1        1.0  0.41443  0.78819  0.8818300000000001  1.0000
  O   O2        1.0  0.46159  0.79539  0.8369800000000002  1.0000
  O   O3        1.0  0.17144  0.74789  0.8847300000000001  1.0000
  O   O4        1.0  0.12112  0.72377  0.8427400000000002  1.0000
  O   O5        1.0  0.14846999999999996  0.73808  0.61894  1.0000
  O   O6        1.0  0.10431000000000001  0.72334  0.6637000000000001  1.0000
  O   O7        1.0  0.39373  0.7789  0.61454  1.0000
  O   O8        1.0  0.44133  0.8049500000000002  0.6567800000000001  1.0000
  O   O9        1.0  0.7544299999999999  0.18566  0.60661  1.0000
  O   O10       1.0  0.69693  0.0809  0.6165800000000001  1.0000
  O   O11       1.0  0.72707  0.11104  0.6608100000000001  1.0000
  O   O12       1.0  0.60934  0.91398  0.61266  1.0000
  O   O13       1.0  0.56229  0.8835  0.6538300000000001  1.0000
  O   O14       1.0  0.60981  0.91196  0.8834600000000001  1.0000
  O   O15       1.0  0.56961  0.88131  0.8410400000000001  1.0000
  O   O16       1.0  0.71076  0.07644  0.8802  1.0000
  O   O17       1.0  0.7337  0.10928999999999998  0.83581  1.0000
  O   O18       1.0  0.61266  0.24076  0.61955  1.0000
  O   O19       1.0  0.65971  0.21204  0.6611900000000002  1.0000
  O   O20       1.0  0.36999  0.2834  0.62192  1.0000
  O   O21       1.0  0.32326  0.29532  0.66654  1.0000
  O   O22       1.0  0.39360999999999996  0.29721  0.8873400000000002  1.0000
  O   O23       1.0  0.33644  0.29966  0.84427  1.0000
  O   O24       1.0  0.60964  0.21426  0.8875700000000002  1.0000
  O   O25       1.0  0.6718  0.21217  0.8458800000000002  1.0000
  O   O26       1.0  0.19148  0.26889  0.94968  1.0000
  O   O27       1.0  0.29335  0.24806  0.93244  1.0000
  O   O28       1.0  0.13775  0.22176  0.049130000000000014  1.0000
  O   O29       1.0  0.15159  0.14383  0.06207000000000001  1.0000
  O   O30       1.0  0.37054  0.84747  0.048410000000000016  1.0000
  O   O31       1.0  0.28971  0.90233  0.05752000000000001  1.0000
  O   O32       1.0  0.50503  0.86183  0.95807  1.0000
  O   O33       1.0  0.50175  0.92969  0.9322000000000001  1.0000
  O   O34       1.0  0.54542  0.80496  0.60347  1.0000
  O   O35       1.0  0.4274899999999999  0.84062  0.55837  1.0000
  O   O36       1.0  0.51554  0.8927299999999999  0.55704  1.0000
  O   O37       1.0  0.29247  0.84734  0.46164  1.0000
  O   O38       1.0  0.29634  0.91728  0.43715  1.0000
  O   O39       1.0  0.54219  0.27375  0.46036  1.0000
  O   O40       1.0  0.46821  0.22389  0.4389  1.0000
  O   O41       1.0  0.64701  0.21925  0.55266  1.0000
  O   O42       1.0  0.64612  0.14088  0.56551  1.0000
  O   O43       1.0  0.03395  0.68549  0.8974000000000002  1.0000
  O   O44       1.0  0.24940999999999997  0.33997  0.8971000000000002  1.0000
  O   O45       1.0  0.9130899999999998  0.2095  0.11814  1.0000
  O   O46       1.0  0.9620299999999999  0.20470999999999998  0.16283  1.0000
  O   O47       1.0  0.67092  0.25211  0.11523  1.0000
  O   O48       1.0  0.61945  0.27407  0.15729000000000004  1.0000
  O   O49       1.0  0.6497  0.26193  0.38111  1.0000
  O   O50       1.0  0.60378  0.27637  0.33656  1.0000
  O   O51       1.0  0.8924900000000001  0.21892  0.38505000000000006  1.0000
  O   O52       1.0  0.9419199999999999  0.19743  0.34208  1.0000
  O   O53       1.0  0.25355  0.8144  0.39383000000000007  1.0000
  O   O54       1.0  0.19834  0.9192199999999999  0.38362000000000007  1.0000
  O   O55       1.0  0.22543  0.88831  0.3392200000000001  1.0000
  O   O56       1.0  0.10768  0.08597  0.38672000000000006  1.0000
  O   O57       1.0  0.06366  0.11675  0.34494  1.0000
  O   O58       1.0  0.11108  0.08825  0.11667000000000001  1.0000
  O   O59       1.0  0.06773  0.11772  0.15885  1.0000
  O   O60       1.0  0.20926  0.92334  0.11973  1.0000
  O   O61       1.0  0.23215  0.89057  0.16415  1.0000
  O   O62       1.0  0.11109999999999999  0.75948  0.38086  1.0000
  O   O63       1.0  0.16107999999999997  0.78563  0.33919000000000005  1.0000
  O   O64       1.0  0.86892  0.71678  0.37805  1.0000
  O   O65       1.0  0.8216599999999998  0.70683  0.33341000000000004  1.0000
  O   O66       1.0  0.89515  0.70247  0.11232  1.0000
  O   O67       1.0  0.8366500000000001  0.7005  0.15504000000000004  1.0000
  O   O68       1.0  0.11097  0.78331  0.11252000000000002  1.0000
  O   O69       1.0  0.17186  0.78762  0.15442000000000003  1.0000
  O   O70       1.0  0.69279  0.73076  0.05059000000000001  1.0000
  O   O71       1.0  0.79694  0.75032  0.06616  1.0000
  O   O72       1.0  0.63904  0.77819  0.95095  1.0000
  O   O73       1.0  0.6505  0.85631  0.9381600000000002  1.0000
  O   O74       1.0  0.86914  0.15236  0.95258  1.0000
  O   O75       1.0  0.7914  0.09547  0.9423900000000001  1.0000
  O   O76       1.0  0.00676  0.1374  0.0421  1.0000
  O   O77       1.0  0.0035499999999999998  0.06931  0.06778000000000002  1.0000
  O   O78       1.0  0.04373  0.19511  0.39569000000000004  1.0000
  O   O79       1.0  0.92583  0.15957999999999997  0.4416  1.0000
  O   O80       1.0  0.013379999999999998  0.10711  0.44188  1.0000
  O   O81       1.0  0.79419  0.15290000000000004  0.53967  1.0000
  O   O82       1.0  0.7982699999999999  0.08271  0.56386  1.0000
  O   O83       1.0  0.04045  0.72628  0.53973  1.0000
  O   O84       1.0  0.9665399999999998  0.7761  0.56126  1.0000
  O   O85       1.0  0.14502  0.78062  0.4474  1.0000
  O   O86       1.0  0.1445  0.85901  0.43462  1.0000
  O   O87       1.0  0.53468  0.31457  0.10270000000000003  1.0000
  O   O88       1.0  0.7507  0.65997  0.10254000000000002  1.0000
  O   O89       1.0  0.41443  0.28819  0.11817000000000003  1.0000
  O   O90       1.0  0.46159  0.2954  0.16302  1.0000
  O   O91       1.0  0.17144  0.24789  0.11527000000000003  1.0000
  O   O92       1.0  0.12112  0.22377  0.15727  1.0000
  O   O93       1.0  0.14846  0.23808  0.38106000000000007  1.0000
  O   O94       1.0  0.10431000000000001  0.22333  0.3363  1.0000
  O   O95       1.0  0.39373  0.2789  0.38546000000000014  1.0000
  O   O96       1.0  0.44133  0.30495  0.34322  1.0000
  O   O97       1.0  0.7544299999999999  0.68566  0.39338  1.0000
  O   O98       1.0  0.69693  0.5809  0.38342  1.0000
  O   O99       1.0  0.72708  0.61104  0.33919000000000005  1.0000
  O   O100      1.0  0.60934  0.41398  0.38734  1.0000
  O   O101      1.0  0.56229  0.3835  0.34617000000000003  1.0000
  O   O102      1.0  0.60981  0.41196  0.11654000000000003  1.0000
  O   O103      1.0  0.56961  0.38131  0.15897  1.0000
  O   O104      1.0  0.71076  0.57645  0.1198  1.0000
  O   O105      1.0  0.7337  0.60929  0.16419  1.0000
  O   O106      1.0  0.61267  0.74075  0.38045000000000007  1.0000
  O   O107      1.0  0.65972  0.71204  0.33881  1.0000
  O   O108      1.0  0.37001  0.7834  0.37809  1.0000
  O   O109      1.0  0.32328  0.79533  0.33346  1.0000
  O   O110      1.0  0.39360999999999996  0.79721  0.11267000000000003  1.0000
  O   O111      1.0  0.33644  0.79966  0.15573  1.0000
  O   O112      1.0  0.60964  0.71426  0.11243000000000003  1.0000
  O   O113      1.0  0.6718  0.71217  0.15412  1.0000
  O   O114      1.0  0.19148  0.7689  0.050320000000000004  1.0000
  O   O115      1.0  0.29335  0.74806  0.06756000000000001  1.0000
  O   O116      1.0  0.13775  0.7217499999999999  0.95087  1.0000
  O   O117      1.0  0.15159  0.64382  0.93793  1.0000
  O   O118      1.0  0.37054  0.34747  0.95159  1.0000
  O   O119      1.0  0.28971  0.40233  0.94248  1.0000
  O   O120      1.0  0.50503  0.36183  0.04193  1.0000
  O   O121      1.0  0.50175  0.42969  0.0678  1.0000
  O   O122      1.0  0.54542  0.30496  0.3965300000000001  1.0000
  O   O123      1.0  0.4274899999999999  0.34062  0.44163  1.0000
  O   O124      1.0  0.51554  0.39273  0.44296000000000013  1.0000
  O   O125      1.0  0.29246  0.34735  0.53836  1.0000
  O   O126      1.0  0.29634  0.41728  0.56285  1.0000
  O   O127      1.0  0.54219  0.77375  0.53964  1.0000
  O   O128      1.0  0.46821  0.72389  0.5611100000000001  1.0000
  O   O129      1.0  0.64702  0.71925  0.4473400000000001  1.0000
  O   O130      1.0  0.64613  0.64088  0.43449  1.0000
  O   O131      1.0  0.03395  0.18549  0.1026  1.0000
  O   O132      1.0  0.24940999999999997  0.83997  0.1029  1.0000
  O   O133      1.0  0.9130899999999998  0.7094999999999999  0.88186  1.0000
  O   O134      1.0  0.96202  0.70471  0.83717  1.0000
  O   O135      1.0  0.6709  0.7521  0.88477  1.0000
  O   O136      1.0  0.6194399999999999  0.77406  0.8427  1.0000
  O   O137      1.0  0.6497  0.76193  0.61889  1.0000
  O   O138      1.0  0.60379  0.77637  0.6634400000000001  1.0000
  O   O139      1.0  0.8924900000000001  0.71892  0.61496  1.0000
  O   O140      1.0  0.94193  0.69743  0.65792  1.0000
  O   O141      1.0  0.25351  0.31438999999999995  0.60617  1.0000
  O   O142      1.0  0.19834  0.41923  0.61638  1.0000
  O   O143      1.0  0.22542  0.3883  0.6607700000000001  1.0000
  O   O144      1.0  0.10768  0.58597  0.61328  1.0000
  O   O145      1.0  0.06366  0.61675  0.6550700000000002  1.0000
  O   O146      1.0  0.11108  0.58825  0.8833300000000001  1.0000
  O   O147      1.0  0.06773  0.61772  0.84115  1.0000
  O   O148      1.0  0.20926  0.42333  0.88027  1.0000
  O   O149      1.0  0.23215  0.39057  0.8358500000000001  1.0000
  O   O150      1.0  0.11114  0.25933  0.6191700000000001  1.0000
  O   O151      1.0  0.16104  0.28562  0.6608300000000001  1.0000
  O   O152      1.0  0.8689099999999998  0.21677999999999997  0.6219500000000001  1.0000
  O   O153      1.0  0.8216400000000001  0.20683  0.66659  1.0000
  O   O154      1.0  0.89517  0.20246999999999998  0.8877000000000003  1.0000
  O   O155      1.0  0.83664  0.20051  0.845  1.0000
  O   O156      1.0  0.11097  0.28331  0.8874800000000003  1.0000
  O   O157      1.0  0.17186  0.28762  0.8455800000000002  1.0000
  O   O158      1.0  0.69279  0.23075999999999997  0.9494100000000002  1.0000
  O   O159      1.0  0.79694  0.25032  0.9338400000000001  1.0000
  O   O160      1.0  0.63904  0.27819  0.04905000000000002  1.0000
  O   O161      1.0  0.65051  0.35632  0.06184  1.0000
  O   O162      1.0  0.86913  0.65236  0.04743  1.0000
  O   O163      1.0  0.7914  0.59547  0.05761  1.0000
  O   O164      1.0  0.00676  0.6374  0.95791  1.0000
  O   O165      1.0  0.0035499999999999998  0.56931  0.93222  1.0000
  O   O166      1.0  0.04373  0.69511  0.60431  1.0000
  O   O167      1.0  0.92583  0.65958  0.5584000000000001  1.0000
  O   O168      1.0  0.013379999999999998  0.60711  0.55813  1.0000
  O   O169      1.0  0.79419  0.6529  0.46033000000000013  1.0000
  O   O170      1.0  0.7982699999999999  0.58271  0.4361400000000001  1.0000
  O   O171      1.0  0.04045  0.22627999999999998  0.46027000000000007  1.0000
  O   O172      1.0  0.9665399999999998  0.27611  0.4387400000000001  1.0000
  O   O173      1.0  0.14505  0.28062  0.55263  1.0000
  O   O174      1.0  0.14449  0.35903  0.5654  1.0000
  O   O175      1.0  0.53468  0.81456  0.8973  1.0000
  O   O176      1.0  0.7507  0.15997  0.8974600000000003  1.0000
