data_image0
_chemical_formula_structural       Cu40H176C304S24N16O168
_chemical_formula_sum              "Cu40 H176 C304 S24 N16 O168"
_cell_length_a       28.07251
_cell_length_b       31.707199999999997
_cell_length_c       31.70872
_cell_angle_alpha    90.00551
_cell_angle_beta     89.99815999999998
_cell_angle_gamma    90.00275

_space_group_name_H-M_alt    "P 1"
_space_group_IT_number       1

loop_
  _space_group_symop_operation_xyz
  'x, y, z'

loop_
  _atom_site_type_symbol
  _atom_site_label
  _atom_site_symmetry_multiplicity
  _atom_site_fract_x
  _atom_site_fract_y
  _atom_site_fract_z
  _atom_site_occupancy
  Cu  Cu1       1.0  0.24508000000000005  0.02042  0.40789  1.0000
  Cu  Cu2       1.0  0.24505  0.9795800000000002  0.5921200000000002  1.0000
  Cu  Cu3       1.0  0.7449900000000003  0.59211  0.02047  1.0000
  Cu  Cu4       1.0  0.74506  0.40793  0.97958  1.0000
  Cu  Cu5       1.0  0.7549500000000002  0.4796100000000001  0.90791  1.0000
  Cu  Cu6       1.0  0.75507  0.5204  0.09216  1.0000
  Cu  Cu7       1.0  0.25496  0.9078800000000002  0.52043  1.0000
  Cu  Cu8       1.0  0.25493  0.09212000000000002  0.47959  1.0000
  Cu  Cu9       1.0  0.75491  0.9795800000000002  0.59213  1.0000
  Cu  Cu10      1.0  0.7549300000000001  0.02042  0.40787  1.0000
  Cu  Cu11      1.0  0.25504  0.40789  0.9796  1.0000
  Cu  Cu12      1.0  0.25504  0.59213  0.0204  1.0000
  Cu  Cu13      1.0  0.24501  0.5203900000000002  0.09213  1.0000
  Cu  Cu14      1.0  0.24502  0.47960000000000014  0.9078700000000002  1.0000
  Cu  Cu15      1.0  0.74506  0.09214  0.47959  1.0000
  Cu  Cu16      1.0  0.7450800000000002  0.90787  0.5204  1.0000
  Cu  Cu17      1.0  0.5  0.8349800000000003  0.18899  1.0000
  Cu  Cu18      1.0  0.50001  0.8873900000000002  0.13264  1.0000
  Cu  Cu19      1.0  0.50001  0.16503  0.8110100000000002  1.0000
  Cu  Cu20      1.0  0.5  0.11262000000000003  0.86736  1.0000
  Cu  Cu21      1.0  7.724298058745046e-21  0.8110100000000002  0.8349600000000003  1.0000
  Cu  Cu22      1.0  0.0  0.8673600000000002  0.8873800000000002  1.0000
  Cu  Cu23      1.0  1.9310745146862615e-21  0.18899000000000005  0.16504  1.0000
  Cu  Cu24      1.0  1.9310745146862615e-21  0.13264000000000006  0.11262000000000003  1.0000
  Cu  Cu25      1.0  0.4999900000000001  0.66504  0.68899  1.0000
  Cu  Cu26      1.0  0.4999900000000001  0.61262  0.63264  1.0000
  Cu  Cu27      1.0  0.5  0.3349600000000001  0.31101  1.0000
  Cu  Cu28      1.0  0.5  0.38738  0.36735  1.0000
  Cu  Cu29      1.0  0.0  0.68899  0.33498  1.0000
  Cu  Cu30      1.0  0.9999900000000002  0.6326400000000002  0.3873800000000001  1.0000
  Cu  Cu31      1.0  0.9999900000000002  0.31101  0.66503  1.0000
  Cu  Cu32      1.0  3.862149029372523e-21  0.36736000000000013  0.61262  1.0000
  Cu  Cu33      1.0  0.30147  0.9999900000000002  0.50004  1.0000
  Cu  Cu34      1.0  0.8013800000000001  0.50014  4e-05  1.0000
  Cu  Cu35      1.0  0.69844  0.4999500000000001  8e-05  1.0000
  Cu  Cu36      1.0  0.19852  0.9999800000000001  0.50001  1.0000
  Cu  Cu37      1.0  0.69856  1.0000000000000014e-05  0.4999800000000001  1.0000
  Cu  Cu38      1.0  0.19859000000000002  0.5  1e-05  1.0000
  Cu  Cu39      1.0  0.30148000000000014  0.5000100000000002  0.0  1.0000
  Cu  Cu40      1.0  0.8015000000000002  2.0000000000000022e-05  0.4999900000000001  1.0000
  H   H1        1.0  0.39366  0.8841300000000002  0.2746  1.0000
  H   H2        1.0  0.3271900000000001  0.9223900000000003  0.30962  1.0000
  H   H3        1.0  0.32499000000000006  0.011630000000000003  0.20677000000000006  1.0000
  H   H4        1.0  0.3906200000000001  0.9722900000000002  0.17185  1.0000
  H   H5        1.0  0.30569  0.9819600000000003  0.3449  1.0000
  H   H6        1.0  0.24675  0.011030000000000003  0.22275000000000006  1.0000
  H   H7        1.0  0.17945  0.04897  0.33919  1.0000
  H   H8        1.0  0.16926000000000005  0.009820000000000004  0.20219000000000006  1.0000
  H   H9        1.0  0.1081  0.04808  0.16031000000000006  1.0000
  H   H10       1.0  0.1006  0.14397  0.25564  1.0000
  H   H11       1.0  0.16236  0.10671000000000003  0.29759  1.0000
  H   H12       1.0  0.39367  0.11588000000000002  0.7254  1.0000
  H   H13       1.0  0.3271900000000001  0.07762000000000002  0.69038  1.0000
  H   H14       1.0  0.32498  0.9883700000000002  0.79323  1.0000
  H   H15       1.0  0.39061  0.02771  0.82815  1.0000
  H   H16       1.0  0.3056800000000001  0.01807  0.65509  1.0000
  H   H17       1.0  0.24675  0.9889700000000002  0.77725  1.0000
  H   H18       1.0  0.17944000000000004  0.9510400000000002  0.66082  1.0000
  H   H19       1.0  0.16925000000000007  0.9901900000000002  0.79781  1.0000
  H   H20       1.0  0.1081  0.9519200000000002  0.83969  1.0000
  H   H21       1.0  0.1006  0.8560300000000002  0.74436  1.0000
  H   H22       1.0  0.16236  0.8932900000000003  0.70242  1.0000
  H   H23       1.0  0.8936600000000002  0.7254  0.88412  1.0000
  H   H24       1.0  0.8272100000000002  0.69036  0.92237  1.0000
  H   H25       1.0  0.82499  0.7932200000000003  0.01164  1.0000
  H   H26       1.0  0.8906000000000002  0.8281500000000003  0.9723000000000003  1.0000
  H   H27       1.0  0.80564  0.65507  0.98192  1.0000
  H   H28       1.0  0.74676  0.7772400000000003  0.01105  1.0000
  H   H29       1.0  0.6794100000000002  0.6608200000000002  0.04895  1.0000
  H   H30       1.0  0.66926  0.7978000000000002  0.00982  1.0000
  H   H31       1.0  0.6080900000000001  0.8396900000000003  0.04809  1.0000
  H   H32       1.0  0.6006000000000002  0.7443700000000002  0.14397  1.0000
  H   H33       1.0  0.6623700000000002  0.70242  0.1067  1.0000
  H   H34       1.0  0.8936600000000002  0.27461  0.11588  1.0000
  H   H35       1.0  0.8272100000000002  0.3096300000000001  0.07763  1.0000
  H   H36       1.0  0.82499  0.20677000000000006  0.9883700000000002  1.0000
  H   H37       1.0  0.8906000000000002  0.17185000000000006  0.0277  1.0000
  H   H38       1.0  0.80571  0.3449300000000001  0.01804  1.0000
  H   H39       1.0  0.7467400000000002  0.22277  0.98897  1.0000
  H   H40       1.0  0.6794700000000002  0.3392000000000001  0.9510300000000003  1.0000
  H   H41       1.0  0.66926  0.20221000000000006  0.99018  1.0000
  H   H42       1.0  0.6081000000000002  0.16032000000000005  0.95191  1.0000
  H   H43       1.0  0.6006000000000002  0.25564  0.85604  1.0000
  H   H44       1.0  0.6623700000000002  0.29759000000000013  0.8933  1.0000
  H   H45       1.0  0.6063300000000003  0.6158900000000003  0.77461  1.0000
  H   H46       1.0  0.67279  0.57763  0.8096300000000002  1.0000
  H   H47       1.0  0.6750100000000002  0.48837000000000014  0.70677  1.0000
  H   H48       1.0  0.6093900000000002  0.52771  0.67184  1.0000
  H   H49       1.0  0.69428  0.51804  0.8449100000000003  1.0000
  H   H50       1.0  0.75325  0.4889700000000001  0.72276  1.0000
  H   H51       1.0  0.8205200000000002  0.4510400000000001  0.83918  1.0000
  H   H52       1.0  0.8307400000000001  0.4901900000000001  0.7022000000000003  1.0000
  H   H53       1.0  0.8919  0.45191  0.66032  1.0000
  H   H54       1.0  0.8994  0.35604000000000013  0.75563  1.0000
  H   H55       1.0  0.8376200000000003  0.3933000000000001  0.79758  1.0000
  H   H56       1.0  0.60634  0.38412000000000013  0.22539000000000006  1.0000
  H   H57       1.0  0.67279  0.42237000000000013  0.19036000000000006  1.0000
  H   H58       1.0  0.6750100000000002  0.51164  0.29322  1.0000
  H   H59       1.0  0.6093900000000002  0.4723000000000001  0.32815  1.0000
  H   H60       1.0  0.6943900000000001  0.4818900000000001  0.15509  1.0000
  H   H61       1.0  0.7532300000000002  0.51105  0.27726  1.0000
  H   H62       1.0  0.8206200000000002  0.54892  0.16085000000000005  1.0000
  H   H63       1.0  0.8307400000000001  0.5098200000000003  0.29781  1.0000
  H   H64       1.0  0.89191  0.5481  0.3396900000000001  1.0000
  H   H65       1.0  0.8994  0.6439700000000003  0.24437000000000006  1.0000
  H   H66       1.0  0.8376200000000003  0.6067000000000002  0.20243  1.0000
  H   H67       1.0  0.10634000000000002  0.7746  0.38413  1.0000
  H   H68       1.0  0.17281000000000005  0.8096300000000002  0.42238  1.0000
  H   H69       1.0  0.17501000000000005  0.70677  0.51163  1.0000
  H   H70       1.0  0.10938  0.6718500000000002  0.47229  1.0000
  H   H71       1.0  0.19432000000000005  0.84491  0.48194  1.0000
  H   H72       1.0  0.25325  0.72275  0.51104  1.0000
  H   H73       1.0  0.3205500000000001  0.8391900000000002  0.5489600000000002  1.0000
  H   H74       1.0  0.33075000000000004  0.70219  0.50982  1.0000
  H   H75       1.0  0.3919  0.6603100000000002  0.54808  1.0000
  H   H76       1.0  0.39939000000000013  0.7556400000000002  0.64397  1.0000
  H   H77       1.0  0.3376400000000001  0.79759  0.60671  1.0000
  H   H78       1.0  0.10633  0.22541000000000005  0.61587  1.0000
  H   H79       1.0  0.17281000000000005  0.19038000000000005  0.57762  1.0000
  H   H80       1.0  0.17501000000000005  0.2932300000000001  0.48837  1.0000
  H   H81       1.0  0.10938  0.32815  0.52771  1.0000
  H   H82       1.0  0.19431000000000007  0.15510000000000004  0.51805  1.0000
  H   H83       1.0  0.25326  0.27725  0.48897  1.0000
  H   H84       1.0  0.32054  0.16082000000000005  0.4510300000000001  1.0000
  H   H85       1.0  0.33074  0.29781  0.49018  1.0000
  H   H86       1.0  0.3919  0.3397000000000001  0.45192  1.0000
  H   H87       1.0  0.3994  0.24436000000000005  0.3560300000000001  1.0000
  H   H88       1.0  0.3376400000000001  0.20241  0.39329  1.0000
  H   H89       1.0  0.60634  0.11587000000000003  0.7254  1.0000
  H   H90       1.0  0.6728100000000002  0.07762000000000002  0.69038  1.0000
  H   H91       1.0  0.6750100000000002  0.9883800000000003  0.79323  1.0000
  H   H92       1.0  0.6093800000000003  0.02772000000000001  0.82815  1.0000
  H   H93       1.0  0.69431  0.018050000000000007  0.65509  1.0000
  H   H94       1.0  0.75325  0.9889800000000002  0.77725  1.0000
  H   H95       1.0  0.82054  0.9510200000000002  0.66081  1.0000
  H   H96       1.0  0.8307400000000001  0.9901900000000002  0.79781  1.0000
  H   H97       1.0  0.8919  0.9519200000000002  0.83969  1.0000
  H   H98       1.0  0.8994  0.8560300000000002  0.74436  1.0000
  H   H99       1.0  0.83764  0.8932900000000003  0.70242  1.0000
  H   H100      1.0  0.6063300000000003  0.8841300000000002  0.2746  1.0000
  H   H101      1.0  0.6728000000000001  0.9223800000000002  0.30962  1.0000
  H   H102      1.0  0.6750100000000002  0.011630000000000003  0.20677000000000006  1.0000
  H   H103      1.0  0.6093800000000003  0.9722900000000002  0.17185  1.0000
  H   H104      1.0  0.69431  0.9819400000000003  0.34491  1.0000
  H   H105      1.0  0.75325  0.011040000000000003  0.22275000000000006  1.0000
  H   H106      1.0  0.82055  0.04897  0.33918  1.0000
  H   H107      1.0  0.8307400000000001  0.009820000000000004  0.20219000000000006  1.0000
  H   H108      1.0  0.8919  0.048090000000000015  0.16031000000000006  1.0000
  H   H109      1.0  0.8994  0.14397  0.25564  1.0000
  H   H110      1.0  0.83763  0.10671000000000003  0.29759  1.0000
  H   H111      1.0  0.10635000000000003  0.2746200000000001  0.11587  1.0000
  H   H112      1.0  0.17279  0.3096700000000001  0.07761  1.0000
  H   H113      1.0  0.17502000000000006  0.2068  0.98835  1.0000
  H   H114      1.0  0.10943000000000003  0.17186000000000007  0.027690000000000006  1.0000
  H   H115      1.0  0.19452000000000005  0.34498  0.01813  1.0000
  H   H116      1.0  0.25321000000000005  0.22275  0.98893  1.0000
  H   H117      1.0  0.3207600000000001  0.3391000000000001  0.9511200000000002  1.0000
  H   H118      1.0  0.33074  0.20215000000000002  0.99017  1.0000
  H   H119      1.0  0.3919400000000001  0.16028000000000006  0.9519  1.0000
  H   H120      1.0  0.39943000000000006  0.2556100000000001  0.85603  1.0000
  H   H121      1.0  0.33763  0.29754000000000014  0.89329  1.0000
  H   H122      1.0  0.10636000000000001  0.7253800000000002  0.88413  1.0000
  H   H123      1.0  0.17279  0.69034  0.9223900000000003  1.0000
  H   H124      1.0  0.17501000000000005  0.7932100000000002  0.01165  1.0000
  H   H125      1.0  0.10943000000000003  0.8281500000000003  0.9723100000000002  1.0000
  H   H126      1.0  0.19451000000000004  0.6550300000000002  0.9818900000000003  1.0000
  H   H127      1.0  0.25322  0.77725  0.01106  1.0000
  H   H128      1.0  0.32074000000000014  0.66091  0.04889  1.0000
  H   H129      1.0  0.33074  0.7978500000000002  0.00984  1.0000
  H   H130      1.0  0.3919400000000001  0.8397200000000002  0.048110000000000014  1.0000
  H   H131      1.0  0.39942  0.7443900000000002  0.14397  1.0000
  H   H132      1.0  0.33762  0.7024600000000002  0.10671  1.0000
  H   H133      1.0  0.39364  0.38413  0.22538  1.0000
  H   H134      1.0  0.32721  0.42239  0.19033  1.0000
  H   H135      1.0  0.32498  0.5116500000000003  0.2932000000000001  1.0000
  H   H136      1.0  0.39056  0.4723100000000001  0.3281400000000001  1.0000
  H   H137      1.0  0.3055200000000001  0.4819000000000001  0.15503  1.0000
  H   H138      1.0  0.24677000000000004  0.5110600000000002  0.27724  1.0000
  H   H139      1.0  0.17929  0.54892  0.16089  1.0000
  H   H140      1.0  0.16926000000000005  0.50983  0.2978300000000001  1.0000
  H   H141      1.0  0.10807000000000003  0.5481  0.33971  1.0000
  H   H142      1.0  0.10057000000000003  0.6439700000000003  0.24439000000000005  1.0000
  H   H143      1.0  0.16236  0.60671  0.20245000000000005  1.0000
  H   H144      1.0  0.39364  0.61588  0.77462  1.0000
  H   H145      1.0  0.3272  0.5776200000000002  0.80967  1.0000
  H   H146      1.0  0.3249700000000001  0.4883500000000001  0.7068000000000002  1.0000
  H   H147      1.0  0.3905700000000001  0.52769  0.6718600000000002  1.0000
  H   H148      1.0  0.30551  0.5181200000000002  0.84497  1.0000
  H   H149      1.0  0.24678000000000003  0.4889400000000001  0.72276  1.0000
  H   H150      1.0  0.17928000000000005  0.4511000000000001  0.8391200000000002  1.0000
  H   H151      1.0  0.16926000000000005  0.4901800000000001  0.70217  1.0000
  H   H152      1.0  0.10807000000000003  0.45190000000000013  0.66029  1.0000
  H   H153      1.0  0.10058  0.3560300000000001  0.75561  1.0000
  H   H154      1.0  0.16236  0.39329  0.79755  1.0000
  H   H155      1.0  0.8936600000000002  0.22541000000000005  0.61587  1.0000
  H   H156      1.0  0.82719  0.19038000000000005  0.57762  1.0000
  H   H157      1.0  0.82499  0.2932300000000001  0.48838  1.0000
  H   H158      1.0  0.89062  0.32816  0.52771  1.0000
  H   H159      1.0  0.8056800000000002  0.15510000000000004  0.51807  1.0000
  H   H160      1.0  0.7467500000000002  0.27726  0.4889600000000001  1.0000
  H   H161      1.0  0.67944  0.16081000000000006  0.45105  1.0000
  H   H162      1.0  0.66925  0.29781  0.49018  1.0000
  H   H163      1.0  0.6081000000000002  0.33969  0.45192  1.0000
  H   H164      1.0  0.60061  0.24436000000000005  0.3560300000000001  1.0000
  H   H165      1.0  0.6623600000000002  0.20241  0.39329  1.0000
  H   H166      1.0  0.89367  0.7746  0.38413  1.0000
  H   H167      1.0  0.82719  0.8096200000000002  0.42238  1.0000
  H   H168      1.0  0.82499  0.70677  0.51163  1.0000
  H   H169      1.0  0.89062  0.6718500000000002  0.47229  1.0000
  H   H170      1.0  0.8056900000000002  0.8449000000000002  0.48194  1.0000
  H   H171      1.0  0.7467400000000002  0.72275  0.51103  1.0000
  H   H172      1.0  0.6794500000000001  0.8391900000000002  0.54897  1.0000
  H   H173      1.0  0.66925  0.7022000000000003  0.50982  1.0000
  H   H174      1.0  0.6081000000000002  0.6603100000000002  0.5480900000000002  1.0000
  H   H175      1.0  0.6006000000000002  0.7556400000000002  0.64397  1.0000
  H   H176      1.0  0.6623600000000002  0.79759  0.60671  1.0000
  C   C1        1.0  0.4348800000000001  0.9021300000000002  0.19943  1.0000
  C   C2        1.0  0.39589  0.9257000000000002  0.22096  1.0000
  C   C3        1.0  0.37821  0.9119800000000002  0.26003  1.0000
  C   C4        1.0  0.34116  0.9336700000000002  0.27962  1.0000
  C   C5        1.0  0.33927000000000007  0.9832900000000002  0.22139000000000006  1.0000
  C   C6        1.0  0.3762900000000001  0.9616700000000002  0.20186  1.0000
  C   C7        1.0  0.32099  0.9694800000000002  0.26036  1.0000
  C   C8        1.0  0.27841  0.99527  0.32461  1.0000
  C   C9        1.0  0.28115000000000007  0.9922000000000002  0.28057  1.0000
  C   C10       1.0  0.24544000000000002  0.01218  0.25703  1.0000
  C   C11       1.0  0.20819  0.03382  0.27696  1.0000
  C   C12       1.0  0.20784  0.03416000000000002  0.32118000000000013  1.0000
  C   C13       1.0  0.17063000000000006  0.05569000000000002  0.2527  1.0000
  C   C14       1.0  0.15494  0.03954000000000001  0.21374  1.0000
  C   C15       1.0  0.12046000000000003  0.060620000000000014  0.19029  1.0000
  C   C16       1.0  0.10091000000000003  0.09847000000000003  0.20534  1.0000
  C   C17       1.0  0.11604000000000003  0.11464  0.2443  1.0000
  C   C18       1.0  0.15044  0.09346000000000003  0.26774  1.0000
  C   C19       1.0  0.0641  0.12138  0.1804  1.0000
  C   C20       1.0  0.4348800000000001  0.09788  0.80057  1.0000
  C   C21       1.0  0.3959000000000001  0.0743  0.77904  1.0000
  C   C22       1.0  0.37821  0.08802000000000003  0.73997  1.0000
  C   C23       1.0  0.34116  0.06634  0.72038  1.0000
  C   C24       1.0  0.33927000000000007  0.01671  0.7786  1.0000
  C   C25       1.0  0.3762900000000001  0.03834  0.79813  1.0000
  C   C26       1.0  0.32099  0.030520000000000005  0.73964  1.0000
  C   C27       1.0  0.27840000000000004  0.004750000000000002  0.6753900000000003  1.0000
  C   C28       1.0  0.28115000000000007  0.00781  0.71943  1.0000
  C   C29       1.0  0.24544000000000002  0.98783  0.74297  1.0000
  C   C30       1.0  0.20818000000000003  0.9661800000000003  0.7230400000000002  1.0000
  C   C31       1.0  0.20782000000000006  0.9658500000000002  0.67882  1.0000
  C   C32       1.0  0.17063000000000006  0.94431  0.74731  1.0000
  C   C33       1.0  0.15493000000000007  0.9604700000000003  0.7862700000000002  1.0000
  C   C34       1.0  0.12045000000000002  0.9393800000000002  0.80972  1.0000
  C   C35       1.0  0.10091000000000003  0.9015400000000002  0.7946600000000003  1.0000
  C   C36       1.0  0.11604000000000003  0.8853600000000003  0.7557  1.0000
  C   C37       1.0  0.15044  0.9065400000000002  0.73226  1.0000
  C   C38       1.0  0.0641  0.87862  0.8196  1.0000
  C   C39       1.0  0.93487  0.8005800000000002  0.90212  1.0000
  C   C40       1.0  0.8958900000000002  0.77904  0.9257  1.0000
  C   C41       1.0  0.8782100000000002  0.7399700000000002  0.91197  1.0000
  C   C42       1.0  0.84117  0.7203700000000002  0.93366  1.0000
  C   C43       1.0  0.8392700000000002  0.7785900000000002  0.9832900000000002  1.0000
  C   C44       1.0  0.8762900000000002  0.7981300000000002  0.9616700000000002  1.0000
  C   C45       1.0  0.8209900000000001  0.73962  0.96948  1.0000
  C   C46       1.0  0.77838  0.6753700000000002  0.99524  1.0000
  C   C47       1.0  0.7811400000000002  0.7194200000000002  0.9921800000000002  1.0000
  C   C48       1.0  0.74544  0.74296  0.012180000000000003  1.0000
  C   C49       1.0  0.7081800000000003  0.7230400000000002  0.03381  1.0000
  C   C50       1.0  0.7078000000000002  0.67882  0.03414  1.0000
  C   C51       1.0  0.67063  0.7473000000000002  0.05569  1.0000
  C   C52       1.0  0.65494  0.7862600000000002  0.03954  1.0000
  C   C53       1.0  0.62046  0.8097100000000003  0.06062  1.0000
  C   C54       1.0  0.6009100000000002  0.79466  0.09847  1.0000
  C   C55       1.0  0.61604  0.7557100000000002  0.11464000000000003  1.0000
  C   C56       1.0  0.65045  0.7322700000000002  0.09346  1.0000
  C   C57       1.0  0.5641  0.8196100000000002  0.12137  1.0000
  C   C58       1.0  0.93488  0.19942000000000004  0.09788  1.0000
  C   C59       1.0  0.8959000000000003  0.22096  0.0743  1.0000
  C   C60       1.0  0.8782100000000002  0.2600300000000001  0.08803  1.0000
  C   C61       1.0  0.84117  0.27963  0.06634  1.0000
  C   C62       1.0  0.8392700000000002  0.2214  0.01671  1.0000
  C   C63       1.0  0.8762900000000002  0.20187000000000005  0.03833  1.0000
  C   C64       1.0  0.8210000000000002  0.26038  0.03052  1.0000
  C   C65       1.0  0.77843  0.32463  0.0047300000000000016  1.0000
  C   C66       1.0  0.78116  0.28059000000000006  0.0078000000000000005  1.0000
  C   C67       1.0  0.7454500000000002  0.2570500000000001  0.98782  1.0000
  C   C68       1.0  0.7082  0.27698  0.96618  1.0000
  C   C69       1.0  0.7078500000000002  0.3212000000000001  0.96584  1.0000
  C   C70       1.0  0.67064  0.25271  0.94431  1.0000
  C   C71       1.0  0.65494  0.21375  0.9604600000000002  1.0000
  C   C72       1.0  0.62046  0.1903  0.93938  1.0000
  C   C73       1.0  0.6009100000000002  0.20535000000000006  0.9015400000000001  1.0000
  C   C74       1.0  0.61604  0.24430000000000004  0.8853700000000002  1.0000
  C   C75       1.0  0.65045  0.2677400000000001  0.90655  1.0000
  C   C76       1.0  0.5641  0.1804  0.8786300000000002  1.0000
  C   C77       1.0  0.56512  0.5978800000000002  0.69942  1.0000
  C   C78       1.0  0.6041  0.5743100000000002  0.72096  1.0000
  C   C79       1.0  0.62178  0.58803  0.76003  1.0000
  C   C80       1.0  0.6588300000000002  0.56634  0.7796200000000002  1.0000
  C   C81       1.0  0.66072  0.51671  0.72139  1.0000
  C   C82       1.0  0.62371  0.53834  0.7018600000000003  1.0000
  C   C83       1.0  0.679  0.5305300000000002  0.76037  1.0000
  C   C84       1.0  0.7215600000000002  0.5047400000000002  0.82461  1.0000
  C   C85       1.0  0.7188300000000002  0.50781  0.7805700000000002  1.0000
  C   C86       1.0  0.75454  0.4878300000000001  0.7570300000000002  1.0000
  C   C87       1.0  0.7917900000000001  0.46618  0.77696  1.0000
  C   C88       1.0  0.79214  0.4658500000000001  0.82118  1.0000
  C   C89       1.0  0.8293500000000001  0.4443100000000001  0.7527  1.0000
  C   C90       1.0  0.8450600000000003  0.4604700000000001  0.71374  1.0000
  C   C91       1.0  0.8795400000000001  0.4393800000000001  0.69029  1.0000
  C   C92       1.0  0.89909  0.4015400000000001  0.70535  1.0000
  C   C93       1.0  0.8839600000000002  0.3853700000000001  0.7443  1.0000
  C   C94       1.0  0.8495400000000001  0.40655000000000013  0.76774  1.0000
  C   C95       1.0  0.9359000000000001  0.37863000000000013  0.6804  1.0000
  C   C96       1.0  0.56512  0.40212  0.30058  1.0000
  C   C97       1.0  0.6041  0.42570000000000013  0.27903  1.0000
  C   C98       1.0  0.62179  0.4119700000000001  0.23996000000000006  1.0000
  C   C99       1.0  0.6588300000000002  0.4336600000000001  0.22037000000000007  1.0000
  C   C100      1.0  0.66072  0.48329  0.2786  1.0000
  C   C101      1.0  0.62371  0.46167  0.2981300000000001  1.0000
  C   C102      1.0  0.67901  0.46948  0.23963  1.0000
  C   C103      1.0  0.7216600000000001  0.4952000000000001  0.17540000000000006  1.0000
  C   C104      1.0  0.71887  0.49217  0.21944000000000005  1.0000
  C   C105      1.0  0.7545600000000001  0.5121800000000001  0.24298  1.0000
  C   C106      1.0  0.79182  0.53381  0.22307  1.0000
  C   C107      1.0  0.7922300000000002  0.5341000000000002  0.17885  1.0000
  C   C108      1.0  0.8293600000000002  0.5557  0.24733000000000002  1.0000
  C   C109      1.0  0.8450600000000003  0.53954  0.2862800000000001  1.0000
  C   C110      1.0  0.8795500000000002  0.5606300000000002  0.3097200000000001  1.0000
  C   C111      1.0  0.89909  0.5984700000000002  0.29466  1.0000
  C   C112      1.0  0.8839600000000002  0.6146400000000002  0.2557100000000001  1.0000
  C   C113      1.0  0.8495500000000002  0.59346  0.23228  1.0000
  C   C114      1.0  0.9359100000000002  0.62138  0.3196  1.0000
  C   C115      1.0  0.06512000000000001  0.69943  0.4021300000000001  1.0000
  C   C116      1.0  0.10410000000000003  0.7209600000000003  0.42570000000000013  1.0000
  C   C117      1.0  0.12179000000000002  0.76003  0.41198  1.0000
  C   C118      1.0  0.15884000000000004  0.77962  0.43367  1.0000
  C   C119      1.0  0.16073000000000007  0.7214  0.4832900000000001  1.0000
  C   C120      1.0  0.12370000000000003  0.7018700000000002  0.46167000000000014  1.0000
  C   C121      1.0  0.17901000000000003  0.7603700000000002  0.46948  1.0000
  C   C122      1.0  0.22160000000000002  0.8246100000000002  0.49526  1.0000
  C   C123      1.0  0.21885  0.78057  0.49219  1.0000
  C   C124      1.0  0.25456  0.7570300000000002  0.51218  1.0000
  C   C125      1.0  0.2918100000000001  0.7769600000000002  0.5338200000000002  1.0000
  C   C126      1.0  0.29217  0.8211800000000002  0.53415  1.0000
  C   C127      1.0  0.3293600000000001  0.7527000000000003  0.55569  1.0000
  C   C128      1.0  0.34507  0.7137400000000003  0.53954  1.0000
  C   C129      1.0  0.3795400000000001  0.69029  0.56062  1.0000
  C   C130      1.0  0.3990900000000001  0.7053400000000002  0.59847  1.0000
  C   C131      1.0  0.38396000000000013  0.7443000000000002  0.61464  1.0000
  C   C132      1.0  0.34955  0.7677400000000002  0.59346  1.0000
  C   C133      1.0  0.4359000000000001  0.6804  0.62138  1.0000
  C   C134      1.0  0.06512000000000001  0.3005800000000001  0.59788  1.0000
  C   C135      1.0  0.10410000000000003  0.2790400000000001  0.5743000000000003  1.0000
  C   C136      1.0  0.12179000000000002  0.23997  0.58802  1.0000
  C   C137      1.0  0.15884000000000004  0.22039000000000006  0.5663400000000002  1.0000
  C   C138      1.0  0.16073000000000007  0.27861  0.51671  1.0000
  C   C139      1.0  0.12371  0.2981400000000001  0.53833  1.0000
  C   C140      1.0  0.17901000000000003  0.23964000000000005  0.53052  1.0000
  C   C141      1.0  0.22158000000000005  0.17539000000000005  0.50474  1.0000
  C   C142      1.0  0.21885  0.21944000000000005  0.50781  1.0000
  C   C143      1.0  0.25456  0.24297  0.48782  1.0000
  C   C144      1.0  0.2918100000000001  0.22304000000000004  0.46618  1.0000
  C   C145      1.0  0.29216  0.17882  0.46584  1.0000
  C   C146      1.0  0.3293600000000001  0.24730000000000005  0.44431  1.0000
  C   C147      1.0  0.34507  0.28627  0.4604600000000001  1.0000
  C   C148      1.0  0.3795400000000001  0.3097200000000001  0.43938  1.0000
  C   C149      1.0  0.3990900000000001  0.2946600000000001  0.40153  1.0000
  C   C150      1.0  0.38396000000000013  0.2557000000000001  0.38536  1.0000
  C   C151      1.0  0.34955  0.23226000000000005  0.4065400000000001  1.0000
  C   C152      1.0  0.4359000000000001  0.3196  0.37862  1.0000
  C   C153      1.0  0.56513  0.09788  0.80058  1.0000
  C   C154      1.0  0.6041  0.0743  0.77904  1.0000
  C   C155      1.0  0.62179  0.08802000000000003  0.73997  1.0000
  C   C156      1.0  0.6588400000000002  0.06634  0.72038  1.0000
  C   C157      1.0  0.66073  0.016720000000000006  0.7786  1.0000
  C   C158      1.0  0.62371  0.03834  0.79813  1.0000
  C   C159      1.0  0.67901  0.030520000000000005  0.73963  1.0000
  C   C160      1.0  0.72158  0.00473  0.6753900000000003  1.0000
  C   C161      1.0  0.71885  0.00781  0.71943  1.0000
  C   C162      1.0  0.7545600000000001  0.98783  0.74297  1.0000
  C   C163      1.0  0.7918100000000002  0.9661800000000003  0.7230400000000002  1.0000
  C   C164      1.0  0.79216  0.9658300000000002  0.67882  1.0000
  C   C165      1.0  0.8293600000000002  0.94431  0.7473  1.0000
  C   C166      1.0  0.8450600000000003  0.9604600000000002  0.7862600000000002  1.0000
  C   C167      1.0  0.8795400000000001  0.9393800000000002  0.8097100000000003  1.0000
  C   C168      1.0  0.89909  0.9015400000000002  0.7946500000000002  1.0000
  C   C169      1.0  0.8839600000000002  0.8853600000000003  0.7557  1.0000
  C   C170      1.0  0.8495500000000002  0.9065400000000002  0.73226  1.0000
  C   C171      1.0  0.9359000000000001  0.8786300000000002  0.8196  1.0000
  C   C172      1.0  0.56512  0.9021300000000002  0.19943  1.0000
  C   C173      1.0  0.6041  0.9257000000000002  0.22096  1.0000
  C   C174      1.0  0.62179  0.9119800000000002  0.26003  1.0000
  C   C175      1.0  0.6588400000000002  0.9336700000000002  0.27961  1.0000
  C   C176      1.0  0.66073  0.9832900000000002  0.22139000000000006  1.0000
  C   C177      1.0  0.62371  0.9616700000000002  0.20187  1.0000
  C   C178      1.0  0.67901  0.9694800000000002  0.26036  1.0000
  C   C179      1.0  0.72159  0.9952600000000003  0.32461  1.0000
  C   C180      1.0  0.71885  0.99219  0.28057  1.0000
  C   C181      1.0  0.7545600000000001  0.01218  0.25703  1.0000
  C   C182      1.0  0.7918100000000002  0.03382  0.27696  1.0000
  C   C183      1.0  0.7921700000000002  0.03416000000000002  0.32118000000000013  1.0000
  C   C184      1.0  0.8293600000000002  0.05569000000000002  0.2527  1.0000
  C   C185      1.0  0.8450600000000003  0.03954000000000001  0.21374  1.0000
  C   C186      1.0  0.8795400000000001  0.060620000000000014  0.19029  1.0000
  C   C187      1.0  0.89909  0.09847000000000003  0.20535  1.0000
  C   C188      1.0  0.8839600000000002  0.11464  0.2443  1.0000
  C   C189      1.0  0.8495500000000002  0.09346000000000003  0.26774  1.0000
  C   C190      1.0  0.9359100000000002  0.12138  0.18041  1.0000
  C   C191      1.0  0.06513000000000001  0.19943000000000005  0.09787  1.0000
  C   C192      1.0  0.10411000000000001  0.22098  0.07429  1.0000
  C   C193      1.0  0.12180000000000003  0.26006  0.08801  1.0000
  C   C194      1.0  0.15883000000000005  0.27966000000000013  0.06632  1.0000
  C   C195      1.0  0.16073000000000007  0.22143000000000004  0.016690000000000007  1.0000
  C   C196      1.0  0.12372000000000002  0.20189000000000004  0.03832000000000001  1.0000
  C   C197      1.0  0.17901000000000003  0.2604100000000001  0.0305  1.0000
  C   C198      1.0  0.22175000000000006  0.32463  0.004830000000000002  1.0000
  C   C199      1.0  0.21890000000000007  0.28059000000000006  0.00783  1.0000
  C   C200      1.0  0.25458  0.25703  0.98783  1.0000
  C   C201      1.0  0.29187  0.27693  0.9662  1.0000
  C   C202      1.0  0.2923400000000001  0.32115  0.96594  1.0000
  C   C203      1.0  0.32937  0.2526400000000001  0.94429  1.0000
  C   C204      1.0  0.34507  0.21368  0.9604500000000002  1.0000
  C   C205      1.0  0.3795600000000001  0.19025  0.93936  1.0000
  C   C206      1.0  0.3991  0.20532000000000006  0.90153  1.0000
  C   C207      1.0  0.38397  0.24426000000000006  0.88535  1.0000
  C   C208      1.0  0.34955  0.26769  0.90653  1.0000
  C   C209      1.0  0.43591  0.18037  0.87862  1.0000
  C   C210      1.0  0.06514  0.80057  0.90213  1.0000
  C   C211      1.0  0.10412000000000003  0.7790300000000002  0.92571  1.0000
  C   C212      1.0  0.12180000000000003  0.73995  0.91199  1.0000
  C   C213      1.0  0.15883000000000005  0.72035  0.93368  1.0000
  C   C214      1.0  0.16073000000000007  0.7785700000000002  0.98331  1.0000
  C   C215      1.0  0.12372000000000002  0.79812  0.96168  1.0000
  C   C216      1.0  0.17902  0.7396000000000003  0.9695  1.0000
  C   C217      1.0  0.22174000000000005  0.67538  0.99519  1.0000
  C   C218      1.0  0.21890000000000007  0.7194200000000002  0.99217  1.0000
  C   C219      1.0  0.25458  0.7429700000000002  0.012180000000000003  1.0000
  C   C220      1.0  0.2918600000000001  0.72308  0.0338  1.0000
  C   C221      1.0  0.29233  0.6788600000000002  0.03408  1.0000
  C   C222      1.0  0.32937  0.7473600000000002  0.055710000000000016  1.0000
  C   C223      1.0  0.34507  0.7863200000000002  0.03956  1.0000
  C   C224      1.0  0.3795600000000001  0.8097500000000002  0.06064  1.0000
  C   C225      1.0  0.3991  0.7946900000000002  0.09847  1.0000
  C   C226      1.0  0.38397  0.7557400000000002  0.11465000000000003  1.0000
  C   C227      1.0  0.34955  0.7323100000000001  0.09347  1.0000
  C   C228      1.0  0.43591  0.81963  0.12138  1.0000
  C   C229      1.0  0.43486  0.4021300000000001  0.30057  1.0000
  C   C230      1.0  0.3958800000000001  0.4257100000000001  0.2790200000000001  1.0000
  C   C231      1.0  0.3782000000000001  0.41199000000000013  0.23994000000000004  1.0000
  C   C232      1.0  0.34116  0.4336800000000001  0.22034  1.0000
  C   C233      1.0  0.33926  0.48331000000000013  0.27857  1.0000
  C   C234      1.0  0.3762700000000001  0.4616800000000001  0.29811  1.0000
  C   C235      1.0  0.32099  0.4695000000000001  0.23959000000000005  1.0000
  C   C236      1.0  0.27828  0.49519  0.17537  1.0000
  C   C237      1.0  0.2811100000000001  0.4921800000000001  0.21941  1.0000
  C   C238      1.0  0.24542000000000005  0.5121800000000001  0.24297  1.0000
  C   C239      1.0  0.20814000000000002  0.53381  0.22307  1.0000
  C   C240      1.0  0.20770000000000005  0.53409  0.17885  1.0000
  C   C241      1.0  0.17063000000000006  0.5557100000000003  0.24734  1.0000
  C   C242      1.0  0.15493000000000007  0.5395500000000002  0.2863  1.0000
  C   C243      1.0  0.12044000000000003  0.56064  0.30974  1.0000
  C   C244      1.0  0.1009  0.59848  0.29468  1.0000
  C   C245      1.0  0.11603000000000001  0.6146500000000003  0.25573  1.0000
  C   C246      1.0  0.15044  0.5934700000000003  0.2323  1.0000
  C   C247      1.0  0.06409  0.62138  0.31963  1.0000
  C   C248      1.0  0.43486  0.59787  0.6994300000000002  1.0000
  C   C249      1.0  0.3958800000000001  0.5743  0.7209800000000002  1.0000
  C   C250      1.0  0.3782000000000001  0.5880200000000002  0.7600600000000002  1.0000
  C   C251      1.0  0.34116  0.56632  0.77966  1.0000
  C   C252      1.0  0.33926  0.5166900000000001  0.72143  1.0000
  C   C253      1.0  0.3762700000000001  0.53832  0.70189  1.0000
  C   C254      1.0  0.32099  0.5305100000000003  0.7604100000000003  1.0000
  C   C255      1.0  0.2782700000000001  0.5048200000000003  0.82463  1.0000
  C   C256      1.0  0.2811100000000001  0.5078300000000002  0.78059  1.0000
  C   C257      1.0  0.24542000000000005  0.4878300000000001  0.7570300000000002  1.0000
  C   C258      1.0  0.20814000000000002  0.4662000000000001  0.7769300000000002  1.0000
  C   C259      1.0  0.20768  0.4659300000000001  0.82116  1.0000
  C   C260      1.0  0.17063000000000006  0.4443000000000001  0.75266  1.0000
  C   C261      1.0  0.15493000000000007  0.46045000000000014  0.7137000000000002  1.0000
  C   C262      1.0  0.12045000000000002  0.4393700000000001  0.69026  1.0000
  C   C263      1.0  0.1009  0.4015300000000001  0.7053200000000002  1.0000
  C   C264      1.0  0.11603000000000001  0.38535000000000014  0.74427  1.0000
  C   C265      1.0  0.15044  0.4065300000000001  0.7677  1.0000
  C   C266      1.0  0.06409  0.3786200000000001  0.68038  1.0000
  C   C267      1.0  0.93487  0.3005800000000001  0.59788  1.0000
  C   C268      1.0  0.8959000000000003  0.2790400000000001  0.5743000000000003  1.0000
  C   C269      1.0  0.8782100000000002  0.23997  0.58802  1.0000
  C   C270      1.0  0.84116  0.22039000000000006  0.5663400000000002  1.0000
  C   C271      1.0  0.8392700000000002  0.27861  0.51672  1.0000
  C   C272      1.0  0.8763000000000002  0.2981400000000001  0.53834  1.0000
  C   C273      1.0  0.8209900000000001  0.23964000000000005  0.5305300000000002  1.0000
  C   C274      1.0  0.7784000000000002  0.1754  0.50475  1.0000
  C   C275      1.0  0.7811500000000002  0.21944000000000005  0.50781  1.0000
  C   C276      1.0  0.74544  0.24297  0.4878300000000001  1.0000
  C   C277      1.0  0.70819  0.22304000000000004  0.46618  1.0000
  C   C278      1.0  0.70783  0.17882  0.46585  1.0000
  C   C279      1.0  0.67064  0.24730000000000005  0.44431  1.0000
  C   C280      1.0  0.6549300000000002  0.28627  0.4604600000000001  1.0000
  C   C281      1.0  0.62046  0.30971  0.43938  1.0000
  C   C282      1.0  0.6009100000000002  0.29465  0.40153  1.0000
  C   C283      1.0  0.61604  0.2557000000000001  0.38536  1.0000
  C   C284      1.0  0.65045  0.23226000000000005  0.4065400000000001  1.0000
  C   C285      1.0  0.5640900000000001  0.3196  0.37862  1.0000
  C   C286      1.0  0.93487  0.69943  0.40212  1.0000
  C   C287      1.0  0.8959000000000003  0.7209600000000003  0.42570000000000013  1.0000
  C   C288      1.0  0.8782100000000002  0.76003  0.41198  1.0000
  C   C289      1.0  0.84116  0.77962  0.43366  1.0000
  C   C290      1.0  0.8392700000000002  0.7214  0.4832900000000001  1.0000
  C   C291      1.0  0.8762900000000002  0.7018700000000002  0.46167000000000014  1.0000
  C   C292      1.0  0.8209900000000001  0.76036  0.46948  1.0000
  C   C293      1.0  0.7784100000000003  0.8246100000000002  0.49526  1.0000
  C   C294      1.0  0.7811500000000002  0.7805600000000003  0.49219  1.0000
  C   C295      1.0  0.74544  0.7570300000000002  0.51218  1.0000
  C   C296      1.0  0.70819  0.7769600000000002  0.5338200000000002  1.0000
  C   C297      1.0  0.7078400000000001  0.8211800000000002  0.53416  1.0000
  C   C298      1.0  0.67063  0.7527000000000003  0.55569  1.0000
  C   C299      1.0  0.6549300000000002  0.7137400000000003  0.53954  1.0000
  C   C300      1.0  0.62045  0.69029  0.56062  1.0000
  C   C301      1.0  0.6009100000000002  0.70535  0.59847  1.0000
  C   C302      1.0  0.61604  0.7443000000000002  0.61464  1.0000
  C   C303      1.0  0.65045  0.7677400000000002  0.59346  1.0000
  C   C304      1.0  0.5640900000000001  0.6804100000000002  0.62138  1.0000
  S   S1        1.0  0.34433  0.055430000000000014  0.43232  1.0000
  S   S2        1.0  0.3443100000000001  0.9445700000000002  0.56778  1.0000
  S   S3        1.0  0.8442900000000001  0.56785  0.05541  1.0000
  S   S4        1.0  0.84432  0.4324600000000001  0.9446  1.0000
  S   S5        1.0  0.6557  0.44461  0.9321800000000002  1.0000
  S   S6        1.0  0.65571  0.5553500000000002  0.06794  1.0000
  S   S7        1.0  0.15569  0.93223  0.55543  1.0000
  S   S8        1.0  0.15567000000000006  0.06772  0.44458  1.0000
  S   S9        1.0  0.6556700000000002  0.9445700000000002  0.56765  1.0000
  S   S10       1.0  0.6556800000000003  0.055430000000000014  0.43229  1.0000
  S   S11       1.0  0.15571  0.43214000000000014  0.94466  1.0000
  S   S12       1.0  0.1557  0.5678600000000003  0.05534  1.0000
  S   S13       1.0  0.34433  0.5553300000000002  0.06787  1.0000
  S   S14       1.0  0.34433  0.44468000000000013  0.93213  1.0000
  S   S15       1.0  0.84432  0.06776000000000003  0.44457  1.0000
  S   S16       1.0  0.84433  0.9322900000000002  0.55542  1.0000
  S   S17       1.0  0.25  0.9199100000000002  0.41991  1.0000
  S   S18       1.0  0.25  0.08009  0.5800900000000002  1.0000
  S   S19       1.0  0.7499500000000001  0.5801  0.91994  1.0000
  S   S20       1.0  0.7499700000000002  0.4199200000000001  0.08009000000000002  1.0000
  S   S21       1.0  0.7500000000000001  0.08011  0.58008  1.0000
  S   S22       1.0  0.7500100000000002  0.9199200000000002  0.4199000000000001  1.0000
  S   S23       1.0  0.25001000000000007  0.4199200000000001  0.08009000000000002  1.0000
  S   S24       1.0  0.24998  0.5800900000000002  0.91993  1.0000
  N   N1        1.0  0.24250000000000005  0.01562  0.34391  1.0000
  N   N2        1.0  0.24248000000000003  0.9844100000000002  0.6561  1.0000
  N   N3        1.0  0.7424500000000002  0.6560800000000002  0.015580000000000004  1.0000
  N   N4        1.0  0.7425100000000002  0.3439300000000001  0.98438  1.0000
  N   N5        1.0  0.75749  0.4844000000000001  0.8439  1.0000
  N   N6        1.0  0.7576100000000001  0.5155200000000002  0.15611  1.0000
  N   N7        1.0  0.25752  0.84391  0.5156  1.0000
  N   N8        1.0  0.2575  0.15609000000000006  0.48439  1.0000
  N   N9        1.0  0.7575000000000001  0.9843800000000003  0.65609  1.0000
  N   N10       1.0  0.7575100000000002  0.015610000000000004  0.34391  1.0000
  N   N11       1.0  0.25773  0.3439000000000001  0.98452  1.0000
  N   N12       1.0  0.25771000000000005  0.6561000000000002  0.01549  1.0000
  N   N13       1.0  0.24231000000000005  0.5155000000000002  0.1561  1.0000
  N   N14       1.0  0.24230000000000004  0.4845200000000001  0.8439  1.0000
  N   N15       1.0  0.74249  0.15610000000000004  0.48441  1.0000
  N   N16       1.0  0.7425  0.84391  0.51561  1.0000
  O   O1        1.0  0.04958  0.15662  0.19542000000000007  1.0000
  O   O2        1.0  0.04992000000000001  0.10412000000000003  0.14604000000000006  1.0000
  O   O3        1.0  0.45008  0.86848  0.21723  1.0000
  O   O4        1.0  0.45002  0.9172000000000002  0.16438  1.0000
  O   O5        1.0  0.31379  0.03256  0.39991  1.0000
  O   O6        1.0  0.35234000000000004  0.02558  0.4696700000000001  1.0000
  O   O7        1.0  0.31674  0.09365  0.4479200000000001  1.0000
  O   O8        1.0  0.39011000000000007  0.06703000000000003  0.41469  1.0000
  O   O9        1.0  0.22091000000000005  0.9608500000000002  0.41901  1.0000
  O   O10       1.0  0.2852  0.9187600000000002  0.38540000000000013  1.0000
  O   O11       1.0  0.04957  0.8433900000000002  0.80458  1.0000
  O   O12       1.0  0.04992000000000001  0.8958800000000002  0.85396  1.0000
  O   O13       1.0  0.45008  0.13152  0.78277  1.0000
  O   O14       1.0  0.45002  0.08280000000000003  0.83562  1.0000
  O   O15       1.0  0.31373  0.9674500000000003  0.60014  1.0000
  O   O16       1.0  0.35236  0.9744600000000002  0.53048  1.0000
  O   O17       1.0  0.31675  0.9063500000000002  0.55211  1.0000
  O   O18       1.0  0.39007  0.93297  0.58542  1.0000
  O   O19       1.0  0.22091000000000005  0.03915  0.58099  1.0000
  O   O20       1.0  0.2851900000000001  0.08124  0.61461  1.0000
  O   O21       1.0  0.5495700000000001  0.8045900000000002  0.15661000000000005  1.0000
  O   O22       1.0  0.5499200000000001  0.8539600000000003  0.10412000000000003  1.0000
  O   O23       1.0  0.9500700000000002  0.7827900000000002  0.86847  1.0000
  O   O24       1.0  0.9500100000000002  0.83563  0.9172000000000002  1.0000
  O   O25       1.0  0.8136700000000002  0.60018  0.03257  1.0000
  O   O26       1.0  0.85231  0.5305600000000003  0.0255  1.0000
  O   O27       1.0  0.8168  0.5521400000000002  0.09366  1.0000
  O   O28       1.0  0.89008  0.58546  0.06696  1.0000
  O   O29       1.0  0.72091  0.5809800000000003  0.9608900000000002  1.0000
  O   O30       1.0  0.7851700000000003  0.6146000000000003  0.9187600000000002  1.0000
  O   O31       1.0  0.5495700000000001  0.19542000000000007  0.8434  1.0000
  O   O32       1.0  0.5499200000000001  0.14604  0.89588  1.0000
  O   O33       1.0  0.95008  0.21721000000000004  0.13153000000000006  1.0000
  O   O34       1.0  0.9500200000000002  0.16437000000000004  0.0828  1.0000
  O   O35       1.0  0.81384  0.39999  0.96743  1.0000
  O   O36       1.0  0.8522400000000002  0.4699300000000001  0.9743800000000002  1.0000
  O   O37       1.0  0.8167100000000003  0.4479500000000001  0.90634  1.0000
  O   O38       1.0  0.8901700000000002  0.4149600000000001  0.9330300000000002  1.0000
  O   O39       1.0  0.7209  0.4190100000000001  0.03915  1.0000
  O   O40       1.0  0.7852000000000001  0.3854200000000001  0.08122  1.0000
  O   O41       1.0  0.9504300000000002  0.3434  0.69542  1.0000
  O   O42       1.0  0.95008  0.3958800000000001  0.64604  1.0000
  O   O43       1.0  0.5499200000000001  0.6315400000000002  0.71722  1.0000
  O   O44       1.0  0.54998  0.5828000000000002  0.66438  1.0000
  O   O45       1.0  0.68633  0.4675100000000001  0.89985  1.0000
  O   O46       1.0  0.6475900000000002  0.4745200000000001  0.96942  1.0000
  O   O47       1.0  0.6832500000000001  0.4063900000000001  0.94789  1.0000
  O   O48       1.0  0.60999  0.43294  0.91447  1.0000
  O   O49       1.0  0.77908  0.5391700000000003  0.9190100000000002  1.0000
  O   O50       1.0  0.71478  0.5812200000000002  0.88541  1.0000
  O   O51       1.0  0.9504300000000002  0.6566100000000002  0.30459  1.0000
  O   O52       1.0  0.95008  0.6041200000000002  0.3539600000000001  1.0000
  O   O53       1.0  0.5499200000000001  0.36847  0.2827800000000001  1.0000
  O   O54       1.0  0.54998  0.4172000000000001  0.3356200000000001  1.0000
  O   O55       1.0  0.6863600000000002  0.53261  0.10033  1.0000
  O   O56       1.0  0.64766  0.52524  0.03085  1.0000
  O   O57       1.0  0.6832500000000001  0.59356  0.05216  1.0000
  O   O58       1.0  0.60994  0.56704  0.08548  1.0000
  O   O59       1.0  0.7790900000000001  0.4608500000000001  0.08098  1.0000
  O   O60       1.0  0.7148100000000002  0.4187500000000001  0.11463000000000002  1.0000
  O   O61       1.0  0.45042  0.69541  0.65662  1.0000
  O   O62       1.0  0.45008  0.6460400000000002  0.60412  1.0000
  O   O63       1.0  0.04992000000000001  0.7172300000000003  0.36848  1.0000
  O   O64       1.0  0.04998000000000001  0.6643800000000002  0.4172  1.0000
  O   O65       1.0  0.18627000000000005  0.8998600000000002  0.53256  1.0000
  O   O66       1.0  0.14764  0.9695200000000003  0.52555  1.0000
  O   O67       1.0  0.18325  0.9479  0.59365  1.0000
  O   O68       1.0  0.10993000000000003  0.9145800000000002  0.56705  1.0000
  O   O69       1.0  0.27908  0.9190200000000002  0.4608500000000001  1.0000
  O   O70       1.0  0.21480000000000005  0.8853900000000002  0.41876  1.0000
  O   O71       1.0  0.45042  0.30458  0.34339  1.0000
  O   O72       1.0  0.45008  0.3539700000000001  0.39588  1.0000
  O   O73       1.0  0.04992000000000001  0.28278  0.63152  1.0000
  O   O74       1.0  0.04998000000000001  0.3356200000000001  0.5828  1.0000
  O   O75       1.0  0.18624  0.10012000000000003  0.46744  1.0000
  O   O76       1.0  0.14765  0.030390000000000007  0.47443000000000013  1.0000
  O   O77       1.0  0.18326000000000006  0.05209  0.40635  1.0000
  O   O78       1.0  0.10991000000000002  0.08536000000000003  0.43297  1.0000
  O   O79       1.0  0.27908  0.08099000000000003  0.53915  1.0000
  O   O80       1.0  0.21479000000000006  0.11460000000000002  0.58124  1.0000
  O   O81       1.0  0.9504300000000002  0.8433900000000002  0.80458  1.0000
  O   O82       1.0  0.95008  0.8958800000000002  0.85396  1.0000
  O   O83       1.0  0.54993  0.13153000000000006  0.78278  1.0000
  O   O84       1.0  0.54999  0.08280000000000003  0.83562  1.0000
  O   O85       1.0  0.68617  0.9674500000000003  0.6000700000000002  1.0000
  O   O86       1.0  0.64767  0.9744100000000002  0.5302800000000002  1.0000
  O   O87       1.0  0.6832700000000003  0.90634  0.55208  1.0000
  O   O88       1.0  0.6098700000000002  0.93297  0.58523  1.0000
  O   O89       1.0  0.77907  0.03915  0.581  1.0000
  O   O90       1.0  0.7148100000000002  0.08124  0.6146000000000003  1.0000
  O   O91       1.0  0.9504400000000002  0.15661000000000005  0.19543  1.0000
  O   O92       1.0  0.95008  0.10413000000000003  0.14604000000000006  1.0000
  O   O93       1.0  0.5499200000000001  0.86848  0.21722  1.0000
  O   O94       1.0  0.54998  0.9172000000000002  0.16438  1.0000
  O   O95       1.0  0.6862200000000003  0.03256  0.3999  1.0000
  O   O96       1.0  0.64766  0.02558  0.46964  1.0000
  O   O97       1.0  0.6832600000000002  0.09366  0.4479200000000001  1.0000
  O   O98       1.0  0.6099100000000002  0.06703000000000003  0.41468  1.0000
  O   O99       1.0  0.77907  0.9608600000000003  0.41901  1.0000
  O   O100      1.0  0.71479  0.9187300000000003  0.38540000000000013  1.0000
  O   O101      1.0  0.45042  0.19537  0.84338  1.0000
  O   O102      1.0  0.4500900000000001  0.14602  0.89589  1.0000
  O   O103      1.0  0.049930000000000016  0.21723000000000006  0.13152  1.0000
  O   O104      1.0  0.049990000000000014  0.16438  0.0828  1.0000
  O   O105      1.0  0.18635000000000004  0.39971  0.96734  1.0000
  O   O106      1.0  0.14774000000000007  0.4692900000000001  0.97476  1.0000
  O   O107      1.0  0.1832  0.44790000000000013  0.90644  1.0000
  O   O108      1.0  0.10987000000000002  0.4146400000000001  0.93308  1.0000
  O   O109      1.0  0.27912  0.4190100000000001  0.03916  1.0000
  O   O110      1.0  0.21486  0.3853700000000001  0.08116000000000002  1.0000
  O   O111      1.0  0.45042  0.80462  0.15662  1.0000
  O   O112      1.0  0.4500900000000001  0.85398  0.10411000000000002  1.0000
  O   O113      1.0  0.049930000000000016  0.78278  0.86848  1.0000
  O   O114      1.0  0.049990000000000014  0.8356200000000003  0.9172100000000002  1.0000
  O   O115      1.0  0.18635000000000004  0.6003000000000002  0.03266  1.0000
  O   O116      1.0  0.14774000000000007  0.5307  0.02525  1.0000
  O   O117      1.0  0.18319000000000005  0.5520900000000002  0.09356000000000003  1.0000
  O   O118      1.0  0.10986  0.58535  0.06692  1.0000
  O   O119      1.0  0.27907000000000004  0.5809600000000003  0.96085  1.0000
  O   O120      1.0  0.21477000000000004  0.61461  0.91879  1.0000
  O   O121      1.0  0.04958  0.6566200000000002  0.30463  1.0000
  O   O122      1.0  0.04991000000000002  0.60411  0.35398  1.0000
  O   O123      1.0  0.45007000000000014  0.3684800000000001  0.28277  1.0000
  O   O124      1.0  0.45  0.41721000000000014  0.33561  1.0000
  O   O125      1.0  0.31368  0.53266  0.10032  1.0000
  O   O126      1.0  0.35232000000000013  0.5252300000000002  0.03075  1.0000
  O   O127      1.0  0.31681  0.59354  0.05211000000000001  1.0000
  O   O128      1.0  0.39015  0.5669200000000002  0.08538  1.0000
  O   O129      1.0  0.22093000000000002  0.4608600000000001  0.08097  1.0000
  O   O130      1.0  0.28518  0.4188300000000001  0.11464000000000003  1.0000
  O   O131      1.0  0.04958  0.34338000000000013  0.6953800000000002  1.0000
  O   O132      1.0  0.04991000000000002  0.39589  0.64603  1.0000
  O   O133      1.0  0.45007000000000014  0.63153  0.71723  1.0000
  O   O134      1.0  0.45  0.5828000000000002  0.66439  1.0000
  O   O135      1.0  0.31368  0.4673500000000001  0.89968  1.0000
  O   O136      1.0  0.35232000000000013  0.47477000000000014  0.9692600000000002  1.0000
  O   O137      1.0  0.31680000000000014  0.4064600000000001  0.94789  1.0000
  O   O138      1.0  0.3901400000000001  0.43308  0.9146100000000003  1.0000
  O   O139      1.0  0.22087000000000007  0.5391500000000002  0.9190200000000002  1.0000
  O   O140      1.0  0.28508000000000006  0.5811900000000002  0.88534  1.0000
  O   O141      1.0  0.5495700000000001  0.3045700000000001  0.34339  1.0000
  O   O142      1.0  0.5499200000000001  0.35396  0.39588  1.0000
  O   O143      1.0  0.9500700000000002  0.28278  0.63153  1.0000
  O   O144      1.0  0.9500200000000002  0.3356300000000001  0.5828  1.0000
  O   O145      1.0  0.81374  0.10012000000000003  0.46745  1.0000
  O   O146      1.0  0.85238  0.03047  0.47445  1.0000
  O   O147      1.0  0.81675  0.05211000000000001  0.40635  1.0000
  O   O148      1.0  0.89008  0.0854  0.4329600000000001  1.0000
  O   O149      1.0  0.72094  0.08099000000000003  0.53913  1.0000
  O   O150      1.0  0.7852100000000002  0.11462000000000003  0.58127  1.0000
  O   O151      1.0  0.54956  0.69543  0.65661  1.0000
  O   O152      1.0  0.5499200000000001  0.6460400000000002  0.60412  1.0000
  O   O153      1.0  0.9500700000000002  0.7172300000000003  0.36847  1.0000
  O   O154      1.0  0.9500100000000002  0.6643800000000002  0.4172  1.0000
  O   O155      1.0  0.8137700000000002  0.8999000000000003  0.53255  1.0000
  O   O156      1.0  0.85237  0.96961  0.52557  1.0000
  O   O157      1.0  0.8167200000000002  0.9479  0.59364  1.0000
  O   O158      1.0  0.89009  0.9146400000000002  0.5670300000000003  1.0000
  O   O159      1.0  0.7209200000000002  0.9190200000000002  0.4608500000000001  1.0000
  O   O160      1.0  0.78519  0.8853900000000002  0.41872  1.0000
  O   O161      1.0  0.25  0.02874000000000001  0.47127000000000013  1.0000
  O   O162      1.0  0.25  0.9712400000000002  0.52876  1.0000
  O   O163      1.0  0.74999  0.5287700000000002  0.02881  1.0000
  O   O164      1.0  0.74999  0.4713200000000001  0.9713  1.0000
  O   O165      1.0  0.74998  0.9712600000000002  0.52874  1.0000
  O   O166      1.0  0.74999  0.028770000000000007  0.47125  1.0000
  O   O167      1.0  0.25001000000000007  0.4712600000000001  0.97124  1.0000
  O   O168      1.0  0.25002  0.5287500000000003  0.028760000000000008  1.0000
