data_image0
_chemical_formula_structural       Mn24H264C312N64O72
_chemical_formula_sum              "Mn24 H264 C312 N64 O72"
_cell_length_a       17.86366
_cell_length_b       29.86264
_cell_length_c       29.83803
_cell_angle_alpha    84.82511
_cell_angle_beta     72.59524999999998
_cell_angle_gamma    72.62793

_symmetry_space_group_name_H-M    'P 1'
_symmetry_Int_Tables_number       1

loop_
  _symmetry_equiv_pos_as_xyz
  'x,y,z'

loop_
  _atom_site_type_symbol
  _atom_site_label
  _atom_site_symmetry_multiplicity
  _atom_site_fract_x
  _atom_site_fract_y
  _atom_site_fract_z
  _atom_site_occupancy
  Mn  Mn1       1.0  0.56706  0.08602999999999997  0.35754  1.0000
  Mn  Mn2       1.0  0.2990300000000001  0.11563999999999999  0.46572  1.0000
  Mn  Mn3       1.0  0.21536000000000025  0.9961999999999998  0.5748499999999998  1.0000
  Mn  Mn4       1.0  0.009990000000000006  0.41396  0.14246  1.0000
  Mn  Mn5       1.0  0.88015  0.38369999999999993  0.03409999999999999  1.0000
  Mn  Mn6       1.0  0.7862299999999998  0.50372  0.92512  1.0000
  Mn  Mn7       1.0  0.1523600000000002  0.3577599999999999  0.4138899999999999  1.0000
  Mn  Mn8       1.0  0.9144100000000001  0.4658099999999999  0.3833699999999999  1.0000
  Mn  Mn9       1.0  0.71171  0.57479  0.5035  1.0000
  Mn  Mn10      1.0  0.9236600000000001  0.14245  0.08603  1.0000
  Mn  Mn11      1.0  0.76445  0.03391  0.11606  1.0000
  Mn  Mn12      1.0  0.7908  0.9247999999999997  0.9962799999999998  1.0000
  Mn  Mn13      1.0  0.43293999999999994  0.91397  0.64246  1.0000
  Mn  Mn14      1.0  0.70097  0.88436  0.53428  1.0000
  Mn  Mn15      1.0  0.78464  0.0038099999999999996  0.42515  1.0000
  Mn  Mn16      1.0  0.9900100000000002  0.58604  0.85754  1.0000
  Mn  Mn17      1.0  0.1198400000000002  0.6162999999999997  0.9659  1.0000
  Mn  Mn18      1.0  0.21376000000000003  0.49628  0.07488  1.0000
  Mn  Mn19      1.0  0.8476300000000001  0.64224  0.58611  1.0000
  Mn  Mn20      1.0  0.08559000000000007  0.53419  0.61663  1.0000
  Mn  Mn21      1.0  0.28827999999999987  0.42521  0.4965  1.0000
  Mn  Mn22      1.0  0.07634000000000002  0.85755  0.9139699999999997  1.0000
  Mn  Mn23      1.0  0.23554000000000003  0.9660899999999998  0.88394  1.0000
  Mn  Mn24      1.0  0.2092  0.07521  0.0037199999999999993  1.0000
  H   H1        1.0  0.32987000000000005  0.24821999999999994  0.40919  1.0000
  H   H2        1.0  0.3715700000000001  0.3142599999999999  0.3641999999999999  1.0000
  H   H3        1.0  0.5130100000000001  0.29966  0.3081899999999999  1.0000
  H   H4        1.0  0.60846  0.21837999999999994  0.29786  1.0000
  H   H5        1.0  0.48691999999999985  0.97902  0.4621999999999999  1.0000
  H   H6        1.0  0.38151000000000007  0.00773  0.4679099999999999  1.0000
  H   H7        1.0  0.4439299999999999  0.97165  0.4181199999999999  1.0000
  H   H8        1.0  0.02320000000000006  0.65804  0.57176  1.0000
  H   H9        1.0  0.08957000000000008  0.7219299999999997  0.55883  1.0000
  H   H10       1.0  0.8489099999999999  0.82052  0.57868  1.0000
  H   H11       1.0  0.7931200000000002  0.7525299999999998  0.5895599999999998  1.0000
  H   H12       1.0  0.05230000000000003  0.8158599999999998  0.52329  1.0000
  H   H13       1.0  0.9632300000000003  0.85117  0.5623399999999997  1.0000
  H   H14       1.0  0.09526000000000003  0.013499999999999996  0.46798  1.0000
  H   H15       1.0  0.05379999999999999  0.02533  0.39396  1.0000
  H   H16       1.0  0.10967  0.07842  0.33192999999999995  1.0000
  H   H17       1.0  0.20403999999999997  0.11976999999999997  0.34509  1.0000
  H   H18       1.0  0.29676000000000013  0.11501999999999997  0.6178199999999998  1.0000
  H   H19       1.0  0.29393  0.05524999999999999  0.62353  1.0000
  H   H20       1.0  0.38698  0.06905  0.59416  1.0000
  H   H21       1.0  0.76895  0.01149  0.24679999999999994  1.0000
  H   H22       1.0  0.8993099999999999  0.96467  0.19418  1.0000
  H   H23       1.0  0.015400000000000002  0.92333  0.22792999999999994  1.0000
  H   H24       1.0  0.9963699999999999  0.92822  0.31371  1.0000
  H   H25       1.0  0.5396600000000001  0.13658  0.4573399999999999  1.0000
  H   H26       1.0  0.58348  0.12235  0.50542  1.0000
  H   H27       1.0  0.5169600000000001  0.09169  0.4976199999999999  1.0000
  H   H28       1.0  0.1255500000000001  0.9363299999999999  0.65456  1.0000
  H   H29       1.0  0.07066000000000021  0.8675  0.6645099999999998  1.0000
  H   H30       1.0  0.12486999999999997  0.86395  0.51347  1.0000
  H   H31       1.0  0.1775200000000001  0.93307  0.51003  1.0000
  H   H32       1.0  0.020840000000000122  0.81624  0.6305099999999998  1.0000
  H   H33       1.0  0.1117300000000001  0.78538  0.58989  1.0000
  H   H34       1.0  0.98738  0.25138  0.09045  1.0000
  H   H35       1.0  0.050199999999999995  0.18543  0.13550999999999996  1.0000
  H   H36       1.0  0.12036000000000002  0.20025999999999994  0.19179999999999994  1.0000
  H   H37       1.0  0.12328  0.28168  0.20248  1.0000
  H   H38       1.0  0.9285599999999999  0.5207199999999998  0.03765  1.0000
  H   H39       1.0  0.8574700000000001  0.49220999999999987  0.03162  1.0000
  H   H40       1.0  0.8338699999999999  0.52815  0.08154999999999997  1.0000
  H   H41       1.0  0.2531300000000001  0.8421199999999998  0.9283899999999998  1.0000
  H   H42       1.0  0.37054999999999993  0.77824  0.94123  1.0000
  H   H43       1.0  0.2484100000000002  0.6795699999999998  0.9212199999999998  1.0000
  H   H44       1.0  0.13537000000000005  0.74756  0.91047  1.0000
  H   H45       1.0  0.3915000000000002  0.6843  0.9767099999999997  1.0000
  H   H46       1.0  0.37665000000000004  0.6489799999999998  0.9377  1.0000
  H   H47       1.0  0.5768200000000001  0.48644  0.03222  1.0000
  H   H48       1.0  0.47315000000000007  0.47453999999999996  0.10617999999999998  1.0000
  H   H49       1.0  0.5201400000000002  0.4215799999999999  0.16823999999999995  1.0000
  H   H50       1.0  0.66883  0.3800899999999999  0.155  1.0000
  H   H51       1.0  0.02944999999999999  0.38491  0.88186  1.0000
  H   H52       1.0  0.9722300000000001  0.4447  0.8767  1.0000
  H   H53       1.0  0.049750000000000086  0.4307499999999999  0.906  1.0000
  H   H54       1.0  0.02785000000000003  0.4881299999999999  0.25302  1.0000
  H   H55       1.0  0.05793000000000014  0.5352699999999999  0.30577  1.0000
  H   H56       1.0  0.16610000000000005  0.57689  0.27223  1.0000
  H   H57       1.0  0.2383700000000001  0.5718899999999998  0.18655999999999995  1.0000
  H   H58       1.0  0.13446000000000002  0.3633  0.04238999999999998  1.0000
  H   H59       1.0  0.21201999999999993  0.37776  0.99435  1.0000
  H   H60       1.0  0.10709000000000002  0.40821  0.00207  1.0000
  H   H61       1.0  0.7162900000000003  0.5636  0.8455699999999998  1.0000
  H   H62       1.0  0.6025999999999999  0.6323799999999998  0.83552  1.0000
  H   H63       1.0  0.5020200000000001  0.63602  0.98652  1.0000
  H   H64       1.0  0.6202800000000002  0.56695  0.9900799999999997  1.0000
  H   H65       1.0  0.4677300000000001  0.68374  0.86946  1.0000
  H   H66       1.0  0.48730000000000007  0.7146  0.9100299999999998  1.0000
  H   H67       1.0  0.07854  0.40887  0.25071  1.0000
  H   H68       1.0  0.18681999999999996  0.36394  0.18507  1.0000
  H   H69       1.0  0.3130500000000001  0.308  0.20041  1.0000
  H   H70       1.0  0.32605000000000006  0.29775  0.28202999999999995  1.0000
  H   H71       1.0  0.9658299999999997  0.46261  0.52044  1.0000
  H   H72       1.0  0.8893200000000002  0.4685199999999999  0.49153999999999987  1.0000
  H   H73       1.0  0.9148199999999999  0.4187499999999999  0.52784  1.0000
  H   H74       1.0  0.18172000000000016  0.57127  0.8419199999999998  1.0000
  H   H75       1.0  0.3119400000000001  0.55883  0.7780399999999997  1.0000
  H   H76       1.0  0.17004000000000005  0.57873  0.6792  1.0000
  H   H77       1.0  0.04629000000000005  0.5890099999999998  0.74718  1.0000
  H   H78       1.0  0.3684900000000001  0.52337  0.6840199999999999  1.0000
  H   H79       1.0  0.31470999999999993  0.56234  0.64861  1.0000
  H   H80       1.0  0.6095200000000001  0.4678999999999999  0.48617  1.0000
  H   H81       1.0  0.5792699999999998  0.39406  0.47455  1.0000
  H   H82       1.0  0.68803  0.33192  0.42169  1.0000
  H   H83       1.0  0.82397  0.34485  0.38034999999999997  1.0000
  H   H84       1.0  0.9130200000000003  0.6178199999999998  0.3835999999999999  1.0000
  H   H85       1.0  0.85107  0.6231899999999998  0.44356  1.0000
  H   H86       1.0  0.95757  0.59318  0.42925  1.0000
  H   H87       1.0  0.2811300000000001  0.24683999999999998  0.4881799999999999  1.0000
  H   H88       1.0  0.3642200000000001  0.19423  0.53537  1.0000
  H   H89       1.0  0.43856  0.22796  0.5769799999999999  1.0000
  H   H90       1.0  0.42450999999999994  0.31365999999999994  0.57205  1.0000
  H   H91       1.0  0.17634999999999995  0.45711  0.36348  1.0000
  H   H92       1.0  0.20604000000000003  0.5052799999999998  0.37735  1.0000
  H   H93       1.0  0.10873  0.49762999999999996  0.40805  1.0000
  H   H94       1.0  0.5634399999999996  0.65414  0.56335  1.0000
  H   H95       1.0  0.43931000000000014  0.6643199999999999  0.6318999999999998  1.0000
  H   H96       1.0  0.48893  0.51343  0.6357699999999998  1.0000
  H   H97       1.0  0.61128  0.50981  0.56698  1.0000
  H   H98       1.0  0.33787  0.63047  0.68318  1.0000
  H   H99       1.0  0.3977  0.58997  0.7142499999999999  1.0000
  H   H100      1.0  0.7384700000000001  0.09029  0.24868999999999997  1.0000
  H   H101      1.0  0.7352700000000001  0.13524  0.31466999999999995  1.0000
  H   H102      1.0  0.8203100000000001  0.19151999999999994  0.29986999999999997  1.0000
  H   H103      1.0  0.90508  0.20204999999999995  0.21838  1.0000
  H   H104      1.0  0.9505800000000002  0.03746  0.9791299999999997  1.0000
  H   H105      1.0  0.85152  0.030659999999999993  0.00781  1.0000
  H   H106      1.0  0.8626099999999999  0.08079  0.9718399999999998  1.0000
  H   H107      1.0  0.5936600000000003  0.9283199999999998  0.6584899999999998  1.0000
  H   H108      1.0  0.6475  0.9411299999999998  0.72224  1.0000
  H   H109      1.0  0.4269200000000003  0.9212099999999998  0.8212999999999998  1.0000
  H   H110      1.0  0.38142  0.91058  0.75339  1.0000
  H   H111      1.0  0.5748  0.9766499999999999  0.8162599999999998  1.0000
  H   H112      1.0  0.5251800000000001  0.93742  0.8516999999999998  1.0000
  H   H113      1.0  0.56272  0.031249999999999993  0.01434  1.0000
  H   H114      1.0  0.44726999999999995  0.10515  0.02592  1.0000
  H   H115      1.0  0.4424100000000001  0.16781  0.07771  1.0000
  H   H116      1.0  0.55098  0.15541999999999995  0.11814  1.0000
  H   H117      1.0  0.9126299999999999  0.88178  0.11651999999999997  1.0000
  H   H118      1.0  0.9154999999999998  0.87648  0.05661999999999998  1.0000
  H   H119      1.0  0.9799300000000002  0.9051699999999998  0.07057999999999999  1.0000
  H   H120      1.0  0.015569999999999997  0.25345  0.01176  1.0000
  H   H121      1.0  0.09340000000000018  0.30600999999999995  0.9647199999999998  1.0000
  H   H122      1.0  0.24308000000000007  0.27232  0.9231799999999998  1.0000
  H   H123      1.0  0.30971  0.18659  0.92824  1.0000
  H   H124      1.0  0.99721  0.04245  0.13707  1.0000
  H   H125      1.0  0.08962999999999988  0.99481  0.12238  1.0000
  H   H126      1.0  0.014790000000000017  0.00218  0.09217999999999997  1.0000
  H   H127      1.0  0.7803200000000001  0.8454599999999998  0.9363799999999999  1.0000
  H   H128      1.0  0.73487  0.83557  0.86773  1.0000
  H   H129      1.0  0.6382300000000001  0.9864699999999997  0.8640999999999998  1.0000
  H   H130      1.0  0.6879200000000001  0.9898599999999997  0.93306  1.0000
  H   H131      1.0  0.6512000000000003  0.86956  0.8164399999999998  1.0000
  H   H132      1.0  0.70105  0.9104  0.78554  1.0000
  H   H133      1.0  0.6701300000000001  0.7517799999999998  0.59081  1.0000
  H   H134      1.0  0.6284200000000001  0.6857399999999999  0.63581  1.0000
  H   H135      1.0  0.4869899999999999  0.70035  0.69181  1.0000
  H   H136      1.0  0.3915299999999999  0.7816199999999998  0.70214  1.0000
  H   H137      1.0  0.5130800000000001  0.02097999999999999  0.5378099999999999  1.0000
  H   H138      1.0  0.61849  0.99228  0.53209  1.0000
  H   H139      1.0  0.5560700000000001  0.028349999999999993  0.58188  1.0000
  H   H140      1.0  0.9768000000000002  0.3419599999999999  0.42824  1.0000
  H   H141      1.0  0.91043  0.27807  0.4411699999999999  1.0000
  H   H142      1.0  0.15109  0.17949  0.42132  1.0000
  H   H143      1.0  0.20687000000000003  0.24747999999999998  0.41043999999999997  1.0000
  H   H144      1.0  0.9477  0.18415  0.4767099999999999  1.0000
  H   H145      1.0  0.03677000000000002  0.14883  0.43766  1.0000
  H   H146      1.0  0.90473  0.9864999999999998  0.53202  1.0000
  H   H147      1.0  0.9461899999999996  0.97467  0.60604  1.0000
  H   H148      1.0  0.89033  0.92158  0.66807  1.0000
  H   H149      1.0  0.79595  0.88023  0.65491  1.0000
  H   H150      1.0  0.70324  0.8849899999999998  0.3821799999999999  1.0000
  H   H151      1.0  0.70607  0.9447599999999999  0.37647999999999987  1.0000
  H   H152      1.0  0.6130200000000002  0.9309499999999998  0.40583999999999987  1.0000
  H   H153      1.0  0.2310400000000001  0.9885099999999998  0.75321  1.0000
  H   H154      1.0  0.10067999999999994  0.035329999999999986  0.80582  1.0000
  H   H155      1.0  0.9846  0.07668  0.7720699999999998  1.0000
  H   H156      1.0  0.0036200000000001166  0.07177999999999998  0.6862899999999997  1.0000
  H   H157      1.0  0.4603299999999999  0.86343  0.54266  1.0000
  H   H158      1.0  0.41652000000000006  0.87766  0.4945799999999999  1.0000
  H   H159      1.0  0.48304  0.90832  0.50238  1.0000
  H   H160      1.0  0.87444  0.06367  0.34544  1.0000
  H   H161      1.0  0.9293400000000002  0.1325  0.33549  1.0000
  H   H162      1.0  0.87513  0.13606  0.4865299999999999  1.0000
  H   H163      1.0  0.82247  0.06693999999999999  0.4899699999999999  1.0000
  H   H164      1.0  0.9791499999999999  0.18376  0.3694999999999999  1.0000
  H   H165      1.0  0.88827  0.21463  0.41011  1.0000
  H   H166      1.0  0.012610000000000031  0.74863  0.90955  1.0000
  H   H167      1.0  0.9497900000000001  0.8145699999999998  0.86449  1.0000
  H   H168      1.0  0.8796300000000004  0.7997499999999997  0.8081999999999999  1.0000
  H   H169      1.0  0.87671  0.7183199999999997  0.79752  1.0000
  H   H170      1.0  0.07143000000000009  0.47928  0.9623499999999998  1.0000
  H   H171      1.0  0.14253000000000005  0.5078  0.96838  1.0000
  H   H172      1.0  0.16612000000000002  0.4718499999999999  0.91845  1.0000
  H   H173      1.0  0.74687  0.15788  0.07160999999999997  1.0000
  H   H174      1.0  0.62944  0.22175999999999996  0.05876999999999999  1.0000
  H   H175      1.0  0.7515799999999999  0.32044  0.07878  1.0000
  H   H176      1.0  0.86463  0.25244999999999995  0.08952999999999997  1.0000
  H   H177      1.0  0.6085  0.31571  0.02329  1.0000
  H   H178      1.0  0.62334  0.3510299999999999  0.06229999999999999  1.0000
  H   H179      1.0  0.4231800000000002  0.5135699999999999  0.9677799999999998  1.0000
  H   H180      1.0  0.52684  0.5254599999999999  0.8938199999999997  1.0000
  H   H181      1.0  0.4798599999999999  0.57842  0.83176  1.0000
  H   H182      1.0  0.33117  0.6199199999999999  0.8449999999999998  1.0000
  H   H183      1.0  0.97054  0.6151  0.11814  1.0000
  H   H184      1.0  0.027770000000000055  0.5552999999999999  0.1233  1.0000
  H   H185      1.0  0.95025  0.56926  0.094  1.0000
  H   H186      1.0  0.9721399999999999  0.51187  0.7469799999999999  1.0000
  H   H187      1.0  0.9420600000000001  0.46474  0.69423  1.0000
  H   H188      1.0  0.8339000000000001  0.42311999999999994  0.72777  1.0000
  H   H189      1.0  0.76163  0.42811  0.81344  1.0000
  H   H190      1.0  0.8655300000000001  0.6367099999999998  0.95761  1.0000
  H   H191      1.0  0.7879699999999998  0.62224  0.00565  1.0000
  H   H192      1.0  0.8929099999999999  0.5917999999999998  0.99793  1.0000
  H   H193      1.0  0.28371  0.43639999999999995  0.15443  1.0000
  H   H194      1.0  0.39740000000000003  0.36761999999999995  0.16448  1.0000
  H   H195      1.0  0.4979699999999999  0.36398  0.013479999999999997  1.0000
  H   H196      1.0  0.3797200000000001  0.4330499999999999  0.00992  1.0000
  H   H197      1.0  0.53226  0.31626  0.13054  1.0000
  H   H198      1.0  0.51269  0.2854  0.08998  1.0000
  H   H199      1.0  0.9214500000000002  0.59114  0.7492899999999999  1.0000
  H   H200      1.0  0.81317  0.63606  0.8149299999999998  1.0000
  H   H201      1.0  0.6869500000000003  0.692  0.7995899999999998  1.0000
  H   H202      1.0  0.6739400000000004  0.7022499999999998  0.7179699999999998  1.0000
  H   H203      1.0  0.03416999999999999  0.5374  0.47956999999999994  1.0000
  H   H204      1.0  0.11067999999999993  0.53148  0.50846  1.0000
  H   H205      1.0  0.08517000000000007  0.58125  0.4721599999999999  1.0000
  H   H206      1.0  0.81828  0.42873999999999995  0.15808  1.0000
  H   H207      1.0  0.68806  0.44117  0.22195999999999996  1.0000
  H   H208      1.0  0.8299600000000001  0.42127  0.32080999999999993  1.0000
  H   H209      1.0  0.9537100000000002  0.4109899999999999  0.25282  1.0000
  H   H210      1.0  0.6315  0.47663  0.31599  1.0000
  H   H211      1.0  0.6852799999999999  0.43766999999999995  0.35139  1.0000
  H   H212      1.0  0.3904700000000001  0.53211  0.5138299999999999  1.0000
  H   H213      1.0  0.42072000000000004  0.60594  0.52545  1.0000
  H   H214      1.0  0.31197000000000025  0.6680799999999998  0.5783099999999999  1.0000
  H   H215      1.0  0.17602999999999994  0.65516  0.61965  1.0000
  H   H216      1.0  0.08698000000000006  0.38217999999999996  0.6164  1.0000
  H   H217      1.0  0.1489299999999999  0.3768099999999999  0.55644  1.0000
  H   H218      1.0  0.04242000000000004  0.40683  0.57075  1.0000
  H   H219      1.0  0.7188599999999998  0.75316  0.51182  1.0000
  H   H220      1.0  0.6357700000000001  0.80577  0.4646299999999999  1.0000
  H   H221      1.0  0.56143  0.77205  0.4230199999999999  1.0000
  H   H222      1.0  0.57548  0.68635  0.42795  1.0000
  H   H223      1.0  0.8236500000000001  0.54289  0.63652  1.0000
  H   H224      1.0  0.7939600000000001  0.49472  0.62265  1.0000
  H   H225      1.0  0.8912700000000002  0.50237  0.59195  1.0000
  H   H226      1.0  0.43656000000000017  0.34586  0.4366599999999999  1.0000
  H   H227      1.0  0.5606899999999999  0.33567999999999987  0.3681  1.0000
  H   H228      1.0  0.5110600000000001  0.48657  0.3642299999999999  1.0000
  H   H229      1.0  0.38872000000000007  0.4901999999999999  0.43302  1.0000
  H   H230      1.0  0.6621199999999999  0.3695399999999999  0.3168199999999999  1.0000
  H   H231      1.0  0.6022900000000001  0.41004  0.28575  1.0000
  H   H232      1.0  0.2615200000000002  0.9097099999999998  0.7513199999999999  1.0000
  H   H233      1.0  0.26473  0.8647599999999998  0.68533  1.0000
  H   H234      1.0  0.17968000000000026  0.8084899999999999  0.7001299999999998  1.0000
  H   H235      1.0  0.09491000000000024  0.7979599999999998  0.7816199999999998  1.0000
  H   H236      1.0  0.04942000000000011  0.9625499999999998  0.02087  1.0000
  H   H237      1.0  0.14847000000000002  0.96934  0.99219  1.0000
  H   H238      1.0  0.13738000000000009  0.9192199999999998  0.02817  1.0000
  H   H239      1.0  0.40634  0.07169  0.34151  1.0000
  H   H240      1.0  0.3525  0.05886999999999999  0.27776  1.0000
  H   H241      1.0  0.57308  0.07878999999999997  0.1787  1.0000
  H   H242      1.0  0.6185700000000001  0.08941999999999999  0.24660999999999994  1.0000
  H   H243      1.0  0.4252  0.023349999999999992  0.18374  1.0000
  H   H244      1.0  0.47482  0.06258  0.14829999999999996  1.0000
  H   H245      1.0  0.4372700000000002  0.96876  0.98566  1.0000
  H   H246      1.0  0.5527300000000003  0.8948599999999998  0.97408  1.0000
  H   H247      1.0  0.5575900000000001  0.8321899999999998  0.92229  1.0000
  H   H248      1.0  0.4490200000000004  0.8445899999999997  0.88186  1.0000
  H   H249      1.0  0.08737000000000004  0.11821999999999998  0.88349  1.0000
  H   H250      1.0  0.08449000000000009  0.12352  0.9433899999999998  1.0000
  H   H251      1.0  0.020059999999999936  0.09482999999999997  0.92942  1.0000
  H   H252      1.0  0.9844300000000002  0.74655  0.9882399999999998  1.0000
  H   H253      1.0  0.9065899999999999  0.69399  0.035279999999999985  1.0000
  H   H254      1.0  0.75691  0.72769  0.07682  1.0000
  H   H255      1.0  0.6902899999999998  0.81342  0.07175999999999999  1.0000
  H   H256      1.0  0.0027900000000000706  0.95755  0.86293  1.0000
  H   H257      1.0  0.91036  0.005189999999999999  0.87762  1.0000
  H   H258      1.0  0.9852000000000002  0.9978199999999999  0.9078299999999998  1.0000
  H   H259      1.0  0.21967999999999996  0.15454  0.06362  1.0000
  H   H260      1.0  0.26513  0.16443  0.13227  1.0000
  H   H261      1.0  0.36176  0.01353  0.1359  1.0000
  H   H262      1.0  0.31208  0.010139999999999996  0.06695  1.0000
  H   H263      1.0  0.34879  0.13044  0.18355999999999995  1.0000
  H   H264      1.0  0.2989400000000002  0.08959999999999997  0.21445999999999996  1.0000
  C   C1        1.0  0.52356  0.18722  0.34718  1.0000
  C   C2        1.0  0.4433200000000001  0.19569  0.3792899999999999  1.0000
  C   C3        1.0  0.39066  0.24195999999999995  0.38472  1.0000
  C   C4        1.0  0.41457  0.27930999999999995  0.35978  1.0000
  C   C5        1.0  0.49356999999999995  0.27079  0.32833  1.0000
  C   C6        1.0  0.54718  0.22573  0.32222  1.0000
  C   C7        1.0  0.41297999999999996  0.15827  0.4065  1.0000
  C   C8        1.0  0.46879  0.0374  0.4167299999999999  1.0000
  C   C9        1.0  0.44257  0.99706  0.44296  1.0000
  C   C10       1.0  0.98676  0.6945799999999998  0.57254  1.0000
  C   C11       1.0  0.02346000000000017  0.7306699999999999  0.5656399999999998  1.0000
  C   C12       1.0  0.9749100000000002  0.77745  0.56724  1.0000
  C   C13       1.0  0.8905000000000002  0.7852499999999999  0.5765  1.0000
  C   C14       1.0  0.8585100000000001  0.7472199999999998  0.58275  1.0000
  C   C15       1.0  0.011710000000000005  0.8178  0.55942  1.0000
  C   C16       1.0  0.20280000000000006  0.09022  0.41347  1.0000
  C   C17       1.0  0.17170000000000002  0.05953999999999999  0.44851  1.0000
  C   C18       1.0  0.11843999999999998  0.03652  0.44044  1.0000
  C   C19       1.0  0.09573  0.04299999999999998  0.39914  1.0000
  C   C20       1.0  0.12715999999999997  0.07291  0.36442  1.0000
  C   C21       1.0  0.17985  0.09603999999999997  0.37136  1.0000
  C   C22       1.0  0.19285000000000008  0.05038  0.4929899999999999  1.0000
  C   C23       1.0  0.29980000000000007  0.08557999999999998  0.5548999999999998  1.0000
  C   C24       1.0  0.32027  0.08065  0.60042  1.0000
  C   C25       1.0  0.8727900000000001  0.9725199999999998  0.32899  1.0000
  C   C26       1.0  0.8080500000000002  0.9971899999999998  0.30945  1.0000
  C   C27       1.0  0.81925  0.9929699999999999  0.26093999999999995  1.0000
  C   C28       1.0  0.89262  0.96676  0.23145999999999994  1.0000
  C   C29       1.0  0.9570600000000002  0.9436299999999997  0.25057  1.0000
  C   C30       1.0  0.9472800000000002  0.9461899999999998  0.2983699999999999  1.0000
  C   C31       1.0  0.7316900000000001  0.02864  0.3373799999999999  1.0000
  C   C32       1.0  0.6382300000000001  0.07259999999999997  0.4496599999999999  1.0000
  C   C33       1.0  0.56531  0.10806999999999997  0.47901999999999995  1.0000
  C   C34       1.0  0.12407000000000006  0.91929  0.62417  1.0000
  C   C35       1.0  0.0936800000000001  0.8806999999999999  0.62942  1.0000
  C   C36       1.0  0.09277000000000026  0.8594399999999998  0.58965  1.0000
  C   C37       1.0  0.12382000000000006  0.8785599999999998  0.54581  1.0000
  C   C38       1.0  0.1530400000000001  0.91724  0.54344  1.0000
  C   C39       1.0  0.06008000000000025  0.8176199999999998  0.5944799999999998  1.0000
  C   C40       1.0  0.0568  0.31269  0.15301  1.0000
  C   C41       1.0  0.017700000000000098  0.3040799999999999  0.12066999999999997  1.0000
  C   C42       1.0  0.017060000000000033  0.25776  0.11509999999999998  1.0000
  C   C43       1.0  0.053410000000000006  0.22045  0.14008  1.0000
  C   C44       1.0  0.09209000000000002  0.22909999999999994  0.17167  1.0000
  C   C45       1.0  0.09403  0.27424  0.17798  1.0000
  C   C46       1.0  0.97743  0.3414399999999999  0.09334  1.0000
  C   C47       1.0  0.9228599999999999  0.46235  0.083  1.0000
  C   C48       1.0  0.88279  0.5027499999999999  0.05673  1.0000
  C   C49       1.0  0.2541000000000002  0.80556  0.9275199999999998  1.0000
  C   C50       1.0  0.32000999999999996  0.76948  0.93438  1.0000
  C   C51       1.0  0.3198500000000003  0.7226999999999998  0.9327  1.0000
  C   C52       1.0  0.25248000000000015  0.71485  0.92344  1.0000
  C   C53       1.0  0.18872000000000014  0.7528499999999999  0.9172299999999998  1.0000
  C   C54       1.0  0.38903000000000015  0.68232  0.9405599999999997  1.0000
  C   C55       1.0  0.7064900000000001  0.4096799999999999  0.08666  1.0000
  C   C56       1.0  0.6797599999999999  0.44036  0.05162  1.0000
  C   C57       1.0  0.59544  0.46337  0.05971  1.0000
  C   C58       1.0  0.53788  0.45687  0.10098999999999997  1.0000
  C   C59       1.0  0.56454  0.42697  0.13568999999999998  1.0000
  C   C60       1.0  0.64724  0.4038299999999999  0.12872  1.0000
  C   C61       1.0  0.7362100000000003  0.4495099999999999  0.007119999999999999  1.0000
  C   C62       1.0  0.94008  0.4137  0.9450199999999997  1.0000
  C   C63       1.0  0.0010300000000000567  0.41909  0.8995999999999998  1.0000
  C   C64       1.0  0.17470000000000002  0.52744  0.17104999999999995  1.0000
  C   C65       1.0  0.11521000000000006  0.50264  0.19044999999999998  1.0000
  C   C66       1.0  0.07358000000000009  0.5068099999999999  0.23894999999999994  1.0000
  C   C67       1.0  0.09082000000000001  0.53317  0.26852  1.0000
  C   C68       1.0  0.1510400000000001  0.5564499999999999  0.24951999999999994  1.0000
  C   C69       1.0  0.19194000000000006  0.55385  0.20177  1.0000
  C   C70       1.0  0.09814000000000012  0.4712099999999999  0.16248  1.0000
  C   C71       1.0  0.16083999999999998  0.4274  0.0502  1.0000
  C   C72       1.0  0.15315000000000004  0.39186999999999994  0.02072  1.0000
  C   C73       1.0  0.66737  0.58066  0.87594  1.0000
  C   C74       1.0  0.6037100000000001  0.61922  0.87063  1.0000
  C   C75       1.0  0.54181  0.6405199999999998  0.91036  1.0000
  C   C76       1.0  0.5480000000000002  0.6213999999999997  0.9542199999999998  1.0000
  C   C77       1.0  0.6134699999999998  0.58275  0.9566499999999999  1.0000
  C   C78       1.0  0.47230999999999995  0.6823899999999998  0.90549  1.0000
  C   C79       1.0  0.21014000000000005  0.34720999999999996  0.31261  1.0000
  C   C80       1.0  0.13860000000000008  0.3791899999999999  0.30380999999999997  1.0000
  C   C81       1.0  0.13278  0.38449  0.25736  1.0000
  C   C82       1.0  0.1944100000000001  0.3595699999999999  0.22016999999999995  1.0000
  C   C83       1.0  0.26452  0.32819999999999994  0.22909999999999994  1.0000
  C   C84       1.0  0.2725  0.32214  0.27434  1.0000
  C   C85       1.0  0.07073000000000006  0.40654999999999997  0.34104  1.0000
  C   C86       1.0  0.005840000000000029  0.41714  0.46207  1.0000
  C   C87       1.0  0.93939  0.44345  0.5023899999999999  1.0000
  C   C88       1.0  0.18183000000000032  0.5722099999999999  0.8053199999999998  1.0000
  C   C89       1.0  0.2546200000000001  0.5655399999999998  0.76924  1.0000
  C   C90       1.0  0.25288000000000005  0.56726  0.72239  1.0000
  C   C91       1.0  0.1763  0.57641  0.71452  1.0000
  C   C92       1.0  0.10631000000000006  0.5823999999999999  0.7525399999999999  1.0000
  C   C93       1.0  0.32995  0.55947  0.68198  1.0000
  C   C94       1.0  0.7934700000000001  0.4131699999999999  0.40983999999999987  1.0000
  C   C95       1.0  0.7317400000000001  0.44831  0.44029999999999997  1.0000
  C   C96       1.0  0.6554200000000001  0.4402999999999999  0.46325  1.0000
  C   C97       1.0  0.6389599999999999  0.3990899999999999  0.45688  1.0000
  C   C98       1.0  0.70023  0.36433  0.42709999999999987  1.0000
  C   C99       1.0  0.7761700000000001  0.37114999999999987  0.4040499999999999  1.0000
  C   C100      1.0  0.74365  0.49283  0.4493099999999999  1.0000
  C   C101      1.0  0.88536  0.55496  0.41287  1.0000
  C   C102      1.0  0.9020899999999997  0.60009  0.41785  1.0000
  C   C103      1.0  0.34542  0.32901  0.52762  1.0000
  C   C104      1.0  0.3054200000000001  0.30953  0.50284  1.0000
  C   C105      1.0  0.31266000000000005  0.26099  0.50689  1.0000
  C   C106      1.0  0.35958999999999997  0.23149  0.53325  1.0000
  C   C107      1.0  0.4007399999999998  0.25058  0.55652  1.0000
  C   C108      1.0  0.39364000000000005  0.2983299999999999  0.5539  1.0000
  C   C109      1.0  0.25993000000000005  0.3374899999999999  0.47160999999999986  1.0000
  C   C110      1.0  0.21056000000000005  0.4498  0.4275899999999999  1.0000
  C   C111      1.0  0.17345000000000013  0.4789899999999999  0.3918299999999999  1.0000
  C   C112      1.0  0.54453  0.62385  0.58038  1.0000
  C   C113      1.0  0.4753399999999997  0.62921  0.61885  1.0000
  C   C114      1.0  0.45283  0.5895499999999999  0.64016  1.0000
  C   C115      1.0  0.5027999999999999  0.5457  0.62116  1.0000
  C   C116      1.0  0.5709600000000001  0.54322  0.58262  1.0000
  C   C117      1.0  0.37829999999999997  0.59446  0.68197  1.0000
  C   C118      1.0  0.8694999999999999  0.1527  0.18739  1.0000
  C   C119      1.0  0.82162  0.12046  0.19596999999999995  1.0000
  C   C120      1.0  0.7745799999999998  0.11489999999999997  0.24230999999999994  1.0000
  C   C121      1.0  0.77358  0.13983  0.27965  1.0000
  C   C122      1.0  0.8209300000000002  0.1714  0.27101  1.0000
  C   C123      1.0  0.86818  0.17766999999999994  0.22585  1.0000
  C   C124      1.0  0.81878  0.09313  0.15859  1.0000
  C   C125      1.0  0.88567  0.08264  0.03762  1.0000
  C   C126      1.0  0.8867000000000003  0.05612  0.9971999999999998  1.0000
  C   C127      1.0  0.5581199999999997  0.92748  0.6951  1.0000
  C   C128      1.0  0.5881600000000001  0.93434  0.7311099999999998  1.0000
  C   C129      1.0  0.5413600000000002  0.9326799999999997  0.7779799999999998  1.0000
  C   C130      1.0  0.4661200000000001  0.9234699999999998  0.78593  1.0000
  C   C131      1.0  0.44012  0.9173  0.74796  1.0000
  C   C132      1.0  0.57056  0.94049  0.8182399999999997  1.0000
  C   C133      1.0  0.61747  0.08673999999999998  0.08925999999999998  1.0000
  C   C134      1.0  0.62092  0.05144999999999999  0.059099999999999986  1.0000
  C   C135      1.0  0.5588400000000001  0.05910999999999999  0.036749999999999984  1.0000
  C   C136      1.0  0.49478  0.1003  0.043199999999999995  1.0000
  C   C137      1.0  0.49228999999999995  0.13536  0.07238  1.0000
  C   C138      1.0  0.55257  0.12883  0.09494999999999999  1.0000
  C   C139      1.0  0.68661  0.00707  0.04998  1.0000
  C   C140      1.0  0.85356  0.9448  0.08684  1.0000
  C   C141      1.0  0.91918  0.8992599999999997  0.08212  1.0000
  C   C142      1.0  0.20142999999999991  0.17135  0.9725799999999999  1.0000
  C   C143      1.0  0.11714000000000002  0.19077  0.99725  1.0000
  C   C144      1.0  0.07995000000000003  0.23928999999999995  0.99313  1.0000
  C   C145      1.0  0.12389000000000007  0.26877  0.9668399999999999  1.0000
  C   C146      1.0  0.20737000000000008  0.24969999999999995  0.9436  1.0000
  C   C147      1.0  0.24532000000000018  0.20196999999999996  0.9462399999999997  1.0000
  C   C148      1.0  0.06846  0.16284  0.028579999999999994  1.0000
  C   C149      1.0  0.08727000000000001  0.050619999999999984  0.07272  1.0000
  C   C150      1.0  0.04445000000000002  0.021  0.10838999999999997  1.0000
  C   C151      1.0  0.7484100000000001  0.8758399999999998  0.9193499999999999  1.0000
  C   C152      1.0  0.72297  0.8706299999999998  0.88086  1.0000
  C   C153      1.0  0.6822599999999999  0.91037  0.85961  1.0000
  C   C154      1.0  0.6696200000000002  0.9541499999999998  0.87868  1.0000
  C   C155      1.0  0.6967700000000001  0.95649  0.9172699999999998  1.0000
  C   C156      1.0  0.6541800000000002  0.9056099999999998  0.81785  1.0000
  C   C157      1.0  0.47644  0.8127799999999997  0.65282  1.0000
  C   C158      1.0  0.5566799999999997  0.8043199999999998  0.6207099999999999  1.0000
  C   C159      1.0  0.6093400000000001  0.75805  0.61528  1.0000
  C   C160      1.0  0.5854200000000002  0.7206899999999998  0.64022  1.0000
  C   C161      1.0  0.5064300000000002  0.72922  0.67167  1.0000
  C   C162      1.0  0.45281  0.7742799999999999  0.67778  1.0000
  C   C163      1.0  0.5870100000000004  0.84173  0.5934999999999998  1.0000
  C   C164      1.0  0.5312000000000003  0.9625999999999999  0.58328  1.0000
  C   C165      1.0  0.55742  0.00294  0.5570399999999999  1.0000
  C   C166      1.0  0.01323999999999998  0.30542  0.42746  1.0000
  C   C167      1.0  0.97653  0.26933  0.43436  1.0000
  C   C168      1.0  0.02509000000000002  0.22255  0.43276  1.0000
  C   C169      1.0  0.10949999999999999  0.21476  0.4235  1.0000
  C   C170      1.0  0.14149000000000012  0.25278  0.4172499999999999  1.0000
  C   C171      1.0  0.9882900000000001  0.18219999999999995  0.4405899999999999  1.0000
  C   C172      1.0  0.7972000000000002  0.9097799999999999  0.5865399999999998  1.0000
  C   C173      1.0  0.82829  0.94047  0.55149  1.0000
  C   C174      1.0  0.8815500000000002  0.9634899999999997  0.5595599999999998  1.0000
  C   C175      1.0  0.9042600000000002  0.9570099999999999  0.60087  1.0000
  C   C176      1.0  0.8728399999999998  0.9270899999999997  0.63558  1.0000
  C   C177      1.0  0.82015  0.90396  0.62864  1.0000
  C   C178      1.0  0.80715  0.94962  0.50701  1.0000
  C   C179      1.0  0.7002000000000002  0.91443  0.4451  1.0000
  C   C180      1.0  0.67972  0.91935  0.39958  1.0000
  C   C181      1.0  0.12720999999999996  0.027489999999999997  0.67101  1.0000
  C   C182      1.0  0.19194  0.002809999999999999  0.69055  1.0000
  C   C183      1.0  0.18074999999999994  0.007029999999999999  0.73906  1.0000
  C   C184      1.0  0.10738000000000007  0.03325  0.7685399999999998  1.0000
  C   C185      1.0  0.042939999999999985  0.05637  0.74943  1.0000
  C   C186      1.0  0.052720000000000114  0.05380999999999998  0.7016299999999998  1.0000
  C   C187      1.0  0.26830000000000015  0.97136  0.66262  1.0000
  C   C188      1.0  0.3617699999999998  0.9273999999999999  0.5503499999999999  1.0000
  C   C189      1.0  0.4346800000000002  0.8919299999999999  0.52098  1.0000
  C   C190      1.0  0.87593  0.08072  0.37583  1.0000
  C   C191      1.0  0.9063199999999999  0.11929999999999998  0.37058  1.0000
  C   C192      1.0  0.90722  0.14057  0.41035  1.0000
  C   C193      1.0  0.8761799999999997  0.12143999999999998  0.45419  1.0000
  C   C194      1.0  0.84695  0.08277  0.45656  1.0000
  C   C195      1.0  0.9399099999999999  0.18238999999999994  0.40553  1.0000
  C   C196      1.0  0.9431899999999999  0.68731  0.84699  1.0000
  C   C197      1.0  0.9822900000000002  0.6959199999999998  0.8793299999999998  1.0000
  C   C198      1.0  0.9829400000000003  0.74225  0.8848999999999998  1.0000
  C   C199      1.0  0.9465800000000004  0.7795499999999997  0.8599199999999999  1.0000
  C   C200      1.0  0.9078999999999999  0.7709099999999998  0.82833  1.0000
  C   C201      1.0  0.90596  0.7257599999999997  0.82202  1.0000
  C   C202      1.0  0.022559999999999997  0.65856  0.9066599999999999  1.0000
  C   C203      1.0  0.07712999999999996  0.53766  0.917  1.0000
  C   C204      1.0  0.11720000000000001  0.49726  0.9432699999999999  1.0000
  C   C205      1.0  0.74589  0.19443999999999995  0.07248  1.0000
  C   C206      1.0  0.67999  0.23052  0.06562  1.0000
  C   C207      1.0  0.68015  0.27731  0.0673  1.0000
  C   C208      1.0  0.74751  0.28515  0.07656  1.0000
  C   C209      1.0  0.8112700000000002  0.24714999999999995  0.08277  1.0000
  C   C210      1.0  0.61097  0.31768  0.059439999999999986  1.0000
  C   C211      1.0  0.2935100000000002  0.5903299999999999  0.9133399999999998  1.0000
  C   C212      1.0  0.32023000000000035  0.5596399999999999  0.9483799999999998  1.0000
  C   C213      1.0  0.40455  0.53664  0.94029  1.0000
  C   C214      1.0  0.4621200000000001  0.54313  0.89901  1.0000
  C   C215      1.0  0.43545999999999996  0.57304  0.86432  1.0000
  C   C216      1.0  0.3527500000000002  0.5961799999999998  0.8712799999999998  1.0000
  C   C217      1.0  0.26378999999999997  0.5505  0.99288  1.0000
  C   C218      1.0  0.05991000000000003  0.5863  0.05499  1.0000
  C   C219      1.0  0.9989599999999997  0.58092  0.1004  1.0000
  C   C220      1.0  0.8252900000000002  0.47255999999999987  0.8289499999999997  1.0000
  C   C221      1.0  0.88479  0.4973599999999999  0.8095499999999998  1.0000
  C   C222      1.0  0.9264200000000001  0.4932  0.7610499999999999  1.0000
  C   C223      1.0  0.9091799999999995  0.46683999999999987  0.73148  1.0000
  C   C224      1.0  0.84896  0.44355  0.75048  1.0000
  C   C225      1.0  0.8080500000000002  0.44615  0.7982399999999998  1.0000
  C   C226      1.0  0.9018500000000005  0.52879  0.8375299999999998  1.0000
  C   C227      1.0  0.8391500000000001  0.5726  0.9498099999999999  1.0000
  C   C228      1.0  0.8468500000000001  0.6081299999999997  0.97928  1.0000
  C   C229      1.0  0.33261999999999997  0.41935  0.12406  1.0000
  C   C230      1.0  0.39629000000000003  0.38079  0.12938  1.0000
  C   C231      1.0  0.4581799999999999  0.35948  0.08964  1.0000
  C   C232      1.0  0.452  0.37859999999999994  0.04578  1.0000
  C   C233      1.0  0.38652  0.4172499999999999  0.04335  1.0000
  C   C234      1.0  0.52769  0.31761999999999996  0.09450999999999997  1.0000
  C   C235      1.0  0.78985  0.6527999999999998  0.6873899999999997  1.0000
  C   C236      1.0  0.8613900000000001  0.62081  0.6961899999999998  1.0000
  C   C237      1.0  0.8672200000000004  0.6155099999999998  0.7426399999999997  1.0000
  C   C238      1.0  0.80558  0.64043  0.7798299999999998  1.0000
  C   C239      1.0  0.7354700000000001  0.67181  0.7708999999999998  1.0000
  C   C240      1.0  0.72749  0.67786  0.72566  1.0000
  C   C241      1.0  0.9292700000000003  0.59346  0.65896  1.0000
  C   C242      1.0  0.9941500000000001  0.5828699999999998  0.53793  1.0000
  C   C243      1.0  0.06060000000000003  0.55655  0.49761  1.0000
  C   C244      1.0  0.81817  0.4277899999999999  0.19467999999999996  1.0000
  C   C245      1.0  0.74537  0.4344599999999999  0.23076  1.0000
  C   C246      1.0  0.7471200000000001  0.43274  0.27761  1.0000
  C   C247      1.0  0.8236900000000001  0.4235899999999999  0.2854799999999999  1.0000
  C   C248      1.0  0.8936800000000001  0.4175999999999999  0.24745999999999996  1.0000
  C   C249      1.0  0.67005  0.4405399999999999  0.31802  1.0000
  C   C250      1.0  0.20652999999999985  0.58684  0.59016  1.0000
  C   C251      1.0  0.26826000000000005  0.55169  0.5597  1.0000
  C   C252      1.0  0.34457999999999994  0.5597  0.53675  1.0000
  C   C253      1.0  0.36103000000000013  0.60092  0.54312  1.0000
  C   C254      1.0  0.2997600000000001  0.6356699999999997  0.5729  1.0000
  C   C255      1.0  0.22382999999999997  0.62886  0.59595  1.0000
  C   C256      1.0  0.25635  0.5071799999999999  0.55069  1.0000
  C   C257      1.0  0.11464000000000023  0.4450399999999999  0.5871299999999998  1.0000
  C   C258      1.0  0.09790999999999994  0.39991  0.58216  1.0000
  C   C259      1.0  0.6545799999999999  0.67099  0.47238  1.0000
  C   C260      1.0  0.69458  0.69048  0.4971599999999999  1.0000
  C   C261      1.0  0.68733  0.7390199999999998  0.49311  1.0000
  C   C262      1.0  0.6404  0.76852  0.4667499999999999  1.0000
  C   C263      1.0  0.5992600000000001  0.74943  0.44348  1.0000
  C   C264      1.0  0.6063500000000001  0.70168  0.4460999999999999  1.0000
  C   C265      1.0  0.7400699999999999  0.6625199999999999  0.52839  1.0000
  C   C266      1.0  0.78944  0.55021  0.5724099999999998  1.0000
  C   C267      1.0  0.8265399999999999  0.52101  0.60817  1.0000
  C   C268      1.0  0.4554700000000001  0.3761499999999999  0.41962  1.0000
  C   C269      1.0  0.52465  0.3707899999999999  0.38115  1.0000
  C   C270      1.0  0.5471699999999998  0.4104599999999999  0.35984  1.0000
  C   C271      1.0  0.49720000000000003  0.4543  0.37884  1.0000
  C   C272      1.0  0.42903000000000013  0.4567799999999999  0.41738  1.0000
  C   C273      1.0  0.62169  0.40554  0.3180299999999999  1.0000
  C   C274      1.0  0.13049000000000008  0.84731  0.8126099999999998  1.0000
  C   C275      1.0  0.1783800000000001  0.87955  0.8040299999999999  1.0000
  C   C276      1.0  0.22542  0.8851  0.75769  1.0000
  C   C277      1.0  0.22641000000000017  0.8601699999999998  0.7203499999999998  1.0000
  C   C278      1.0  0.17907000000000015  0.8285999999999998  0.72899  1.0000
  C   C279      1.0  0.13181000000000007  0.82233  0.7741499999999998  1.0000
  C   C280      1.0  0.18122000000000035  0.9068699999999997  0.8414099999999998  1.0000
  C   C281      1.0  0.11432000000000014  0.9173599999999997  0.9623899999999997  1.0000
  C   C282      1.0  0.11329000000000007  0.9438899999999998  0.0027999999999999995  1.0000
  C   C283      1.0  0.44186999999999993  0.07253  0.30490999999999996  1.0000
  C   C284      1.0  0.41183  0.06567  0.26888999999999996  1.0000
  C   C285      1.0  0.45863999999999994  0.06732  0.22201999999999994  1.0000
  C   C286      1.0  0.5338800000000001  0.07652999999999997  0.21406999999999995  1.0000
  C   C287      1.0  0.5598800000000002  0.0827  0.25204  1.0000
  C   C288      1.0  0.4294299999999999  0.05951999999999999  0.18176  1.0000
  C   C289      1.0  0.38252000000000036  0.9132699999999998  0.9107399999999998  1.0000
  C   C290      1.0  0.3790800000000001  0.9485599999999998  0.9408999999999998  1.0000
  C   C291      1.0  0.44116000000000005  0.9408999999999998  0.9632599999999998  1.0000
  C   C292      1.0  0.5052200000000001  0.89971  0.9568  1.0000
  C   C293      1.0  0.5077  0.86464  0.92762  1.0000
  C   C294      1.0  0.44742000000000015  0.8711799999999997  0.9050499999999998  1.0000
  C   C295      1.0  0.3133800000000001  0.9929299999999998  0.95002  1.0000
  C   C296      1.0  0.14643000000000012  0.05521  0.9131599999999997  1.0000
  C   C297      1.0  0.08081000000000008  0.10075  0.91788  1.0000
  C   C298      1.0  0.79857  0.82866  0.02742  1.0000
  C   C299      1.0  0.88285  0.8092299999999998  0.0027499999999999994  1.0000
  C   C300      1.0  0.9200400000000001  0.7607099999999998  0.00687  1.0000
  C   C301      1.0  0.8761099999999999  0.73124  0.03316  1.0000
  C   C302      1.0  0.7926300000000001  0.7503099999999999  0.056399999999999985  1.0000
  C   C303      1.0  0.7546700000000002  0.7980299999999999  0.05375999999999999  1.0000
  C   C304      1.0  0.93154  0.83717  0.9714199999999998  1.0000
  C   C305      1.0  0.9127300000000006  0.94938  0.92728  1.0000
  C   C306      1.0  0.9555500000000001  0.979  0.8916099999999998  1.0000
  C   C307      1.0  0.25157999999999997  0.12416  0.08065  1.0000
  C   C308      1.0  0.27702  0.12937  0.11915  1.0000
  C   C309      1.0  0.3177400000000001  0.08962999999999997  0.14038999999999996  1.0000
  C   C310      1.0  0.33037000000000005  0.04585  0.12131999999999997  1.0000
  C   C311      1.0  0.30322  0.04352  0.08272999999999997  1.0000
  C   C312      1.0  0.34582  0.09438999999999997  0.18215  1.0000
  N   N1        1.0  0.45901  0.11351  0.3998199999999999  1.0000
  N   N2        1.0  0.42221999999999993  0.08082999999999997  0.42731  1.0000
  N   N3        1.0  0.9055  0.70244  0.5805799999999998  1.0000
  N   N4        1.0  0.24351  0.07167999999999997  0.50209  1.0000
  N   N5        1.0  0.25747  0.06002  0.54603  1.0000
  N   N6        1.0  0.7207399999999999  0.035539999999999995  0.38303  1.0000
  N   N7        1.0  0.64905  0.07030999999999997  0.40427  1.0000
  N   N8        1.0  0.15295999999999998  0.93764  0.58187  1.0000
  N   N9        1.0  0.9721300000000003  0.3862199999999999  0.09996999999999998  1.0000
  N   N10       1.0  0.9304699999999999  0.4188899999999999  0.07231999999999997  1.0000
  N   N11       1.0  0.18880000000000002  0.79762  0.91944  1.0000
  N   N12       1.0  0.81712  0.42787  0.9978899999999998  1.0000
  N   N13       1.0  0.8634999999999998  0.4395699999999999  0.9540099999999998  1.0000
  N   N14       1.0  0.13937  0.46445999999999993  0.11677999999999997  1.0000
  N   N15       1.0  0.12367000000000002  0.42965  0.09552999999999998  1.0000
  N   N16       1.0  0.6722800000000001  0.56235  0.9182499999999999  1.0000
  N   N17       1.0  0.07219000000000006  0.40021  0.38588  1.0000
  N   N18       1.0  0.0030100000000000443  0.42789  0.4185299999999999  1.0000
  N   N19       1.0  0.10849000000000002  0.58014  0.79739  1.0000
  N   N20       1.0  0.8153600000000002  0.50207  0.42764999999999986  1.0000
  N   N21       1.0  0.81798  0.5459799999999999  0.43916  1.0000
  N   N22       1.0  0.25517  0.38325  0.46505  1.0000
  N   N23       1.0  0.21826000000000004  0.40454  0.4302299999999999  1.0000
  N   N24       1.0  0.5916000000000003  0.5815599999999997  0.5621699999999997  1.0000
  N   N25       1.0  0.8584700000000001  0.09970999999999997  0.11378999999999997  1.0000
  N   N26       1.0  0.8502099999999999  0.07177999999999998  0.08112  1.0000
  N   N27       1.0  0.4848600000000001  0.9194599999999998  0.70307  1.0000
  N   N28       1.0  0.7455100000000001  0.9977399999999997  0.07196999999999999  1.0000
  N   N29       1.0  0.8033799999999999  0.9537999999999998  0.0606  1.0000
  N   N30       1.0  0.10291  0.11714  0.03536  1.0000
  N   N31       1.0  0.05248000000000001  0.0959  0.0703  1.0000
  N   N32       1.0  0.73522  0.91807  0.9376599999999998  1.0000
  N   N33       1.0  0.54099  0.8864899999999998  0.60018  1.0000
  N   N34       1.0  0.5777700000000002  0.9191699999999998  0.5726899999999999  1.0000
  N   N35       1.0  0.09450000000000004  0.2975599999999999  0.41941999999999996  1.0000
  N   N36       1.0  0.7564900000000001  0.9283199999999998  0.4979099999999999  1.0000
  N   N37       1.0  0.74253  0.93998  0.45396999999999993  1.0000
  N   N38       1.0  0.27925000000000005  0.96447  0.61697  1.0000
  N   N39       1.0  0.35095  0.9296899999999999  0.59573  1.0000
  N   N40       1.0  0.84703  0.062359999999999985  0.41813  1.0000
  N   N41       1.0  0.02787000000000006  0.6137799999999999  0.90003  1.0000
  N   N42       1.0  0.06953000000000017  0.5811099999999998  0.92768  1.0000
  N   N43       1.0  0.8112000000000001  0.20237999999999998  0.08056  1.0000
  N   N44       1.0  0.1828800000000001  0.5721399999999998  0.00211  1.0000
  N   N45       1.0  0.13648999999999997  0.56044  0.04599  1.0000
  N   N46       1.0  0.86062  0.53554  0.8832199999999998  1.0000
  N   N47       1.0  0.8763300000000005  0.5703499999999998  0.9044699999999998  1.0000
  N   N48       1.0  0.3277200000000001  0.4376499999999999  0.08175  1.0000
  N   N49       1.0  0.9278000000000002  0.5998  0.6141199999999998  1.0000
  N   N50       1.0  0.9969900000000002  0.5721199999999997  0.58147  1.0000
  N   N51       1.0  0.89151  0.41987  0.20261  1.0000
  N   N52       1.0  0.18463000000000016  0.49793  0.5723599999999998  1.0000
  N   N53       1.0  0.18201  0.45403  0.56084  1.0000
  N   N54       1.0  0.7448199999999999  0.61676  0.53495  1.0000
  N   N55       1.0  0.7817300000000001  0.59547  0.56977  1.0000
  N   N56       1.0  0.40839  0.41844  0.43783  1.0000
  N   N57       1.0  0.14153000000000002  0.9002899999999998  0.88621  1.0000
  N   N58       1.0  0.14978000000000025  0.92822  0.9188899999999998  1.0000
  N   N59       1.0  0.51513  0.08054  0.29693  1.0000
  N   N60       1.0  0.25448  0.0022699999999999994  0.9280399999999999  1.0000
  N   N61       1.0  0.19661000000000015  0.0462  0.9393999999999998  1.0000
  N   N62       1.0  0.8970899999999999  0.88286  0.9646399999999999  1.0000
  N   N63       1.0  0.9475199999999998  0.9040999999999998  0.9297  1.0000
  N   N64       1.0  0.26477  0.08193  0.062339999999999986  1.0000
  O   O1        1.0  0.5789  0.14532  0.33887999999999996  1.0000
  O   O2        1.0  0.34070999999999996  0.16839  0.4369699999999999  1.0000
  O   O3        1.0  0.53847  0.02864999999999999  0.38408  1.0000
  O   O4        1.0  0.25102  0.11518999999999999  0.41802  1.0000
  O   O5        1.0  0.16311000000000003  0.021729999999999992  0.52288  1.0000
  O   O6        1.0  0.32461  0.11654  0.52419  1.0000
  O   O7        1.0  0.86822  0.9726799999999998  0.37441  1.0000
  O   O8        1.0  0.67545  0.0509  0.31761  1.0000
  O   O9        1.0  0.6900300000000004  0.044469999999999996  0.4703  1.0000
  O   O10       1.0  0.061250000000000006  0.35472999999999993  0.16150999999999993  1.0000
  O   O11       1.0  0.9461999999999999  0.33106  0.06271  1.0000
  O   O12       1.0  0.95089  0.4711999999999999  0.11577  1.0000
  O   O13       1.0  0.78427  0.3848299999999999  0.08217  1.0000
  O   O14       1.0  0.7078800000000001  0.4783599999999999  0.9772999999999997  1.0000
  O   O15       1.0  0.96492  0.38212  0.9753599999999999  1.0000
  O   O16       1.0  0.21587  0.52733  0.12566  1.0000
  O   O17       1.0  0.04453000000000006  0.4488499999999999  0.18225999999999995  1.0000
  O   O18       1.0  0.20511000000000013  0.4556399999999999  0.02977  1.0000
  O   O19       1.0  0.2233500000000001  0.33924  0.3546399999999999  1.0000
  O   O20       1.0  0.00859000000000001  0.43689999999999996  0.33064  1.0000
  O   O21       1.0  0.06637  0.38422  0.47099  1.0000
  O   O22       1.0  0.8669799999999994  0.41744  0.38509  1.0000
  O   O23       1.0  0.68539  0.52254  0.4781299999999999  1.0000
  O   O24       1.0  0.9399699999999999  0.5245  0.3813099999999999  1.0000
  O   O25       1.0  0.34088000000000007  0.37443  0.52767  1.0000
  O   O26       1.0  0.22626000000000002  0.31748999999999994  0.4493399999999999  1.0000
  O   O27       1.0  0.23478999999999994  0.47035  0.4555399999999999  1.0000
  O   O28       1.0  0.9166300000000001  0.16087  0.14543  1.0000
  O   O29       1.0  0.77711  0.06253  0.16871  1.0000
  O   O30       1.0  0.92136  0.11594  0.028769999999999993  1.0000
  O   O31       1.0  0.67083  0.08251  0.11375  1.0000
  O   O32       1.0  0.6873699999999999  0.9775  0.020819999999999995  1.0000
  O   O33       1.0  0.84698  0.9752699999999997  0.11819  1.0000
  O   O34       1.0  0.24247000000000002  0.12599  0.97255  1.0000
  O   O35       1.0  0.9924700000000002  0.18278999999999995  0.05071999999999999  1.0000
  O   O36       1.0  0.15975  0.03026999999999999  0.04452  1.0000
  O   O37       1.0  0.42109999999999986  0.85469  0.66112  1.0000
  O   O38       1.0  0.6592800000000002  0.8316099999999997  0.5630299999999998  1.0000
  O   O39       1.0  0.46153  0.97135  0.61592  1.0000
  O   O40       1.0  0.74897  0.88481  0.58198  1.0000
  O   O41       1.0  0.83689  0.97828  0.4771199999999999  1.0000
  O   O42       1.0  0.67538  0.8834699999999998  0.4758099999999999  1.0000
  O   O43       1.0  0.1317800000000001  0.027319999999999994  0.6255899999999998  1.0000
  O   O44       1.0  0.32454000000000005  0.94911  0.6823999999999998  1.0000
  O   O45       1.0  0.30997  0.95553  0.5297  1.0000
  O   O46       1.0  0.93874  0.64527  0.83849  1.0000
  O   O47       1.0  0.053789999999999984  0.66894  0.93729  1.0000
  O   O48       1.0  0.04910000000000005  0.5288  0.88423  1.0000
  O   O49       1.0  0.21572000000000013  0.61518  0.91783  1.0000
  O   O50       1.0  0.29211  0.52164  0.0227  1.0000
  O   O51       1.0  0.035080000000000035  0.6178799999999999  0.024649999999999995  1.0000
  O   O52       1.0  0.7841300000000002  0.47267  0.8743499999999997  1.0000
  O   O53       1.0  0.9554600000000001  0.55116  0.81774  1.0000
  O   O54       1.0  0.7948800000000001  0.54436  0.97023  1.0000
  O   O55       1.0  0.7766400000000002  0.66077  0.64536  1.0000
  O   O56       1.0  0.9914099999999998  0.5631  0.66936  1.0000
  O   O57       1.0  0.9336199999999999  0.6157799999999998  0.52902  1.0000
  O   O58       1.0  0.13301999999999997  0.58256  0.61491  1.0000
  O   O59       1.0  0.31461  0.4774599999999999  0.52187  1.0000
  O   O60       1.0  0.060030000000000173  0.47549999999999987  0.6186899999999997  1.0000
  O   O61       1.0  0.6591199999999999  0.62557  0.47232999999999997  1.0000
  O   O62       1.0  0.7737300000000001  0.68252  0.55066  1.0000
  O   O63       1.0  0.7652  0.5296499999999998  0.5444699999999999  1.0000
  O   O64       1.0  0.08337000000000011  0.83913  0.85457  1.0000
  O   O65       1.0  0.22288999999999995  0.93747  0.83129  1.0000
  O   O66       1.0  0.07863999999999992  0.88406  0.97123  1.0000
  O   O67       1.0  0.3291700000000001  0.91749  0.88625  1.0000
  O   O68       1.0  0.3126200000000001  0.0225  0.9791799999999999  1.0000
  O   O69       1.0  0.15301999999999996  0.02472999999999999  0.88181  1.0000
  O   O70       1.0  0.7575300000000001  0.8740099999999997  0.027449999999999995  1.0000
  O   O71       1.0  0.007520000000000016  0.81721  0.94928  1.0000
  O   O72       1.0  0.8402499999999997  0.9697399999999998  0.95548  1.0000
