data_image0
_chemical_formula_structural       Zn40H240C240N160
_chemical_formula_sum              "Zn40 H240 C240 N160"
_cell_length_a       9.71752
_cell_length_b       30.29393
_cell_length_c       46.13556
_cell_angle_alpha    89.96583999999999
_cell_angle_beta     90.0
_cell_angle_gamma    90.0

_symmetry_space_group_name_H-M    'P 1'
_symmetry_Int_Tables_number       1

loop_
  _symmetry_equiv_pos_as_xyz
  'x,y,z'

loop_
  _atom_site_type_symbol
  _atom_site_label
  _atom_site_symmetry_multiplicity
  _atom_site_fract_x
  _atom_site_fract_y
  _atom_site_fract_z
  _atom_site_occupancy
  Zn  Zn1       1.0  0.9958900000000002  0.17268999999999995  0.7368000000000001  1.0000
  Zn  Zn2       1.0  0.15688  0.68422  0.18684000000000006  1.0000
  Zn  Zn3       1.0  0.08692  0.23351999999999995  0.42546000000000006  1.0000
  Zn  Zn4       1.0  0.58692  0.26649  0.57454  1.0000
  Zn  Zn5       1.0  0.66351  0.0030299999999999993  0.85776  1.0000
  Zn  Zn6       1.0  0.64906  0.28253  0.028150000000000005  1.0000
  Zn  Zn7       1.0  0.42725  0.8673799999999998  0.6962300000000001  1.0000
  Zn  Zn8       1.0  0.41268  0.76448  0.9257100000000001  1.0000
  Zn  Zn9       1.0  0.65562  0.47177999999999987  0.07017  1.0000
  Zn  Zn10      1.0  0.08661  0.35824  0.52628  1.0000
  Zn  Zn11      1.0  0.91337  0.85829  0.97304  1.0000
  Zn  Zn12      1.0  0.92723  0.7713099999999998  0.65289  1.0000
  Zn  Zn13      1.0  0.14906  0.21748  0.97185  1.0000
  Zn  Zn14      1.0  0.50384  0.8274399999999997  0.23596  1.0000
  Zn  Zn15      1.0  0.49668000000000007  0.05491  0.7351800000000001  1.0000
  Zn  Zn16      1.0  0.92725  0.6326199999999997  0.30377  1.0000
  Zn  Zn17      1.0  0.42723  0.7287  0.3471100000000001  1.0000
  Zn  Zn18      1.0  0.57291  0.22858999999999993  0.15211  1.0000
  Zn  Zn19      1.0  0.49589  0.32731  0.2632  1.0000
  Zn  Zn20      1.0  0.503  0.5549999999999998  0.7655200000000001  1.0000
  Zn  Zn21      1.0  0.34261  0.3157999999999999  0.68731  1.0000
  Zn  Zn22      1.0  0.41337  0.64171  0.026960000000000005  1.0000
  Zn  Zn23      1.0  0.003  0.9449999999999997  0.23448000000000005  1.0000
  Zn  Zn24      1.0  0.85109  0.71772  0.52899  1.0000
  Zn  Zn25      1.0  0.07305  0.13285  0.19661000000000006  1.0000
  Zn  Zn26      1.0  0.58661  0.14176  0.47372  1.0000
  Zn  Zn27      1.0  0.84473  0.52818  0.5708300000000001  1.0000
  Zn  Zn28      1.0  0.57305  0.36716  0.80338  1.0000
  Zn  Zn29      1.0  0.15562  0.02822  0.92983  1.0000
  Zn  Zn30      1.0  0.33626  0.50303  0.64301  1.0000
  Zn  Zn31      1.0  0.0038400000000000005  0.6725599999999998  0.7640400000000002  1.0000
  Zn  Zn32      1.0  0.99668  0.4450999999999999  0.26482  1.0000
  Zn  Zn33      1.0  0.35109000000000007  0.78228  0.47101  1.0000
  Zn  Zn34      1.0  0.8362600000000001  0.99697  0.35699  1.0000
  Zn  Zn35      1.0  0.84261  0.18419999999999995  0.31269  1.0000
  Zn  Zn36      1.0  0.9126800000000002  0.73552  0.07429  1.0000
  Zn  Zn37      1.0  0.07292  0.27142  0.84789  1.0000
  Zn  Zn38      1.0  0.34473  0.97182  0.42917000000000005  1.0000
  Zn  Zn39      1.0  0.65688  0.81578  0.8131600000000001  1.0000
  Zn  Zn40      1.0  0.16351  0.49696999999999997  0.14224  1.0000
  H   H1        1.0  0.94442  0.6304699999999998  0.56766  1.0000
  H   H2        1.0  0.67014  0.24648999999999993  0.9587400000000001  1.0000
  H   H3        1.0  0.09384  0.68592  0.11941  1.0000
  H   H4        1.0  0.77638  0.22212  0.45158000000000004  1.0000
  H   H5        1.0  0.242  0.66865  0.30594  1.0000
  H   H6        1.0  0.93622  0.08250999999999997  0.32106  1.0000
  H   H7        1.0  0.9892800000000002  0.5901699999999998  0.8077300000000001  1.0000
  H   H8        1.0  0.06799  0.5604299999999998  0.34718  1.0000
  H   H9        1.0  0.19683  0.80197  0.9737800000000001  1.0000
  H   H10       1.0  0.54203  0.24612999999999993  0.22002000000000002  1.0000
  H   H11       1.0  0.26049  0.9654799999999998  0.19234  1.0000
  H   H12       1.0  0.9236300000000001  0.54862  0.26143  1.0000
  H   H13       1.0  0.91435  0.6841399999999997  0.36482  1.0000
  H   H14       1.0  0.97709  0.8370399999999998  0.79576  1.0000
  H   H15       1.0  0.92759  0.28405  0.06528  1.0000
  H   H16       1.0  0.43622000000000005  0.41749  0.6789400000000001  1.0000
  H   H17       1.0  0.6968300000000001  0.69803  0.026220000000000004  1.0000
  H   H18       1.0  0.11875  0.81124  0.60496  1.0000
  H   H19       1.0  0.9079300000000001  0.8489399999999998  0.8534900000000002  1.0000
  H   H20       1.0  0.47048000000000006  0.10863999999999997  0.53625  1.0000
  H   H21       1.0  0.22793  0.6814599999999997  0.81542  1.0000
  H   H22       1.0  0.48928000000000005  0.9098299999999998  0.19227  1.0000
  H   H23       1.0  0.57594  0.45182  0.76154  1.0000
  H   H24       1.0  0.9172000000000001  0.4424399999999999  0.10823  1.0000
  H   H25       1.0  0.16113  0.72374  0.51472  1.0000
  H   H26       1.0  0.7257600000000001  0.77671  0.9509300000000003  1.0000
  H   H27       1.0  0.35272000000000003  0.02434  0.8415300000000001  1.0000
  H   H28       1.0  0.505  0.38173999999999997  0.20175  1.0000
  H   H29       1.0  0.77836  0.4534799999999999  0.21473  1.0000
  H   H30       1.0  0.6466300000000001  0.52437  0.65928  1.0000
  H   H31       1.0  0.6611200000000002  0.7762599999999997  0.48528  1.0000
  H   H32       1.0  0.9580700000000001  0.75372  0.7209900000000001  1.0000
  H   H33       1.0  0.64768  0.99518  0.41167000000000004  1.0000
  H   H34       1.0  0.03458  0.5292599999999998  0.51457  1.0000
  H   H35       1.0  0.09532  0.13041  0.43877  1.0000
  H   H36       1.0  0.93184  0.061569999999999986  0.15281  1.0000
  H   H37       1.0  0.43982  0.62184  0.35080000000000006  1.0000
  H   H38       1.0  0.44442  0.8695299999999998  0.43234000000000006  1.0000
  H   H39       1.0  0.8831600000000001  0.31205  0.8960200000000001  1.0000
  H   H40       1.0  0.23981  0.03503  0.6928200000000001  1.0000
  H   H41       1.0  0.9642500000000003  0.029129999999999993  0.9861000000000001  1.0000
  H   H42       1.0  0.77179  0.18155  0.6854000000000001  1.0000
  H   H43       1.0  0.55503  0.36920999999999987  0.06644  1.0000
  H   H44       1.0  0.90371  0.6324999999999997  0.061180000000000005  1.0000
  H   H45       1.0  0.1  0.5739  0.6668600000000001  1.0000
  H   H46       1.0  0.35369  0.49547  0.08761000000000001  1.0000
  H   H47       1.0  0.17014  0.25352  0.04126  1.0000
  H   H48       1.0  0.005  0.11825999999999998  0.79825  1.0000
  H   H49       1.0  0.93181  0.07185999999999997  0.40029  1.0000
  H   H50       1.0  0.85271  0.47566999999999987  0.15847  1.0000
  H   H51       1.0  0.53025  0.60732  0.96473  1.0000
  H   H52       1.0  0.63182  0.23106999999999994  0.5095400000000001  1.0000
  H   H53       1.0  0.04998  0.3766099999999999  0.31653  1.0000
  H   H54       1.0  0.06107  0.58275  0.17788000000000004  1.0000
  H   H55       1.0  0.27836  0.046519999999999985  0.7852700000000001  1.0000
  H   H56       1.0  0.03025  0.8926899999999998  0.03527000000000001  1.0000
  H   H57       1.0  0.05503  0.13079  0.93356  1.0000
  H   H58       1.0  0.32697  0.93709  0.9329800000000001  1.0000
  H   H59       1.0  0.58834  0.57772  0.06616000000000001  1.0000
  H   H60       1.0  0.34859  0.7010499999999997  0.86803  1.0000
  H   H61       1.0  0.61875  0.68876  0.39504000000000006  1.0000
  H   H62       1.0  0.40371  0.8674999999999998  0.93882  1.0000
  H   H63       1.0  0.34045  0.548  0.9940100000000002  1.0000
  H   H64       1.0  0.91081  0.42168  0.5662600000000001  1.0000
  H   H65       1.0  0.91441  0.9353699999999999  0.8736800000000002  1.0000
  H   H66       1.0  0.91243  0.28849  0.95391  1.0000
  H   H67       1.0  0.63794  0.41705  0.1335  1.0000
  H   H68       1.0  0.41721  0.05756  0.8917700000000002  1.0000
  H   H69       1.0  0.72342  0.65648  0.2507400000000001  1.0000
  H   H70       1.0  0.85456  0.26868  0.7239200000000002  1.0000
  H   H71       1.0  0.58658  0.71127  0.45304  1.0000
  H   H72       1.0  0.08519  0.4354  0.62664  1.0000
  H   H73       1.0  0.4318100000000001  0.4281399999999999  0.59971  1.0000
  H   H74       1.0  0.72693  0.89713  0.2597400000000001  1.0000
  H   H75       1.0  0.58426  0.55742  0.60964  1.0000
  H   H76       1.0  0.51064  0.40952  0.3070800000000001  1.0000
  H   H77       1.0  0.97336  0.6646699999999999  0.65085  1.0000
  H   H78       1.0  0.27638  0.2778899999999999  0.54842  1.0000
  H   H79       1.0  0.06697  0.57223  0.09913  1.0000
  H   H80       1.0  0.35867  0.2711099999999999  0.88558  1.0000
  H   H81       1.0  0.16093  0.20576  0.90251  1.0000
  H   H82       1.0  0.90003  0.07375  0.8337900000000003  1.0000
  H   H83       1.0  0.72793  0.8185499999999998  0.18458000000000002  1.0000
  H   H84       1.0  0.64485  0.7311899999999998  0.22376  1.0000
  H   H85       1.0  0.41243  0.21152  0.04609000000000001  1.0000
  H   H86       1.0  0.59384  0.81409  0.88059  1.0000
  H   H87       1.0  0.16201  0.8535899999999997  0.5009  1.0000
  H   H88       1.0  0.40003  0.42624999999999996  0.16621  1.0000
  H   H89       1.0  0.88634  0.9755699999999998  0.17168000000000003  1.0000
  H   H90       1.0  0.19967000000000001  0.8631899999999998  0.25284  1.0000
  H   H91       1.0  0.8586600000000001  0.22888999999999995  0.11442000000000002  1.0000
  H   H92       1.0  0.33988  0.27709  0.01438  1.0000
  H   H93       1.0  0.83988  0.22291999999999995  0.9856200000000002  1.0000
  H   H94       1.0  0.8666500000000001  0.77034  0.00948  1.0000
  H   H95       1.0  0.82805  0.75461  0.4599700000000001  1.0000
  H   H96       1.0  0.47336000000000006  0.83534  0.34915  1.0000
  H   H97       1.0  0.03841  0.27328  0.31553000000000003  1.0000
  H   H98       1.0  0.75711  0.16927  0.19402000000000003  1.0000
  H   H99       1.0  0.38316000000000006  0.18795  0.10398  1.0000
  H   H100      1.0  0.56799  0.93958  0.65282  1.0000
  H   H101      1.0  0.36465  0.41344  0.53975  1.0000
  H   H102      1.0  0.65653  0.84485  0.74535  1.0000
  H   H103      1.0  0.11234000000000001  0.47473  0.32781000000000005  1.0000
  H   H104      1.0  0.41081000000000006  0.07832999999999997  0.43374  1.0000
  H   H105      1.0  0.06929  0.7840999999999998  0.43494  1.0000
  H   H106      1.0  0.08658  0.78873  0.5469600000000001  1.0000
  H   H107      1.0  0.59999  0.9261  0.33314000000000005  1.0000
  H   H108      1.0  0.14663  0.9756299999999998  0.34072  1.0000
  H   H109      1.0  0.21635000000000001  0.78703  0.6861400000000001  1.0000
  H   H110      1.0  0.59151  0.15107999999999994  0.35323000000000004  1.0000
  H   H111      1.0  0.662  0.64642  0.4991  1.0000
  H   H112      1.0  0.69967  0.63682  0.7471600000000003  1.0000
  H   H113      1.0  0.7832  0.28655  0.8144900000000003  1.0000
  H   H114      1.0  0.49521000000000004  0.8818299999999998  0.29747  1.0000
  H   H115      1.0  0.80367  0.30235  0.52617  1.0000
  H   H116      1.0  0.56228  0.16034999999999994  0.40488000000000013  1.0000
  H   H117      1.0  0.15432  0.9403499999999998  0.4816400000000001  1.0000
  H   H118      1.0  0.4018700000000001  0.31497  0.61984  1.0000
  H   H119      1.0  0.15115  0.29742  0.3685000000000001  1.0000
  H   H120      1.0  0.33098  0.20328999999999994  0.38277  1.0000
  H   H121      1.0  0.33046  0.8202599999999999  0.80319  1.0000
  H   H122      1.0  0.96069  0.77336  0.18473000000000003  1.0000
  H   H123      1.0  0.40793000000000007  0.6510699999999998  0.14651  1.0000
  H   H124      1.0  0.77875  0.34372  0.75034  1.0000
  H   H125      1.0  0.7517700000000002  0.71813  0.7956200000000001  1.0000
  H   H126      1.0  0.82697  0.56291  0.06702  1.0000
  H   H127      1.0  0.94191  0.8403  0.90438  1.0000
  H   H128      1.0  0.08426  0.94259  0.39036  1.0000
  H   H129      1.0  0.52687  0.33549  0.15  1.0000
  H   H130      1.0  0.44191  0.6597  0.09562000000000001  1.0000
  H   H131      1.0  0.65548  0.04775  0.50624  1.0000
  H   H132      1.0  0.05972000000000001  0.37818  0.8509  1.0000
  H   H133      1.0  0.67136  0.43761  0.5674  1.0000
  H   H134      1.0  0.97048  0.3913599999999999  0.46375  1.0000
  H   H135      1.0  0.29116  0.52964  0.71158  1.0000
  H   H136      1.0  0.93982  0.87817  0.6492  1.0000
  H   H137      1.0  0.38635  0.52444  0.8283200000000001  1.0000
  H   H138      1.0  0.67171  0.70383  0.11730000000000003  1.0000
  H   H139      1.0  0.01064  0.09047999999999998  0.6929200000000001  1.0000
  H   H140      1.0  0.32752  0.07741  0.16935  1.0000
  H   H141      1.0  0.7081600000000001  0.02954  0.7892500000000002  1.0000
  H   H142      1.0  0.35456  0.23131999999999997  0.27608  1.0000
  H   H143      1.0  0.32806  0.7453899999999999  0.54003  1.0000
  H   H144      1.0  0.65115  0.20258  0.6315  1.0000
  H   H145      1.0  0.33873  0.7944  0.40170000000000006  1.0000
  H   H146      1.0  0.09151  0.34892  0.6467700000000001  1.0000
  H   H147      1.0  0.34587  0.3441899999999999  0.7546100000000001  1.0000
  H   H148      1.0  0.84859  0.7989499999999998  0.13197000000000003  1.0000
  H   H149      1.0  0.29879000000000006  0.1364  0.754  1.0000
  H   H150      1.0  0.53457  0.9707399999999998  0.4854300000000001  1.0000
  H   H151      1.0  0.07593  0.04818  0.23846000000000003  1.0000
  H   H152      1.0  0.84109  0.35417  0.9984700000000002  1.0000
  H   H153      1.0  0.47526000000000007  0.16616999999999996  0.58322  1.0000
  H   H154      1.0  0.84045  0.95201  0.0059900000000000005  1.0000
  H   H155      1.0  0.30367  0.19764999999999994  0.47383000000000003  1.0000
  H   H156      1.0  0.15548  0.45225  0.49376  1.0000
  H   H157      1.0  0.34884  0.059479999999999984  0.9816600000000002  1.0000
  H   H158      1.0  0.36665  0.72966  0.9905200000000002  1.0000
  H   H159      1.0  0.7604900000000001  0.53453  0.8076600000000002  1.0000
  H   H160      1.0  0.41435000000000005  0.81587  0.63518  1.0000
  H   H161      1.0  0.56697  0.92778  0.9008700000000001  1.0000
  H   H162      1.0  0.34109000000000006  0.14583  0.00153  1.0000
  H   H163      1.0  0.52235  0.16312  0.29561000000000004  1.0000
  H   H164      1.0  0.17136  0.062389999999999994  0.43260000000000004  1.0000
  H   H165      1.0  0.41441  0.56464  0.12632  1.0000
  H   H166      1.0  0.02236  0.3368799999999999  0.70439  1.0000
  H   H167      1.0  0.36231  0.9169799999999999  0.3658700000000001  1.0000
  H   H168      1.0  0.24927  0.2183  0.7057400000000001  1.0000
  H   H169      1.0  0.5597200000000001  0.12181999999999997  0.14910000000000004  1.0000
  H   H170      1.0  0.79879  0.36359999999999987  0.246  1.0000
  H   H171      1.0  0.59532  0.3695899999999999  0.56123  1.0000
  H   H172      1.0  0.2208  0.95304  0.28455  1.0000
  H   H173      1.0  0.2832  0.21345  0.18551  1.0000
  H   H174      1.0  0.58519  0.0646  0.37335  1.0000
  H   H175      1.0  0.27179  0.31845  0.31460000000000005  1.0000
  H   H176      1.0  0.84883  0.4405199999999999  0.01834  1.0000
  H   H177      1.0  0.02412  0.8359799999999997  0.08283  1.0000
  H   H178      1.0  0.17161  0.18024  0.30342  1.0000
  H   H179      1.0  0.22576000000000002  0.7232999999999998  0.049070000000000016  1.0000
  H   H180      1.0  0.17171  0.79618  0.8827000000000002  1.0000
  H   H181      1.0  0.79116  0.9703699999999997  0.28842  1.0000
  H   H182      1.0  0.65431  0.5596599999999998  0.51836  1.0000
  H   H183      1.0  0.97527  0.3338299999999999  0.41678  1.0000
  H   H184      1.0  0.13182  0.2689299999999999  0.49046  1.0000
  H   H185      1.0  0.06228  0.3396499999999999  0.59512  1.0000
  H   H186      1.0  0.45807000000000003  0.74628  0.27901  1.0000
  H   H187      1.0  0.84587  0.15582  0.24539  1.0000
  H   H188      1.0  0.08801  0.18501  0.13593  1.0000
  H   H189      1.0  0.02687  0.16451  0.8500000000000002  1.0000
  H   H190      1.0  0.54998  0.12339  0.68347  1.0000
  H   H191      1.0  0.56107  0.91726  0.82212  1.0000
  H   H192      1.0  0.66093  0.29424  0.09749000000000001  1.0000
  H   H193      1.0  0.13794  0.08294999999999997  0.8665000000000003  1.0000
  H   H194      1.0  0.20816  0.4704699999999999  0.21075  1.0000
  H   H195      1.0  0.45043  0.6235299999999999  0.8172600000000002  1.0000
  H   H196      1.0  0.25177  0.7818699999999998  0.20438  1.0000
  H   H197      1.0  0.22343  0.84352  0.74926  1.0000
  H   H198      1.0  0.53841  0.22672  0.68447  1.0000
  H   H199      1.0  0.8623100000000001  0.58303  0.63413  1.0000
  H   H200      1.0  0.71634  0.7129699999999999  0.31386  1.0000
  H   H201      1.0  0.14768  0.50483  0.58833  1.0000
  H   H202      1.0  0.67262  0.57719  0.33117  1.0000
  H   H203      1.0  0.56928  0.7158999999999998  0.5650600000000001  1.0000
  H   H204      1.0  0.9952100000000002  0.61818  0.7025300000000002  1.0000
  H   H205      1.0  0.43184000000000006  0.43842999999999993  0.8471900000000002  1.0000
  H   H206      1.0  0.6123400000000001  0.02527  0.6721900000000001  1.0000
  H   H207      1.0  0.7722000000000001  0.10307999999999998  0.76069  1.0000
  H   H208      1.0  0.85369  0.004529999999999997  0.9123900000000001  1.0000
  H   H209      1.0  0.9504200000000002  0.87647  0.18274  1.0000
  H   H210      1.0  0.83873  0.7056  0.5983  1.0000
  H   H211      1.0  0.27875  0.15628999999999996  0.24966  1.0000
  H   H212      1.0  0.04204  0.25387  0.7799800000000002  1.0000
  H   H213      1.0  0.7208  0.54696  0.7154500000000001  1.0000
  H   H214      1.0  0.46425  0.4708799999999999  0.013900000000000003  1.0000
  H   H215      1.0  0.86465  0.08656  0.4602500000000001  1.0000
  H   H216      1.0  0.67161  0.31976  0.6965800000000001  1.0000
  H   H217      1.0  0.42363  0.9513899999999997  0.73857  1.0000
  H   H218      1.0  0.83098  0.29671  0.61723  1.0000
  H   H219      1.0  0.4607  0.7266499999999998  0.81527  1.0000
  H   H220      1.0  0.63327  0.9119699999999997  0.9600300000000003  1.0000
  H   H221      1.0  0.14336  0.72919  0.38538  1.0000
  H   H222      1.0  0.15653  0.65515  0.25465000000000004  1.0000
  H   H223      1.0  0.52413  0.6640299999999998  0.9171700000000002  1.0000
  H   H224      1.0  0.742  0.83136  0.6940600000000001  1.0000
  H   H225      1.0  0.22693000000000002  0.60287  0.74026  1.0000
  H   H226      1.0  0.90187  0.18503  0.3801600000000001  1.0000
  H   H227      1.0  0.2722  0.39693  0.23931  1.0000
  H   H228      1.0  0.58801  0.31498999999999994  0.86407  1.0000
  H   H229      1.0  0.74927  0.2817  0.29426  1.0000
  H   H230      1.0  0.14485  0.7688099999999998  0.7762400000000002  1.0000
  H   H231      1.0  0.47709  0.66296  0.20424  1.0000
  H   H232      1.0  0.83045  0.67974  0.19681000000000004  1.0000
  H   H233      1.0  0.25712  0.3307299999999999  0.8059800000000001  1.0000
  H   H234      1.0  0.4276  0.21594999999999995  0.93472  1.0000
  H   H235      1.0  0.64336  0.77081  0.6146200000000002  1.0000
  H   H236      1.0  0.73981  0.4649699999999999  0.30718  1.0000
  H   H237      1.0  0.13327  0.58803  0.03997  1.0000
  H   H238      1.0  0.08835  0.92229  0.93384  1.0000
  H   H239      1.0  0.82752  0.42259  0.8306500000000001  1.0000
  H   H240      1.0  0.17262  0.92281  0.6688300000000001  1.0000
  C   C1        1.0  0.8531800000000002  0.38782999999999995  0.8303300000000001  1.0000
  C   C2        1.0  0.04288  0.71331  0.13004  1.0000
  C   C3        1.0  0.99931  0.04373  0.4029100000000001  1.0000
  C   C4        1.0  0.027740000000000004  0.17622  0.82783  1.0000
  C   C5        1.0  0.38186000000000003  0.8288599999999998  0.7831500000000002  1.0000
  C   C6        1.0  0.42602  0.4395999999999999  0.14515  1.0000
  C   C7        1.0  0.61849  0.8773399999999998  0.9552  1.0000
  C   C8        1.0  0.54323  0.9548399999999998  0.67337  1.0000
  C   C9        1.0  0.33937000000000006  0.58131  0.13976  1.0000
  C   C10       1.0  0.82701  0.31761  0.8216  1.0000
  C   C11       1.0  0.53497  0.27674  0.20793  1.0000
  C   C12       1.0  0.63022  0.12732  0.69955  1.0000
  C   C13       1.0  0.26041  0.65628  0.80025  1.0000
  C   C14       1.0  0.99458  0.14265  0.4446400000000001  1.0000
  C   C15       1.0  0.5889900000000001  0.20552999999999993  0.5232900000000001  1.0000
  C   C16       1.0  0.9165500000000001  0.77176  0.13718  1.0000
  C   C17       1.0  0.57572  0.5233899999999999  0.60267  1.0000
  C   C18       1.0  0.01639  0.6875499999999998  0.3556800000000001  1.0000
  C   C19       1.0  0.53813  0.7315  0.21698  1.0000
  C   C20       1.0  0.21784  0.06433  0.7054200000000002  1.0000
  C   C21       1.0  0.28226  0.12996  0.9845700000000001  1.0000
  C   C22       1.0  0.06631  0.25221  0.03282  1.0000
  C   C23       1.0  0.02969  0.8261099999999999  0.91547  1.0000
  C   C24       1.0  0.4852  0.8467199999999998  0.30135000000000006  1.0000
  C   C25       1.0  0.53199  0.63406  0.34032  1.0000
  C   C26       1.0  0.35318  0.11216999999999998  0.16967  1.0000
  C   C27       1.0  0.60189  0.9753799999999998  0.39465  1.0000
  C   C28       1.0  0.15892  0.80628  0.9518700000000001  1.0000
  C   C29       1.0  0.88066  0.12113999999999997  0.45543000000000006  1.0000
  C   C30       1.0  0.6589200000000001  0.69372  0.04813  1.0000
  C   C31       1.0  0.93383  0.0032999999999999995  0.18258  1.0000
  C   C32       1.0  0.55291  0.8412299999999998  0.7536900000000002  1.0000
  C   C33       1.0  0.55266  0.7328099999999997  0.5447  1.0000
  C   C34       1.0  0.6731300000000001  0.3402  0.74323  1.0000
  C   C35       1.0  0.8355100000000001  0.7413999999999997  0.79285  1.0000
  C   C36       1.0  0.32905  0.8402799999999998  0.75644  1.0000
  C   C37       1.0  0.66919  0.80752  0.95078  1.0000
  C   C38       1.0  0.60494  0.40816999999999987  0.29463  1.0000
  C   C39       1.0  0.3421  0.19346  0.45196000000000003  1.0000
  C   C40       1.0  0.9454300000000001  0.2668399999999999  0.04509  1.0000
  C   C41       1.0  0.14689  0.88807  0.6694500000000001  1.0000
  C   C42       1.0  0.9921700000000001  0.8307899999999998  0.060610000000000004  1.0000
  C   C43       1.0  0.08899  0.29447999999999996  0.47671  1.0000
  C   C44       1.0  0.056080000000000005  0.7859399999999997  0.59494  1.0000
  C   C45       1.0  0.83937  0.91869  0.86024  1.0000
  C   C46       1.0  0.1296  0.7102299999999998  0.36572  1.0000
  C   C47       1.0  0.33614  0.62418  0.14971  1.0000
  C   C48       1.0  0.0822  0.27061  0.36305  1.0000
  C   C49       1.0  0.97358  0.32578  0.58419  1.0000
  C   C50       1.0  0.50491  0.8555099999999998  0.94456  1.0000
  C   C51       1.0  0.78225  0.37003999999999987  0.01543  1.0000
  C   C52       1.0  0.5822  0.22939  0.6369500000000001  1.0000
  C   C53       1.0  0.64266  0.69604  0.09523000000000002  1.0000
  C   C54       1.0  0.00754  0.32898999999999995  0.43901  1.0000
  C   C55       1.0  0.46161  0.23158999999999993  0.28261  1.0000
  C   C56       1.0  0.7863900000000001  0.41289  0.02526  1.0000
  C   C57       1.0  0.38109  0.9605799999999998  0.9195100000000003  1.0000
  C   C58       1.0  0.07572  0.97661  0.39733000000000007  1.0000
  C   C59       1.0  0.96512  0.72317  0.70885  1.0000
  C   C60       1.0  0.11849000000000001  0.62267  0.0448  1.0000
  C   C61       1.0  0.33208  0.30885  0.54879  1.0000
  C   C62       1.0  0.34189  0.41053  0.6672600000000001  1.0000
  C   C63       1.0  0.32701  0.18239  0.17840000000000003  1.0000
  C   C64       1.0  0.4853200000000001  0.31175  0.8552100000000001  1.0000
  C   C65       1.0  0.08347  0.97063  0.32167  1.0000
  C   C66       1.0  0.95929  0.27464  0.9346700000000002  1.0000
  C   C67       1.0  0.36975  0.62732  0.80126  1.0000
  C   C68       1.0  0.2864  0.08711  0.97474  1.0000
  C   C69       1.0  0.02597  0.25855  0.33677  1.0000
  C   C70       1.0  0.5895  0.26838  0.09135  1.0000
  C   C71       1.0  0.51495  0.34666  0.19784000000000002  1.0000
  C   C72       1.0  0.43383000000000005  0.4967099999999999  0.8174200000000003  1.0000
  C   C73       1.0  0.05266  0.7671899999999998  0.4553  1.0000
  C   C74       1.0  0.71784  0.43567  0.29458  1.0000
  C   C75       1.0  0.10336000000000001  0.7367399999999997  0.49662000000000006  1.0000
  C   C76       1.0  0.72024  0.63025  0.51603  1.0000
  C   C77       1.0  0.75666  0.884  0.23882  1.0000
  C   C78       1.0  0.52968  0.6739  0.08453  1.0000
  C   C79       1.0  0.68348  0.82079  0.67532  1.0000
  C   C80       1.0  0.81665  0.17979999999999993  0.17541  1.0000
  C   C81       1.0  0.00491  0.6444899999999998  0.05544000000000002  1.0000
  C   C82       1.0  0.4562  0.4541  0.82674  1.0000
  C   C83       1.0  0.044820000000000006  0.30224  0.70774  1.0000
  C   C84       1.0  0.3946200000000001  0.9083299999999997  0.2046  1.0000
  C   C85       1.0  0.52597  0.24145  0.6632300000000001  1.0000
  C   C86       1.0  0.10494  0.09183  0.70537  1.0000
  C   C87       1.0  0.97237  0.7590099999999997  0.16337  1.0000
  C   C88       1.0  0.49931  0.45627  0.59709  1.0000
  C   C89       1.0  0.8596500000000001  0.30436  0.59512  1.0000
  C   C90       1.0  0.58673  0.042579999999999986  0.4881000000000001  1.0000
  C   C91       1.0  0.07418  0.5605599999999997  0.6458000000000002  1.0000
  C   C92       1.0  0.38067  0.37886  0.54457  1.0000
  C   C93       1.0  0.49458  0.35734999999999995  0.55536  1.0000
  C   C94       1.0  0.99552  0.8588499999999998  0.0371  1.0000
  C   C95       1.0  0.87196  0.2104  0.1343  1.0000
  C   C96       1.0  0.87866  0.46001  0.20547000000000007  1.0000
  C   C97       1.0  0.73932  0.15637  0.70059  1.0000
  C   C98       1.0  0.9616100000000001  0.26841  0.71739  1.0000
  C   C99       1.0  0.6296  0.7897699999999997  0.63428  1.0000
  C   C100      1.0  0.50005  0.95601  0.9035800000000003  1.0000
  C   C101      1.0  0.37197  0.2896  0.8657  1.0000
  C   C102      1.0  0.54288  0.78669  0.86996  1.0000
  C   C103      1.0  0.54058  0.72538  0.43377  1.0000
  C   C104      1.0  0.46512  0.77683  0.29115  1.0000
  C   C105      1.0  0.15605  0.58965  0.16642000000000004  1.0000
  C   C106      1.0  0.49218000000000006  0.6692099999999997  0.9393900000000001  1.0000
  C   C107      1.0  0.91033  0.7958599999999998  0.023110000000000002  1.0000
  C   C108      1.0  0.95488  0.80234  0.79263  1.0000
  C   C109      1.0  0.9260200000000001  0.0604  0.8548500000000001  1.0000
  C   C110      1.0  0.43237  0.7468999999999998  0.53191  1.0000
  C   C111      1.0  0.86673  0.6232  0.5515  1.0000
  C   C112      1.0  0.9493400000000001  0.15928999999999993  0.25383  1.0000
  C   C113      1.0  0.8697500000000001  0.8726799999999999  0.19874  1.0000
  C   C114      1.0  0.4157799999999999  0.029319999999999992  0.8224600000000001  1.0000
  C   C115      1.0  0.9714500000000001  0.9955699999999997  0.97822  1.0000
  C   C116      1.0  0.12056000000000003  0.9597499999999998  0.2938  1.0000
  C   C117      1.0  0.03498  0.22327  0.79207  1.0000
  C   C118      1.0  0.04323  0.54516  0.32663  1.0000
  C   C119      1.0  0.44494  0.21355999999999994  0.09400000000000001  1.0000
  C   C120      1.0  0.16298  0.37584  0.65014  1.0000
  C   C121      1.0  0.45929  0.22536  0.06533  1.0000
  C   C122      1.0  0.9724300000000001  0.6763199999999998  0.67303  1.0000
  C   C123      1.0  0.9562  0.04591  0.17326000000000003  1.0000
  C   C124      1.0  0.3596500000000001  0.19564  0.40488000000000013  1.0000
  C   C125      1.0  0.71639  0.58721  0.52554  1.0000
  C   C126      1.0  0.8320800000000002  0.19115  0.45121  1.0000
  C   C127      1.0  0.10189  0.52462  0.6053500000000002  1.0000
  C   C128      1.0  0.5277400000000001  0.32378  0.17217  1.0000
  C   C129      1.0  0.62056  0.54026  0.7062  1.0000
  C   C130      1.0  0.41656000000000004  0.72825  0.86282  1.0000
  C   C131      1.0  0.9106200000000001  0.95733  0.9881100000000002  1.0000
  C   C132      1.0  0.8418900000000001  0.08947999999999998  0.33274  1.0000
  C   C133      1.0  0.66506  0.25851  0.29188  1.0000
  C   C134      1.0  0.89693  0.23594999999999994  0.0038200000000000005  1.0000
  C   C135      1.0  0.95622  0.5651399999999999  0.62943  1.0000
  C   C136      1.0  0.47243000000000007  0.8236799999999997  0.32697  1.0000
  C   C137      1.0  0.96768  0.3658299999999999  0.84043  1.0000
  C   C138      1.0  0.62014  0.3283999999999999  0.7166200000000003  1.0000
  C   C139      1.0  0.36673  0.8768099999999998  0.4485  1.0000
  C   C140      1.0  0.47358  0.17422999999999994  0.41581000000000007  1.0000
  C   C141      1.0  0.88108  0.53943  0.08049  1.0000
  C   C142      1.0  0.45622  0.93486  0.3705700000000001  1.0000
  C   C143      1.0  0.45488  0.69767  0.20737  1.0000
  C   C144      1.0  0.12014  0.17159999999999997  0.28338  1.0000
  C   C145      1.0  0.9323700000000003  0.7531099999999997  0.46809000000000006  1.0000
  C   C146      1.0  0.18349  0.67921  0.32468  1.0000
  C   C147      1.0  0.44544000000000006  0.23315999999999995  0.95491  1.0000
  C   C148      1.0  0.1728  0.8179899999999999  0.6787600000000001  1.0000
  C   C149      1.0  0.8946200000000001  0.59167  0.7954  1.0000
  C   C150      1.0  0.47145000000000004  0.50443  0.021780000000000008  1.0000
  C   C151      1.0  0.39693  0.26405  0.9961800000000002  1.0000
  C   C152      1.0  0.46748000000000006  0.9599799999999998  0.71771  1.0000
  C   C153      1.0  0.5075400000000001  0.17101  0.56099  1.0000
  C   C154      1.0  0.25666000000000005  0.616  0.76118  1.0000
  C   C155      1.0  0.47237  0.741  0.8366300000000001  1.0000
  C   C156      1.0  0.04408000000000001  0.06504  0.8711800000000002  1.0000
  C   C157      1.0  0.65974  0.08125  0.35976  1.0000
  C   C158      1.0  0.6560400000000001  0.9103599999999997  0.8335800000000001  1.0000
  C   C159      1.0  0.37867000000000006  0.039989999999999984  0.7945300000000001  1.0000
  C   C160      1.0  0.83614  0.87582  0.85029  1.0000
  C   C161      1.0  0.06518  0.50268  0.31706000000000006  1.0000
  C   C162      1.0  0.41038  0.76855  0.40779  1.0000
  C   C163      1.0  0.03199  0.8659499999999998  0.6596800000000002  1.0000
  C   C164      1.0  0.11802000000000003  0.03904999999999999  0.41892000000000007  1.0000
  C   C165      1.0  0.51639  0.8124499999999998  0.64432  1.0000
  C   C166      1.0  0.9157800000000001  0.4706799999999999  0.17754000000000006  1.0000
  C   C167      1.0  0.0895  0.23161999999999994  0.9086500000000001  1.0000
  C   C168      1.0  0.46026  0.05933  0.45069  1.0000
  C   C169      1.0  0.9537900000000001  0.21249  0.36978000000000005  1.0000
  C   C170      1.0  0.23932  0.34363  0.29941  1.0000
  C   C171      1.0  0.13022  0.37268  0.30045  1.0000
  C   C172      1.0  0.16919  0.6924899999999999  0.049220000000000014  1.0000
  C   C173      1.0  0.54408  0.43496  0.12882  1.0000
  C   C174      1.0  0.14266  0.8039599999999999  0.9047700000000002  1.0000
  C   C175      1.0  0.03867  0.94108  0.95085  1.0000
  C   C176      1.0  0.98532  0.18825  0.14479  1.0000
  C   C177      1.0  0.41062  0.54268  0.01189  1.0000
  C   C178      1.0  0.7520500000000001  0.38358  0.2628  1.0000
  C   C179      1.0  0.42490000000000006  0.023349999999999992  0.89841  1.0000
  C   C180      1.0  0.9249  0.4766499999999999  0.10159000000000003  1.0000
  C   C181      1.0  0.6180200000000001  0.46096  0.58108  1.0000
  C   C182      1.0  0.96025  0.4406799999999999  0.54931  1.0000
  C   C183      1.0  0.31665  0.3202  0.82459  1.0000
  C   C184      1.0  0.56518  0.99732  0.68294  1.0000
  C   C185      1.0  0.8420900000000001  0.30654  0.5480400000000001  1.0000
  C   C186      1.0  0.7604000000000002  0.84372  0.19975000000000004  1.0000
  C   C187      1.0  0.53185  0.46  0.78243  1.0000
  C   C188      1.0  0.54482  0.19776  0.29226  1.0000
  C   C189      1.0  0.04058  0.77462  0.56623  1.0000
  C   C190      1.0  0.82905  0.6597299999999998  0.24356  1.0000
  C   C191      1.0  0.46768000000000004  0.13417  0.15957  1.0000
  C   C192      1.0  0.58347  0.5293799999999997  0.6783200000000001  1.0000
  C   C193      1.0  0.16506  0.24148999999999995  0.70812  1.0000
  C   C194      1.0  0.7427800000000001  0.11613999999999997  0.7397300000000002  1.0000
  C   C195      1.0  0.94494  0.28645  0.906  1.0000
  C   C196      1.0  0.60149  0.03188  0.7959500000000002  1.0000
  C   C197      1.0  0.9103800000000001  0.73145  0.59221  1.0000
  C   C198      1.0  0.052910000000000006  0.65878  0.24631  1.0000
  C   C199      1.0  0.39778  0.53194  0.70483  1.0000
  C   C200      1.0  0.66298  0.12416  0.34986000000000006  1.0000
  C   C201      1.0  0.24683000000000002  0.8833699999999998  0.23618  1.0000
  C   C202      1.0  0.9852  0.6532799999999997  0.69865  1.0000
  C   C203      1.0  0.02713  0.4955799999999999  0.52222  1.0000
  C   C204      1.0  0.45379  0.28751  0.63022  1.0000
  C   C205      1.0  0.25205  0.11642  0.7372000000000002  1.0000
  C   C206      1.0  0.5741800000000001  0.9394399999999998  0.3542  1.0000
  C   C207      1.0  0.28197  0.9359299999999998  0.20474  1.0000
  C   C208      1.0  0.24278  0.3838599999999999  0.26027  1.0000
  C   C209      1.0  0.53866  0.55892  0.04915000000000001  1.0000
  C   C210      1.0  0.89888  0.024379999999999992  0.8953100000000003  1.0000
  C   C211      1.0  0.03813  0.7685099999999998  0.7830200000000002  1.0000
  C   C212      1.0  0.89778  0.96806  0.29517  1.0000
  C   C213      1.0  0.4955300000000001  0.6411499999999998  0.9629  1.0000
  C   C214      1.0  0.74683  0.61664  0.76382  1.0000
  C   C215      1.0  0.63412  0.3767599999999999  0.050630000000000015  1.0000
  C   C216      1.0  0.96748  0.5400199999999997  0.28229  1.0000
  C   C217      1.0  0.10149  0.46813  0.20405  1.0000
  C   C218      1.0  0.01496  0.15334  0.8021600000000001  1.0000
  C   C219      1.0  0.6033600000000001  0.7632599999999998  0.50338  1.0000
  C   C220      1.0  0.44934  0.34071  0.74617  1.0000
  C   C221      1.0  0.88186  0.67115  0.21685000000000001  1.0000
  C   C222      1.0  0.08674000000000001  0.45743  0.5119  1.0000
  C   C223      1.0  5e-05  0.54399  0.09642000000000003  1.0000
  C   C224      1.0  0.64689  0.61194  0.33055  1.0000
  C   C225      1.0  0.6728  0.68201  0.32124  1.0000
  C   C226      1.0  0.55608  0.71407  0.40506  1.0000
  C   C227      1.0  0.03185  0.04  0.21757  1.0000
  C   C228      1.0  0.52713  0.00443  0.47778000000000004  1.0000
  C   C229      1.0  0.56631  0.24778999999999995  0.9671800000000003  1.0000
  C   C230      1.0  0.17314  0.15980999999999995  0.25677  1.0000
  C   C231      1.0  0.50498  0.14255  0.53772  1.0000
  C   C232      1.0  0.39888  0.47562  0.10469000000000002  1.0000
  C   C233      1.0  0.41033  0.7041399999999998  0.9768900000000003  1.0000
  C   C234      1.0  0.15974  0.4187599999999999  0.6402400000000001  1.0000
  C   C235      1.0  0.78197  0.5640699999999997  0.7952600000000001  1.0000
  C   C236      1.0  0.00498  0.3574499999999999  0.46228000000000014  1.0000
  C   C237      1.0  0.22024  0.8697599999999998  0.4839700000000001  1.0000
  C   C238      1.0  0.13412  0.12324999999999998  0.94937  1.0000
  C   C239      1.0  0.21639  0.91279  0.47446  1.0000
  C   C240      1.0  0.33551  0.7585999999999998  0.20715000000000003  1.0000
  N   N1        1.0  0.44944  0.3312299999999999  0.82908  1.0000
  N   N2        1.0  0.8094700000000002  0.58295  0.54808  1.0000
  N   N3        1.0  0.7735  0.059389999999999984  0.34878  1.0000
  N   N4        1.0  0.6886  0.58006  0.77514  1.0000
  N   N5        1.0  0.93825  0.65199  0.26219  1.0000
  N   N6        1.0  0.54364  0.07732999999999997  0.47085  1.0000
  N   N7        1.0  0.8716  0.625  0.77542  1.0000
  N   N8        1.0  0.9968900000000002  0.45843  0.22223000000000004  1.0000
  N   N9        1.0  0.04073  0.22061999999999996  0.8212600000000001  1.0000
  N   N10       1.0  0.83411  0.034559999999999994  0.87027  1.0000
  N   N11       1.0  0.22415000000000002  0.79133  0.92798  1.0000
  N   N12       1.0  0.18861000000000003  0.91995  0.22486000000000006  1.0000
  N   N13       1.0  0.03763  0.6887399999999998  0.058190000000000006  1.0000
  N   N14       1.0  0.47300000000000003  0.74153  0.38863  1.0000
  N   N15       1.0  0.03508  0.23279  0.006420000000000002  1.0000
  N   N16       1.0  0.05761  0.47562  0.17669  1.0000
  N   N17       1.0  0.01699  0.49962  0.28886000000000006  1.0000
  N   N18       1.0  0.54914  0.6785799999999998  0.33436  1.0000
  N   N19       1.0  0.44344  0.66356  0.98664  1.0000
  N   N20       1.0  0.76522  0.20503999999999994  0.15387000000000003  1.0000
  N   N21       1.0  0.9809800000000001  0.5687299999999997  0.3044700000000001  1.0000
  N   N22       1.0  0.27665  0.20785999999999993  0.42794  1.0000
  N   N23       1.0  0.9808800000000001  0.68321  0.7213100000000001  1.0000
  N   N24       1.0  0.19243000000000002  0.08306999999999998  0.95235  1.0000
  N   N25       1.0  0.50236  0.54185  0.7229600000000002  1.0000
  N   N26       1.0  0.49689  0.04157  0.7777700000000002  1.0000
  N   N27       1.0  0.23589  0.8574799999999998  0.6815700000000001  1.0000
  N   N28       1.0  0.6855  0.34725  0.03161  1.0000
  N   N29       1.0  0.97786  0.17122999999999994  0.28133  1.0000
  N   N30       1.0  0.04086  0.8275499999999998  0.9454100000000001  1.0000
  N   N31       1.0  0.00236  0.95815  0.27704  1.0000
  N   N32       1.0  0.96163  0.72991  0.78324  1.0000
  N   N33       1.0  0.51699  0.0003899999999999999  0.71114  1.0000
  N   N34       1.0  0.47301  0.49604  0.61077  1.0000
  N   N35       1.0  0.77894  0.1292  0.3326700000000001  1.0000
  N   N36       1.0  0.18925  0.6490299999999998  0.7746800000000001  1.0000
  N   N37       1.0  0.43787000000000004  0.70919  0.9484300000000002  1.0000
  N   N38       1.0  0.76429  0.3571  0.81836  1.0000
  N   N39       1.0  0.8108  0.4199299999999999  0.27431  1.0000
  N   N40       1.0  0.22485000000000002  0.55955  0.15048  1.0000
  N   N41       1.0  0.04364  0.4226699999999999  0.52915  1.0000
  N   N42       1.0  0.95939  0.7206899999999998  0.67966  1.0000
  N   N43       1.0  0.9730000000000001  0.7584699999999998  0.61137  1.0000
  N   N44       1.0  0.73533  0.79509  0.65409  1.0000
  N   N45       1.0  0.16637  0.99643  0.41527  1.0000
  N   N46       1.0  0.12735  0.12486  0.72558  1.0000
  N   N47       1.0  0.5510300000000001  0.26031  0.06371  1.0000
  N   N48       1.0  0.77665  0.29214  0.5720600000000001  1.0000
  N   N49       1.0  0.94461  0.22161999999999996  0.34125  1.0000
  N   N50       1.0  0.3108  0.08008  0.72569  1.0000
  N   N51       1.0  0.3336100000000001  0.00334  0.91611  1.0000
  N   N52       1.0  0.96311  0.18701  0.442  1.0000
  N   N53       1.0  0.37160000000000004  0.875  0.22458  1.0000
  N   N54       1.0  0.45396000000000003  0.5771499999999998  0.029330000000000005  1.0000
  N   N55       1.0  0.55761  0.024379999999999992  0.8233100000000001  1.0000
  N   N56       1.0  0.72485  0.9404599999999997  0.8495200000000002  1.0000
  N   N57       1.0  0.94169  0.97572  0.3225  1.0000
  N   N58       1.0  0.96187  0.74261  0.11610000000000001  1.0000
  N   N59       1.0  0.66637  0.50357  0.58473  1.0000
  N   N60       1.0  0.052820000000000006  0.98503  0.9545700000000001  1.0000
  N   N61       1.0  0.23533  0.7049199999999998  0.34591000000000005  1.0000
  N   N62       1.0  0.06106  0.28903  0.4483  1.0000
  N   N63       1.0  0.26429  0.14289999999999994  0.18164000000000002  1.0000
  N   N64       1.0  0.7194500000000001  0.8707099999999999  0.8333500000000003  1.0000
  N   N65       1.0  0.43826000000000004  0.84802  0.7378000000000001  1.0000
  N   N66       1.0  0.72244  0.8466599999999997  0.95913  1.0000
  N   N67       1.0  0.30947  0.9170499999999998  0.45192000000000004  1.0000
  N   N68       1.0  0.44668  0.01527  0.4540300000000001  1.0000
  N   N69       1.0  0.5192100000000001  0.31663  0.22046  1.0000
  N   N70       1.0  0.48088  0.8167999999999997  0.27869  1.0000
  N   N71       1.0  0.96494  0.73397  0.49451  1.0000
  N   N72       1.0  0.4778600000000001  0.32878  0.7186700000000003  1.0000
  N   N73       1.0  0.56409  0.34791  0.76189  1.0000
  N   N74       1.0  0.48198  0.50024  0.7892500000000002  1.0000
  N   N75       1.0  0.66096  0.74323  0.52647  1.0000
  N   N76       1.0  0.46311  0.313  0.5580000000000002  1.0000
  N   N77       1.0  0.53763  0.8112599999999998  0.9418100000000001  1.0000
  N   N78       1.0  0.018600000000000002  0.06907  0.19556  1.0000
  N   N79       1.0  0.46159  0.17292  0.4457300000000001  1.0000
  N   N80       1.0  0.528  0.24097  0.11045  1.0000
  N   N81       1.0  0.63333  0.10173  0.72446  1.0000
  N   N82       1.0  0.53867  0.27006999999999987  0.28245  1.0000
  N   N83       1.0  0.2735  0.4406099999999999  0.65122  1.0000
  N   N84       1.0  0.05244  0.72185  0.15864000000000003  1.0000
  N   N85       1.0  0.05103  0.23969  0.93629  1.0000
  N   N86       1.0  0.44169  0.52429  0.6775  1.0000
  N   N87       1.0  0.9494400000000001  0.16877  0.17092  1.0000
  N   N88       1.0  0.32624  0.7151299999999998  0.20118  1.0000
  N   N89       1.0  0.03868  0.22993  0.71755  1.0000
  N   N90       1.0  0.21945000000000003  0.6293  0.16665  1.0000
  N   N91       1.0  0.55281  0.5149699999999999  0.045430000000000005  1.0000
  N   N92       1.0  0.96159  0.3270799999999999  0.5542600000000001  1.0000
  N   N93       1.0  0.52621  0.45801999999999987  0.10315000000000002  1.0000
  N   N94       1.0  0.7779300000000001  0.15215  0.4595900000000001  1.0000
  N   N95       1.0  0.8157200000000001  0.65295  0.53257  1.0000
  N   N96       1.0  0.46187000000000006  0.7573999999999997  0.8839000000000001  1.0000
  N   N97       1.0  0.8101700000000001  0.14921  0.72622  1.0000
  N   N98       1.0  0.66636  0.9651799999999998  0.36959  1.0000
  N   N99       1.0  0.028000000000000004  0.25903  0.8895500000000001  1.0000
  N   N100      1.0  0.54073  0.2793799999999999  0.17874  1.0000
  N   N101      1.0  0.36644  0.6017  0.77639  1.0000
  N   N102      1.0  0.52733  0.9959899999999998  0.89019  1.0000
  N   N103      1.0  0.95039  0.32121  0.83484  1.0000
  N   N104      1.0  0.52416  0.8295  0.78124  1.0000
  N   N105      1.0  0.27793  0.34785  0.54041  1.0000
  N   N106      1.0  0.46163000000000004  0.7701  0.21676  1.0000
  N   N107      1.0  0.55244  0.77815  0.84135  1.0000
  N   N108      1.0  0.53585  0.25876  0.61609  1.0000
  N   N109      1.0  0.4593900000000001  0.7793199999999998  0.32034000000000007  1.0000
  N   N110      1.0  0.51861  0.43093  0.80444  1.0000
  N   N111      1.0  0.48098  0.9312699999999998  0.69553  1.0000
  N   N112      1.0  0.4649500000000001  0.76603  0.50548  1.0000
  N   N113      1.0  0.56106  0.21097999999999995  0.5517  1.0000
  N   N114      1.0  0.051370000000000006  0.66782  0.32960000000000006  1.0000
  N   N115      1.0  0.33411  0.46544  0.12972  1.0000
  N   N116      1.0  0.9730100000000003  0.003960000000000001  0.38923000000000013  1.0000
  N   N117      1.0  0.55137  0.83218  0.6704  1.0000
  N   N118      1.0  0.27894  0.3708  0.66733  1.0000
  N   N119      1.0  0.03585  0.24124  0.38391  1.0000
  N   N120      1.0  0.9744100000000001  0.54213  0.60376  1.0000
  N   N121      1.0  0.44461  0.27838  0.6587500000000001  1.0000
  N   N122      1.0  0.16096  0.75677  0.47353000000000006  1.0000
  N   N123      1.0  0.22244000000000003  0.6533399999999998  0.04087  1.0000
  N   N124      1.0  0.94343  0.8364399999999999  0.01336  1.0000
  N   N125      1.0  0.54085  0.67245  0.05459  1.0000
  N   N126      1.0  0.8382800000000001  0.25649  0.026560000000000007  1.0000
  N   N127      1.0  0.73588  0.6425199999999998  0.31843  1.0000
  N   N128      1.0  0.02416  0.67051  0.21876000000000004  1.0000
  N   N129      1.0  0.8262400000000001  0.7848699999999997  0.79882  1.0000
  N   N130      1.0  0.72415  0.7086799999999998  0.07202  1.0000
  N   N131      1.0  0.53508  0.26722  0.9935800000000002  1.0000
  N   N132      1.0  0.02733  0.50402  0.10981000000000002  1.0000
  N   N133      1.0  0.9466800000000001  0.4847399999999999  0.54597  1.0000
  N   N134      1.0  0.8336  0.49666  0.08389000000000002  1.0000
  N   N135      1.0  0.06409  0.15209  0.23811000000000004  1.0000
  N   N136      1.0  0.47442000000000006  0.9578799999999998  0.39624  1.0000
  N   N137      1.0  0.45039  0.17879  0.16516000000000003  1.0000
  N   N138      1.0  0.17395  0.2848999999999999  0.7019  1.0000
  N   N139      1.0  0.13333  0.3982799999999999  0.27554  1.0000
  N   N140      1.0  0.8664400000000001  0.8983099999999998  0.22361  1.0000
  N   N141      1.0  0.16636  0.53483  0.6304100000000001  1.0000
  N   N142      1.0  0.9539600000000001  0.9228499999999997  0.9706700000000003  1.0000
  N   N143      1.0  0.69242  0.41693  0.04765000000000001  1.0000
  N   N144      1.0  0.94818  0.73987  0.56457  1.0000
  N   N145      1.0  0.68925  0.8509699999999998  0.22532000000000005  1.0000
  N   N146      1.0  0.9819700000000002  0.9997599999999999  0.21075  1.0000
  N   N147      1.0  0.67394  0.21510999999999997  0.2981  1.0000
  N   N148      1.0  0.62735  0.3751499999999999  0.27442  1.0000
  N   N149      1.0  0.2652300000000001  0.2949599999999999  0.84613  1.0000
  N   N150      1.0  0.33828  0.24351  0.97344  1.0000
  N   N151      1.0  0.9378600000000001  0.79081  0.05157000000000001  1.0000
  N   N152      1.0  0.5568600000000001  0.16468  0.51381  1.0000
  N   N153      1.0  0.019210000000000005  0.18337  0.7795400000000002  1.0000
  N   N154      1.0  0.1855  0.15274999999999994  0.96839  1.0000
  N   N155      1.0  0.31017  0.3507899999999999  0.27378  1.0000
  N   N156      1.0  0.05686  0.3353199999999999  0.48619000000000007  1.0000
  N   N157      1.0  0.026210000000000004  0.04198  0.89685  1.0000
  N   N158      1.0  0.44818  0.7601399999999998  0.4354300000000001  1.0000
  N   N159      1.0  0.31572  0.84705  0.46743000000000007  1.0000
  N   N160      1.0  0.04914000000000001  0.82142  0.6656400000000001  1.0000
