data_image0
_chemical_formula_structural       Zn24H144C264N48O120
_chemical_formula_sum              "Zn24 H144 C264 N48 O120"
_cell_length_a       31.02548
_cell_length_b       31.01497
_cell_length_c       31.557179999999995
_cell_angle_alpha    119.39146999999998
_cell_angle_beta     119.44178
_cell_angle_gamma    89.95122

_symmetry_space_group_name_H-M    'P 1'
_symmetry_Int_Tables_number       1

loop_
  _symmetry_equiv_pos_as_xyz
  'x,y,z'

loop_
  _atom_site_type_symbol
  _atom_site_label
  _atom_site_symmetry_multiplicity
  _atom_site_fract_x
  _atom_site_fract_y
  _atom_site_fract_z
  _atom_site_occupancy
  Zn  Zn1       1.0  0.7356299999999998  0.4831399999999999  0.25527  1.0000
  Zn  Zn2       1.0  0.80739  0.4697199999999999  0.33643999999999996  1.0000
  Zn  Zn3       1.0  0.52249  0.7739899999999998  0.25507  1.0000
  Zn  Zn4       1.0  0.5298899999999998  0.8676699999999998  0.33587  1.0000
  Zn  Zn5       1.0  0.7738699999999997  0.73588  0.25715  1.0000
  Zn  Zn6       1.0  0.8680399999999998  0.8082399999999997  0.33786  1.0000
  Zn  Zn7       1.0  0.4807399999999999  0.52101  0.25349  1.0000
  Zn  Zn8       1.0  0.46940999999999977  0.52976  0.33538  1.0000
  Zn  Zn9       1.0  0.26438  0.51686  0.74473  1.0000
  Zn  Zn10      1.0  0.19261999999999996  0.5302799999999998  0.66356  1.0000
  Zn  Zn11      1.0  0.4775199999999999  0.22601  0.74493  1.0000
  Zn  Zn12      1.0  0.47011999999999987  0.13232999999999995  0.66413  1.0000
  Zn  Zn13      1.0  0.22613999999999992  0.26411999999999997  0.7428499999999999  1.0000
  Zn  Zn14      1.0  0.13197000000000006  0.19176  0.66214  1.0000
  Zn  Zn15      1.0  0.51927  0.47899  0.74651  1.0000
  Zn  Zn16      1.0  0.5306  0.47024000000000005  0.66462  1.0000
  Zn  Zn17      1.0  0.5714699999999998  0.83314  0.00012999999999999996  1.0000
  Zn  Zn18      1.0  0.5653799999999998  0.7507299999999998  0.00048  1.0000
  Zn  Zn19      1.0  0.42853999999999987  0.16685999999999998  0.99987  1.0000
  Zn  Zn20      1.0  0.43461999999999984  0.24926999999999996  0.99952  1.0000
  Zn  Zn21      1.0  0.1667199999999999  0.5705399999999999  0.9995599999999999  1.0000
  Zn  Zn22      1.0  0.24880999999999986  0.5632199999999999  0.9982199999999999  1.0000
  Zn  Zn23      1.0  0.8332899999999998  0.42945  0.00043999999999999996  1.0000
  Zn  Zn24      1.0  0.7511899999999998  0.4367699999999999  0.0017799999999999995  1.0000
  H   H1        1.0  0.8651899999999998  0.9885399999999998  0.27454  1.0000
  H   H2        1.0  0.8864199999999998  0.06079  0.29047  1.0000
  H   H3        1.0  0.015259999999999954  0.32225  0.47488  1.0000
  H   H4        1.0  0.9344999999999998  0.2803199999999999  0.4008599999999999  1.0000
  H   H5        1.0  0.7258299999999998  0.14183  0.19427  1.0000
  H   H6        1.0  0.66743  0.17605  0.16917  1.0000
  H   H7        1.0  0.7179299999999998  0.7902799999999998  0.15451  1.0000
  H   H8        1.0  0.85724  0.92287  0.28711  1.0000
  H   H9        1.0  0.7314299999999999  0.91864  0.13823999999999997  1.0000
  H   H10       1.0  0.19551  0.35489  0.68446  1.0000
  H   H11       1.0  0.09340999999999997  0.3816  0.55293  1.0000
  H   H12       1.0  0.04828000000000005  0.23656999999999995  0.53099  1.0000
  H   H13       1.0  0.59893  0.3368199999999999  0.13517  1.0000
  H   H14       1.0  0.59148  0.18947  0.1161  1.0000
  H   H15       1.0  0.7389399999999998  0.31309  0.23974  1.0000
  H   H16       1.0  0.9283599999999997  0.14430999999999997  0.34897999999999996  1.0000
  H   H17       1.0  0.84819  0.25166  0.32282  1.0000
  H   H18       1.0  0.7653799999999996  0.08609999999999994  0.20926999999999996  1.0000
  H   H19       1.0  0.4093799999999999  0.28854  0.27674  1.0000
  H   H20       1.0  0.40332  0.23215999999999987  0.29292999999999997  1.0000
  H   H21       1.0  0.45811999999999986  0.15267999999999998  0.4756099999999999  1.0000
  H   H22       1.0  0.46367  0.12033999999999997  0.40062  1.0000
  H   H23       1.0  0.4671999999999999  0.055099999999999975  0.19548  1.0000
  H   H24       1.0  0.5020499999999998  0.99744  0.17139999999999997  1.0000
  H   H25       1.0  0.4366499999999999  0.3616399999999999  0.15223  1.0000
  H   H26       1.0  0.4296699999999999  0.36618999999999996  0.28697  1.0000
  H   H27       1.0  0.4059799999999999  0.21938999999999992  0.14026  1.0000
  H   H28       1.0  0.4878099999999999  0.32907  0.68553  1.0000
  H   H29       1.0  0.4578299999999999  0.17106000000000002  0.55364  1.0000
  H   H30       1.0  0.48254999999999987  0.29448  0.53257  1.0000
  H   H31       1.0  0.54013  0.8039499999999998  0.13632  1.0000
  H   H32       1.0  0.5261899999999998  0.9332299999999998  0.11909999999999998  1.0000
  H   H33       1.0  0.50086  0.9285699999999998  0.23984999999999998  1.0000
  H   H34       1.0  0.41947999999999985  0.20636999999999997  0.35067999999999994  1.0000
  H   H35       1.0  0.47292999999999985  0.07243999999999995  0.32349999999999995  1.0000
  H   H36       1.0  0.4421799999999999  0.12530999999999998  0.21047999999999997  1.0000
  H   H37       1.0  0.28704  0.8635699999999996  0.27298  1.0000
  H   H38       1.0  0.23122999999999988  0.88573  0.29006  1.0000
  H   H39       1.0  0.1524099999999999  0.01518999999999999  0.47325999999999996  1.0000
  H   H40       1.0  0.12067999999999997  0.9345999999999998  0.39908  1.0000
  H   H41       1.0  0.053299999999999965  0.72593  0.19341999999999998  1.0000
  H   H42       1.0  0.99419  0.66761  0.16905999999999996  1.0000
  H   H43       1.0  0.36482  0.71588  0.15243  1.0000
  H   H44       1.0  0.3648199999999999  0.8554899999999998  0.28502999999999995  1.0000
  H   H45       1.0  0.22053  0.7292299999999998  0.13715  1.0000
  H   H46       1.0  0.32830999999999994  0.19486999999999988  0.6841399999999999  1.0000
  H   H47       1.0  0.17047999999999985  0.09310999999999993  0.5512099999999999  1.0000
  H   H48       1.0  0.29448999999999986  0.048070000000000015  0.53098  1.0000
  H   H49       1.0  0.80071  0.6002799999999998  0.13757  1.0000
  H   H50       1.0  0.9281199999999997  0.59201  0.11715  1.0000
  H   H51       1.0  0.9281899999999996  0.7401599999999998  0.24016999999999997  1.0000
  H   H52       1.0  0.2063099999999999  0.92788  0.34856999999999994  1.0000
  H   H53       1.0  0.07225999999999998  0.8485499999999998  0.32211  1.0000
  H   H54       1.0  0.1244  0.7650899999999998  0.20876  1.0000
  H   H55       1.0  0.9895999999999998  0.40915  0.2769  1.0000
  H   H56       1.0  0.06200999999999998  0.40292  0.29301  1.0000
  H   H57       1.0  0.32368  0.45895  0.47726  1.0000
  H   H58       1.0  0.28144999999999987  0.46513999999999983  0.40244999999999986  1.0000
  H   H59       1.0  0.1416  0.46737999999999996  0.19611999999999996  1.0000
  H   H60       1.0  0.17482999999999993  0.50227  0.17183999999999996  1.0000
  H   H61       1.0  0.7922799999999998  0.43693  0.15303  1.0000
  H   H62       1.0  0.9223099999999997  0.42933  0.28735  1.0000
  H   H63       1.0  0.9222599999999997  0.40605  0.14057  1.0000
  H   H64       1.0  0.35579999999999984  0.48797999999999997  0.6864299999999999  1.0000
  H   H65       1.0  0.3826399999999998  0.45864  0.5551299999999999  1.0000
  H   H66       1.0  0.23762  0.48225999999999997  0.53297  1.0000
  H   H67       1.0  0.3319399999999999  0.53808  0.1345  1.0000
  H   H68       1.0  0.18617  0.52535  0.11877  1.0000
  H   H69       1.0  0.3122999999999999  0.50163  0.24072999999999997  1.0000
  H   H70       1.0  0.14567999999999998  0.41995  0.35152  1.0000
  H   H71       1.0  0.25236  0.47381  0.3246  1.0000
  H   H72       1.0  0.08661999999999995  0.4424999999999999  0.21112999999999996  1.0000
  H   H73       1.0  0.13481999999999994  0.01146000000000005  0.72546  1.0000
  H   H74       1.0  0.11359000000000001  0.9392  0.70953  1.0000
  H   H75       1.0  0.9847499999999999  0.6777399999999998  0.52512  1.0000
  H   H76       1.0  0.0655  0.71968  0.59914  1.0000
  H   H77       1.0  0.27417999999999987  0.8581699999999998  0.80573  1.0000
  H   H78       1.0  0.33257999999999993  0.8239499999999997  0.83082  1.0000
  H   H79       1.0  0.2820699999999999  0.20970999999999984  0.8454899999999999  1.0000
  H   H80       1.0  0.14277000000000006  0.07712  0.71289  1.0000
  H   H81       1.0  0.2685799999999999  0.0813499999999999  0.8617599999999997  1.0000
  H   H82       1.0  0.8044899999999998  0.64511  0.31554  1.0000
  H   H83       1.0  0.9065899999999998  0.6184  0.44707  1.0000
  H   H84       1.0  0.9517299999999997  0.76342  0.4690099999999999  1.0000
  H   H85       1.0  0.4010799999999999  0.66317  0.86483  1.0000
  H   H86       1.0  0.4085199999999998  0.8105199999999999  0.8838999999999999  1.0000
  H   H87       1.0  0.26107  0.68691  0.76026  1.0000
  H   H88       1.0  0.07164999999999996  0.85569  0.65102  1.0000
  H   H89       1.0  0.15181999999999995  0.74833  0.67718  1.0000
  H   H90       1.0  0.23462999999999995  0.9138999999999998  0.79073  1.0000
  H   H91       1.0  0.5906299999999998  0.71145  0.7232599999999999  1.0000
  H   H92       1.0  0.59668  0.76784  0.7070699999999999  1.0000
  H   H93       1.0  0.54189  0.84732  0.52439  1.0000
  H   H94       1.0  0.5363299999999998  0.8796600000000001  0.59938  1.0000
  H   H95       1.0  0.53281  0.9448999999999997  0.80452  1.0000
  H   H96       1.0  0.49796  0.002560000000000009  0.8286  1.0000
  H   H97       1.0  0.5633499999999998  0.63836  0.84777  1.0000
  H   H98       1.0  0.57034  0.6338099999999998  0.71303  1.0000
  H   H99       1.0  0.59403  0.78061  0.8597399999999998  1.0000
  H   H100      1.0  0.51219  0.67092  0.31447  1.0000
  H   H101      1.0  0.5421799999999998  0.8289299999999995  0.44636  1.0000
  H   H102      1.0  0.51746  0.7055199999999998  0.46743  1.0000
  H   H103      1.0  0.45986999999999983  0.19603999999999988  0.8636799999999998  1.0000
  H   H104      1.0  0.4738099999999998  0.06676999999999991  0.8808999999999998  1.0000
  H   H105      1.0  0.49914999999999987  0.07141999999999996  0.76015  1.0000
  H   H106      1.0  0.5805299999999998  0.7936299999999997  0.64932  1.0000
  H   H107      1.0  0.52708  0.9275499999999999  0.6765  1.0000
  H   H108      1.0  0.55783  0.87468  0.78952  1.0000
  H   H109      1.0  0.71296  0.1364299999999999  0.7270199999999999  1.0000
  H   H110      1.0  0.7687799999999999  0.11426999999999995  0.7099399999999999  1.0000
  H   H111      1.0  0.8475999999999998  0.9847999999999997  0.52674  1.0000
  H   H112      1.0  0.8793299999999996  0.0654  0.6009199999999999  1.0000
  H   H113      1.0  0.9467099999999998  0.27406  0.80658  1.0000
  H   H114      1.0  0.005820000000000002  0.33238  0.83094  1.0000
  H   H115      1.0  0.6351899999999996  0.28411999999999993  0.8475699999999998  1.0000
  H   H116      1.0  0.6351899999999998  0.14451000000000006  0.71497  1.0000
  H   H117      1.0  0.7794799999999997  0.27077  0.86285  1.0000
  H   H118      1.0  0.6717  0.80512  0.31586  1.0000
  H   H119      1.0  0.8295200000000001  0.9068900000000001  0.44879  1.0000
  H   H120      1.0  0.7055199999999998  0.9519299999999998  0.46902  1.0000
  H   H121      1.0  0.1992999999999999  0.39971999999999985  0.8624299999999999  1.0000
  H   H122      1.0  0.07188999999999994  0.40798999999999996  0.8828499999999999  1.0000
  H   H123      1.0  0.07181999999999994  0.25983999999999996  0.7598299999999999  1.0000
  H   H124      1.0  0.7936899999999998  0.07212000000000005  0.65143  1.0000
  H   H125      1.0  0.9277499999999995  0.15145000000000006  0.67789  1.0000
  H   H126      1.0  0.8756099999999998  0.23489999999999994  0.7912399999999999  1.0000
  H   H127      1.0  0.010409999999999949  0.59085  0.7230999999999999  1.0000
  H   H128      1.0  0.9379999999999997  0.5970699999999998  0.7069899999999999  1.0000
  H   H129      1.0  0.67633  0.54104  0.52274  1.0000
  H   H130      1.0  0.7185599999999998  0.5348599999999998  0.59755  1.0000
  H   H131      1.0  0.8584099999999997  0.5326099999999997  0.8038799999999998  1.0000
  H   H132      1.0  0.8251799999999998  0.49773  0.82816  1.0000
  H   H133      1.0  0.20771999999999988  0.5630699999999998  0.8469699999999999  1.0000
  H   H134      1.0  0.07769999999999992  0.57067  0.71265  1.0000
  H   H135      1.0  0.07774999999999996  0.5939499999999999  0.8594299999999999  1.0000
  H   H136      1.0  0.6441999999999998  0.51202  0.31357  1.0000
  H   H137      1.0  0.61737  0.5413499999999998  0.44487  1.0000
  H   H138      1.0  0.7623800000000001  0.51774  0.46703  1.0000
  H   H139      1.0  0.6680599999999998  0.46190999999999993  0.8654999999999999  1.0000
  H   H140      1.0  0.8138399999999998  0.47465  0.88123  1.0000
  H   H141      1.0  0.6876999999999998  0.49836999999999987  0.75926  1.0000
  H   H142      1.0  0.85432  0.5800499999999998  0.6484799999999998  1.0000
  H   H143      1.0  0.74764  0.5261799999999998  0.6754  1.0000
  H   H144      1.0  0.9133899999999998  0.5574999999999999  0.7888699999999998  1.0000
  C   C1        1.0  0.6656799999999998  0.8246299999999998  0.08545999999999998  1.0000
  C   C2        1.0  0.8101099999999999  0.8292199999999997  0.25713  1.0000
  C   C3        1.0  0.7197799999999998  0.85132  0.14035999999999998  1.0000
  C   C4        1.0  0.74053  0.82801  0.17104  1.0000
  C   C5        1.0  0.7902399999999998  0.8539999999999998  0.22385  1.0000
  C   C6        1.0  0.81892  0.90306  0.24564999999999995  1.0000
  C   C7        1.0  0.7978299999999998  0.92663  0.21494999999999997  1.0000
  C   C8        1.0  0.7481999999999998  0.90054  0.16191  1.0000
  C   C9        1.0  0.13607  0.26049999999999995  0.63502  1.0000
  C   C10       1.0  0.18359999999999996  0.42761000000000005  0.65751  1.0000
  C   C11       1.0  0.12298999999999993  0.29244  0.60974  1.0000
  C   C12       1.0  0.1592799999999999  0.34161  0.64282  1.0000
  C   C13       1.0  0.14788  0.3736599999999998  0.62221  1.0000
  C   C14       1.0  0.10123999999999989  0.35595999999999994  0.5681899999999999  1.0000
  C   C15       1.0  0.06518000000000002  0.3066599999999999  0.53465  1.0000
  C   C16       1.0  0.07586999999999997  0.27466  0.55593  1.0000
  C   C17       1.0  0.7034799999999998  0.38522  0.22241  1.0000
  C   C18       1.0  0.53202  0.24204000000000003  0.07785  1.0000
  C   C19       1.0  0.6719499999999999  0.3301199999999999  0.19015999999999997  1.0000
  C   C20       1.0  0.6184299999999998  0.31184  0.14739  1.0000
  C   C21       1.0  0.58983  0.26109  0.12151  1.0000
  C   C22       1.0  0.6149699999999998  0.22869999999999996  0.13709999999999997  1.0000
  C   C23       1.0  0.6691299999999998  0.24675000000000002  0.17909  1.0000
  C   C24       1.0  0.69745  0.2980599999999999  0.20617  1.0000
  C   C25       1.0  0.80956  0.014149999999999989  0.23015  1.0000
  C   C26       1.0  0.9818299999999998  0.24409  0.43626  1.0000
  C   C27       1.0  0.7451399999999999  0.2215399999999999  0.23251999999999995  1.0000
  C   C28       1.0  0.84667  0.10978999999999992  0.27662999999999993  1.0000
  C   C29       1.0  0.89318  0.15112  0.32407  1.0000
  C   C30       1.0  0.8934399999999999  0.20212  0.34173  1.0000
  C   C31       1.0  0.8483399999999998  0.2123  0.31044  1.0000
  C   C32       1.0  0.8024899999999998  0.1703  0.26229  1.0000
  C   C33       1.0  0.8010499999999998  0.11875  0.24541  1.0000
  C   C34       1.0  0.4196899999999999  0.25714  0.0855  1.0000
  C   C35       1.0  0.44651999999999986  0.4277199999999999  0.2548  1.0000
  C   C36       1.0  0.42041  0.2874  0.14033  1.0000
  C   C37       1.0  0.4304599999999999  0.3414599999999999  0.16973  1.0000
  C   C38       1.0  0.43345999999999985  0.3696299999999999  0.22255  1.0000
  C   C39       1.0  0.42647999999999997  0.34355  0.24551999999999996  1.0000
  C   C40       1.0  0.4166299999999999  0.28937  0.21601999999999996  1.0000
  C   C41       1.0  0.41310999999999987  0.26113  0.16297  1.0000
  C   C42       1.0  0.4995399999999999  0.3745  0.63749  1.0000
  C   C43       1.0  0.47241999999999984  0.22923  0.65845  1.0000
  C   C44       1.0  0.4863099999999999  0.31714  0.61132  1.0000
  C   C45       1.0  0.4824499999999999  0.30074  0.64395  1.0000
  C   C46       1.0  0.47289  0.2480899999999999  0.6232  1.0000
  C   C47       1.0  0.4655000000000001  0.2119799999999999  0.56912  1.0000
  C   C48       1.0  0.46836999999999984  0.22798999999999994  0.53582  1.0000
  C   C49       1.0  0.4795099999999999  0.2813  0.55739  1.0000
  C   C50       1.0  0.5213399999999998  0.84002  0.22274999999999998  1.0000
  C   C51       1.0  0.5483299999999998  0.8436899999999998  0.07965  1.0000
  C   C52       1.0  0.5204  0.8637199999999998  0.19095999999999994  1.0000
  C   C53       1.0  0.5319399999999997  0.84074  0.14869  1.0000
  C   C54       1.0  0.53428  0.86667  0.12348999999999999  1.0000
  C   C55       1.0  0.52393  0.9141699999999998  0.13948  1.0000
  C   C56       1.0  0.5109099999999998  0.93649  0.18078  1.0000
  C   C57       1.0  0.50973  0.91126  0.207  1.0000
  C   C58       1.0  0.4197499999999999  0.21803  0.23228999999999994  1.0000
  C   C59       1.0  0.45348999999999984  0.19274999999999998  0.43759999999999993  1.0000
  C   C60       1.0  0.4865599999999998  0.013489999999999985  0.23355999999999996  1.0000
  C   C61       1.0  0.42862  0.16883  0.27828  1.0000
  C   C62       1.0  0.4295799999999999  0.1746  0.32564  1.0000
  C   C63       1.0  0.44667999999999997  0.14084  0.34276  1.0000
  C   C64       1.0  0.46044  0.09953999999999999  0.31126  1.0000
  C   C65       1.0  0.4581999999999999  0.09385999999999997  0.26329  1.0000
  C   C66       1.0  0.44275999999999993  0.12869999999999998  0.24666999999999997  1.0000
  C   C67       1.0  0.2618699999999999  0.66341  0.08443  1.0000
  C   C68       1.0  0.4285799999999999  0.8091100000000001  0.25479  1.0000
  C   C69       1.0  0.28998  0.71765  0.13913  1.0000
  C   C70       1.0  0.34384  0.7385799999999999  0.16933  1.0000
  C   C71       1.0  0.37060999999999994  0.7884999999999998  0.22189  1.0000
  C   C72       1.0  0.3432499999999999  0.8170499999999998  0.24376999999999993  1.0000
  C   C73       1.0  0.28909  0.79592  0.21344  1.0000
  C   C74       1.0  0.26223999999999986  0.7460999999999998  0.16068  1.0000
  C   C75       1.0  0.37400999999999984  0.1357799999999999  0.6356999999999999  1.0000
  C   C76       1.0  0.22863999999999995  0.18310999999999994  0.6561999999999999  1.0000
  C   C77       1.0  0.3167299999999999  0.12256999999999998  0.60963  1.0000
  C   C78       1.0  0.30023999999999984  0.15872999999999987  0.6423199999999999  1.0000
  C   C79       1.0  0.24750999999999995  0.14738999999999983  0.6211299999999998  1.0000
  C   C80       1.0  0.2114499999999999  0.10093000000000003  0.56688  1.0000
  C   C81       1.0  0.2276499999999999  0.06494999999999998  0.53374  1.0000
  C   C82       1.0  0.28101999999999994  0.07558999999999995  0.5555999999999999  1.0000
  C   C83       1.0  0.8395299999999998  0.70461  0.22442999999999994  1.0000
  C   C84       1.0  0.8374299999999997  0.5330799999999998  0.07941  1.0000
  C   C85       1.0  0.86218  0.6731599999999999  0.19182999999999997  1.0000
  C   C86       1.0  0.8376799999999998  0.61963  0.14931999999999998  1.0000
  C   C87       1.0  0.8622499999999997  0.59081  0.1231  1.0000
  C   C88       1.0  0.9100299999999998  0.6157199999999998  0.13825  1.0000
  C   C89       1.0  0.9338399999999998  0.6699399999999998  0.17972999999999995  1.0000
  C   C90       1.0  0.9098399999999998  0.6985699999999998  0.20707999999999993  1.0000
  C   C91       1.0  0.21727  0.8085299999999999  0.22956999999999997  1.0000
  C   C92       1.0  0.19269999999999993  0.9817299999999999  0.43553  1.0000
  C   C93       1.0  0.012279999999999971  0.7455499999999998  0.23222999999999994  1.0000
  C   C94       1.0  0.16841999999999993  0.84625  0.2763399999999999  1.0000
  C   C95       1.0  0.17447999999999997  0.89289  0.3236899999999999  1.0000
  C   C96       1.0  0.14077999999999993  0.8934199999999998  0.34099  1.0000
  C   C97       1.0  0.09928999999999999  0.8484699999999996  0.30973999999999996  1.0000
  C   C98       1.0  0.09318999999999997  0.8025099999999995  0.26167  1.0000
  C   C99       1.0  0.12802999999999995  0.80085  0.24496  1.0000
  C   C100      1.0  0.8297799999999997  0.42005  0.0861  1.0000
  C   C101      1.0  0.8285  0.44679  0.25515  1.0000
  C   C102      1.0  0.8544299999999998  0.42057999999999984  0.14079999999999998  1.0000
  C   C103      1.0  0.8298699999999996  0.43058999999999986  0.17027  1.0000
  C   C104      1.0  0.8544399999999998  0.43344  0.22299  1.0000
  C   C105      1.0  0.9034099999999998  0.42631  0.24595  1.0000
  C   C106      1.0  0.9279999999999998  0.41651  0.21632  1.0000
  C   C107      1.0  0.9032799999999997  0.41318999999999995  0.16336  1.0000
  C   C108      1.0  0.2614199999999998  0.49861999999999995  0.6368699999999999  1.0000
  C   C109      1.0  0.4289499999999999  0.47311999999999993  0.6595  1.0000
  C   C110      1.0  0.2934  0.48603  0.61165  1.0000
  C   C111      1.0  0.34257  0.48267  0.64483  1.0000
  C   C112      1.0  0.3747499999999999  0.47350000000000003  0.62439  1.0000
  C   C113      1.0  0.35699  0.46609999999999985  0.57033  1.0000
  C   C114      1.0  0.30770999999999993  0.4686899999999999  0.53668  1.0000
  C   C115      1.0  0.2756499999999999  0.47936  0.55784  1.0000
  C   C116      1.0  0.3829899999999999  0.5204  0.22185  1.0000
  C   C117      1.0  0.23546  0.54693  0.07848  1.0000
  C   C118      1.0  0.3275099999999999  0.51958  0.19032  1.0000
  C   C119      1.0  0.30781  0.5305  0.14744999999999997  1.0000
  C   C120      1.0  0.25677  0.53309  0.12254999999999999  1.0000
  C   C121      1.0  0.2256499999999999  0.52322  0.13914  1.0000
  C   C122      1.0  0.24499999999999997  0.51085  0.18101  1.0000
  C   C123      1.0  0.29643999999999987  0.50971  0.20719999999999997  1.0000
  C   C124      1.0  0.01563999999999999  0.41973999999999995  0.23261999999999997  1.0000
  C   C125      1.0  0.24543999999999994  0.4537099999999999  0.43834  1.0000
  C   C126      1.0  0.22126  0.48766  0.23479  1.0000
  C   C127      1.0  0.11079999999999998  0.4288799999999999  0.27892  1.0000
  C   C128      1.0  0.15233999999999995  0.42998  0.32638  1.0000
  C   C129      1.0  0.20320999999999992  0.44725999999999994  0.34373999999999993  1.0000
  C   C130      1.0  0.21309  0.46116  0.31236  1.0000
  C   C131      1.0  0.17079999999999998  0.45885  0.26432  1.0000
  C   C132      1.0  0.11936  0.44318  0.24744  1.0000
  C   C133      1.0  0.3343199999999999  0.17537  0.91454  1.0000
  C   C134      1.0  0.1898999999999999  0.17077999999999977  0.7428699999999998  1.0000
  C   C135      1.0  0.28022999999999987  0.14868000000000003  0.85964  1.0000
  C   C136      1.0  0.25947999999999993  0.17198999999999995  0.8289599999999999  1.0000
  C   C137      1.0  0.2097599999999999  0.14599999999999988  0.7761499999999999  1.0000
  C   C138      1.0  0.18108999999999995  0.09692999999999999  0.75435  1.0000
  C   C139      1.0  0.20217999999999994  0.07337000000000002  0.78505  1.0000
  C   C140      1.0  0.25181  0.09946  0.83809  1.0000
  C   C141      1.0  0.8639399999999999  0.7395  0.36498  1.0000
  C   C142      1.0  0.8164099999999997  0.57239  0.34249  1.0000
  C   C143      1.0  0.8770199999999998  0.70755  0.39025  1.0000
  C   C144      1.0  0.8407299999999996  0.65839  0.35718  1.0000
  C   C145      1.0  0.85213  0.62634  0.37779  1.0000
  C   C146      1.0  0.8987599999999998  0.64404  0.43181  1.0000
  C   C147      1.0  0.9348299999999998  0.69334  0.46535  1.0000
  C   C148      1.0  0.92413  0.7253399999999998  0.44407  1.0000
  C   C149      1.0  0.2965199999999999  0.6147799999999998  0.7775899999999998  1.0000
  C   C150      1.0  0.4679899999999999  0.75796  0.9221499999999999  1.0000
  C   C151      1.0  0.3280499999999999  0.6698799999999998  0.80984  1.0000
  C   C152      1.0  0.3815799999999998  0.6881599999999999  0.8526099999999998  1.0000
  C   C153      1.0  0.41018  0.73891  0.87849  1.0000
  C   C154      1.0  0.3850399999999998  0.7712899999999997  0.8628999999999999  1.0000
  C   C155      1.0  0.33088000000000006  0.75325  0.82091  1.0000
  C   C156      1.0  0.3025599999999999  0.70194  0.79383  1.0000
  C   C157      1.0  0.1904499999999999  0.98584  0.76985  1.0000
  C   C158      1.0  0.018169999999999898  0.7559099999999999  0.5637399999999999  1.0000
  C   C159      1.0  0.2548699999999998  0.7784599999999997  0.7674799999999999  1.0000
  C   C160      1.0  0.15334  0.8902099999999998  0.72337  1.0000
  C   C161      1.0  0.10682999999999994  0.8488799999999997  0.67592  1.0000
  C   C162      1.0  0.10655999999999999  0.79788  0.65827  1.0000
  C   C163      1.0  0.15166999999999994  0.7876899999999998  0.68956  1.0000
  C   C164      1.0  0.19751999999999995  0.8296899999999998  0.73771  1.0000
  C   C165      1.0  0.19895999999999983  0.8812499999999996  0.7545899999999998  1.0000
  C   C166      1.0  0.5803199999999997  0.74286  0.9144999999999999  1.0000
  C   C167      1.0  0.5534899999999998  0.5722799999999998  0.7452  1.0000
  C   C168      1.0  0.5795999999999998  0.7125999999999999  0.8596699999999999  1.0000
  C   C169      1.0  0.5695399999999997  0.6585299999999996  0.8302699999999998  1.0000
  C   C170      1.0  0.5665399999999998  0.63037  0.77745  1.0000
  C   C171      1.0  0.57353  0.65645  0.75448  1.0000
  C   C172      1.0  0.5833799999999999  0.71063  0.7839799999999998  1.0000
  C   C173      1.0  0.5868999999999996  0.7388599999999995  0.8370299999999998  1.0000
  C   C174      1.0  0.5004699999999997  0.6254899999999998  0.36250999999999994  1.0000
  C   C175      1.0  0.52759  0.77077  0.34155  1.0000
  C   C176      1.0  0.5136999999999998  0.6828599999999998  0.3886799999999999  1.0000
  C   C177      1.0  0.51756  0.69926  0.35605  1.0000
  C   C178      1.0  0.52712  0.7518999999999998  0.37679999999999997  1.0000
  C   C179      1.0  0.53451  0.78801  0.4308799999999999  1.0000
  C   C180      1.0  0.5316399999999998  0.7720099999999999  0.46418  1.0000
  C   C181      1.0  0.5205  0.7186999999999998  0.44261  1.0000
  C   C182      1.0  0.4786699999999999  0.15996999999999978  0.7772499999999998  1.0000
  C   C183      1.0  0.4516699999999999  0.15631000000000003  0.92035  1.0000
  C   C184      1.0  0.47960999999999976  0.13628  0.80904  1.0000
  C   C185      1.0  0.46805999999999987  0.15924999999999997  0.85131  1.0000
  C   C186      1.0  0.46572999999999976  0.13332999999999987  0.8765099999999998  1.0000
  C   C187      1.0  0.47608  0.08583000000000005  0.86052  1.0000
  C   C188      1.0  0.48909  0.06351000000000002  0.81922  1.0000
  C   C189      1.0  0.4902799999999998  0.08872999999999989  0.7929999999999998  1.0000
  C   C190      1.0  0.58025  0.78197  0.7677099999999999  1.0000
  C   C191      1.0  0.54652  0.80725  0.5624  1.0000
  C   C192      1.0  0.51344  0.9865099999999999  0.76644  1.0000
  C   C193      1.0  0.57139  0.83117  0.72172  1.0000
  C   C194      1.0  0.5704199999999999  0.8253899999999997  0.6743599999999998  1.0000
  C   C195      1.0  0.5533199999999998  0.8591499999999999  0.65724  1.0000
  C   C196      1.0  0.53957  0.9004599999999999  0.68874  1.0000
  C   C197      1.0  0.54181  0.9061299999999999  0.73671  1.0000
  C   C198      1.0  0.5572499999999998  0.8712899999999998  0.75333  1.0000
  C   C199      1.0  0.7381399999999996  0.33658999999999994  0.9155699999999998  1.0000
  C   C200      1.0  0.5714199999999998  0.19088999999999995  0.7452099999999998  1.0000
  C   C201      1.0  0.71003  0.28234999999999977  0.8608699999999998  1.0000
  C   C202      1.0  0.6561699999999999  0.26140999999999986  0.8306599999999997  1.0000
  C   C203      1.0  0.6294  0.21149999999999994  0.77811  1.0000
  C   C204      1.0  0.6567499999999997  0.18295  0.75623  1.0000
  C   C205      1.0  0.7109099999999997  0.2040799999999999  0.7865599999999999  1.0000
  C   C206      1.0  0.73777  0.2539  0.83932  1.0000
  C   C207      1.0  0.6259999999999998  0.86421  0.36429999999999996  1.0000
  C   C208      1.0  0.7713699999999998  0.81689  0.34379999999999994  1.0000
  C   C209      1.0  0.6832799999999998  0.8774199999999998  0.39037  1.0000
  C   C210      1.0  0.6997699999999998  0.84127  0.35768  1.0000
  C   C211      1.0  0.7525  0.85261  0.37887  1.0000
  C   C212      1.0  0.7885499999999998  0.8990699999999998  0.43311999999999995  1.0000
  C   C213      1.0  0.7723599999999998  0.93504  0.46626  1.0000
  C   C214      1.0  0.7189899999999998  0.9244099999999997  0.4444  1.0000
  C   C215      1.0  0.16048  0.2953899999999998  0.7755699999999999  1.0000
  C   C216      1.0  0.16256999999999988  0.4669199999999998  0.9205899999999998  1.0000
  C   C217      1.0  0.13782999999999984  0.32683999999999996  0.8081699999999999  1.0000
  C   C218      1.0  0.16233  0.3803599999999999  0.85068  1.0000
  C   C219      1.0  0.13775999999999988  0.40919  0.8769  1.0000
  C   C220      1.0  0.08998000000000003  0.38427  0.86175  1.0000
  C   C221      1.0  0.06615999999999995  0.3300599999999999  0.82027  1.0000
  C   C222      1.0  0.09015999999999996  0.3014299999999999  0.7929199999999998  1.0000
  C   C223      1.0  0.78274  0.19146999999999995  0.77043  1.0000
  C   C224      1.0  0.8073099999999995  0.01827000000000001  0.56447  1.0000
  C   C225      1.0  0.9877299999999998  0.25444999999999984  0.7677599999999998  1.0000
  C   C226      1.0  0.8315899999999998  0.15375  0.72366  1.0000
  C   C227      1.0  0.82553  0.10710999999999994  0.67631  1.0000
  C   C228      1.0  0.85923  0.10656999999999994  0.659  1.0000
  C   C229      1.0  0.9007199999999995  0.15152999999999994  0.69026  1.0000
  C   C230      1.0  0.9068199999999996  0.19748999999999992  0.7383299999999999  1.0000
  C   C231      1.0  0.8719799999999995  0.19914999999999983  0.7550399999999998  1.0000
  C   C232      1.0  0.17022999999999994  0.57995  0.9138999999999999  1.0000
  C   C233      1.0  0.17149999999999996  0.55321  0.74485  1.0000
  C   C234      1.0  0.1455699999999999  0.57942  0.8592  1.0000
  C   C235      1.0  0.17013999999999996  0.5694099999999997  0.82973  1.0000
  C   C236      1.0  0.1455699999999999  0.5665499999999998  0.777  1.0000
  C   C237      1.0  0.09659999999999998  0.57369  0.75405  1.0000
  C   C238      1.0  0.07200999999999999  0.5834899999999998  0.78368  1.0000
  C   C239      1.0  0.09672999999999986  0.58681  0.8366399999999999  1.0000
  C   C240      1.0  0.7385799999999998  0.50138  0.36312  1.0000
  C   C241      1.0  0.57105  0.52688  0.3405  1.0000
  C   C242      1.0  0.70661  0.5139699999999998  0.3883499999999999  1.0000
  C   C243      1.0  0.65743  0.51733  0.35517  1.0000
  C   C244      1.0  0.6252599999999998  0.5265  0.37561  1.0000
  C   C245      1.0  0.6430199999999998  0.5338999999999998  0.42967  1.0000
  C   C246      1.0  0.69229  0.5313099999999997  0.4633199999999999  1.0000
  C   C247      1.0  0.7243499999999998  0.52063  0.44215999999999994  1.0000
  C   C248      1.0  0.61702  0.47959999999999997  0.7781499999999999  1.0000
  C   C249      1.0  0.76455  0.4530599999999999  0.9215199999999999  1.0000
  C   C250      1.0  0.6724899999999998  0.48042  0.80968  1.0000
  C   C251      1.0  0.6921999999999998  0.46949  0.85255  1.0000
  C   C252      1.0  0.7432399999999998  0.4669099999999999  0.8774499999999997  1.0000
  C   C253      1.0  0.7743599999999998  0.47678  0.86086  1.0000
  C   C254      1.0  0.75501  0.48914999999999986  0.81899  1.0000
  C   C255      1.0  0.70357  0.49029  0.7928  1.0000
  C   C256      1.0  0.98437  0.58026  0.76738  1.0000
  C   C257      1.0  0.7545599999999998  0.54628  0.56166  1.0000
  C   C258      1.0  0.7787499999999998  0.5123399999999998  0.7652099999999998  1.0000
  C   C259      1.0  0.88921  0.5711199999999997  0.7210799999999998  1.0000
  C   C260      1.0  0.84767  0.57002  0.67362  1.0000
  C   C261      1.0  0.7968  0.55273  0.65626  1.0000
  C   C262      1.0  0.7869099999999998  0.5388399999999999  0.6876399999999999  1.0000
  C   C263      1.0  0.8291999999999998  0.5411399999999997  0.73568  1.0000
  C   C264      1.0  0.88065  0.55682  0.75256  1.0000
  N   N1        1.0  0.8282999999999998  0.97622  0.23905  1.0000
  N   N2        1.0  0.84992  0.06005999999999997  0.2641299999999999  1.0000
  N   N3        1.0  0.01870999999999999  0.29336  0.48181  1.0000
  N   N4        1.0  0.93892  0.24494999999999995  0.39151  1.0000
  N   N5        1.0  0.7549199999999998  0.17621999999999996  0.22832999999999998  1.0000
  N   N6        1.0  0.69252  0.21203999999999998  0.19211999999999999  1.0000
  N   N7        1.0  0.4102  0.26484  0.24095  1.0000
  N   N8        1.0  0.41313  0.20636  0.26629  1.0000
  N   N9        1.0  0.4619199999999999  0.18861000000000003  0.48287  1.0000
  N   N10       1.0  0.4506999999999999  0.14707  0.39216  1.0000
  N   N11       1.0  0.4719499999999998  0.05436999999999997  0.22929999999999995  1.0000
  N   N12       1.0  0.49951999999999996  0.98365  0.19364  1.0000
  N   N13       1.0  0.2637099999999999  0.8267599999999998  0.23755999999999994  1.0000
  N   N14       1.0  0.20584  0.8492099999999998  0.26403  1.0000
  N   N15       1.0  0.18839000000000003  0.018580000000000006  0.48066  1.0000
  N   N16       1.0  0.14714  0.93901  0.39029  1.0000
  N   N17       1.0  0.053139999999999986  0.75513  0.22762  1.0000
  N   N18       1.0  0.98119  0.6930299999999998  0.19188999999999998  1.0000
  N   N19       1.0  0.9773899999999998  0.40991  0.24102999999999994  1.0000
  N   N20       1.0  0.06128999999999997  0.41315  0.2667  1.0000
  N   N21       1.0  0.29466  0.4624099999999999  0.48396  1.0000
  N   N22       1.0  0.2461899999999999  0.4513799999999999  0.39331999999999995  1.0000
  N   N23       1.0  0.17616  0.4726199999999999  0.23027  1.0000
  N   N24       1.0  0.21094  0.50008  0.1944  1.0000
  N   N25       1.0  0.17171000000000006  0.023780000000000003  0.76095  1.0000
  N   N26       1.0  0.15009  0.9399399999999999  0.73587  1.0000
  N   N27       1.0  0.9812999999999997  0.70664  0.51819  1.0000
  N   N28       1.0  0.06108999999999994  0.7550499999999998  0.6084899999999999  1.0000
  N   N29       1.0  0.24507999999999994  0.82378  0.77167  1.0000
  N   N30       1.0  0.3074899999999998  0.7879599999999997  0.8078799999999999  1.0000
  N   N31       1.0  0.58981  0.7351599999999998  0.75905  1.0000
  N   N32       1.0  0.58687  0.7936399999999998  0.7336999999999999  1.0000
  N   N33       1.0  0.5380899999999996  0.8113899999999997  0.5171299999999999  1.0000
  N   N34       1.0  0.5493099999999997  0.8529300000000001  0.60784  1.0000
  N   N35       1.0  0.52805  0.94563  0.7707  1.0000
  N   N36       1.0  0.50049  0.016339999999999993  0.80636  1.0000
  N   N37       1.0  0.7363  0.17324  0.76244  1.0000
  N   N38       1.0  0.7941599999999998  0.15078999999999992  0.73597  1.0000
  N   N39       1.0  0.8116199999999998  0.9814099999999999  0.5193399999999999  1.0000
  N   N40       1.0  0.85287  0.060989999999999954  0.6097099999999999  1.0000
  N   N41       1.0  0.9468699999999998  0.24487000000000006  0.77238  1.0000
  N   N42       1.0  0.018819999999999847  0.3069599999999999  0.8081099999999998  1.0000
  N   N43       1.0  0.02260999999999987  0.59009  0.7589599999999999  1.0000
  N   N44       1.0  0.9387199999999998  0.58685  0.73329  1.0000
  N   N45       1.0  0.70534  0.5375899999999998  0.51604  1.0000
  N   N46       1.0  0.75381  0.54862  0.60668  1.0000
  N   N47       1.0  0.82384  0.52738  0.76973  1.0000
  N   N48       1.0  0.7890699999999998  0.49992  0.8056  1.0000
  O   O1        1.0  0.64683  0.85027  0.06261  1.0000
  O   O2        1.0  0.6418299999999998  0.77881  0.06596  1.0000
  O   O3        1.0  0.77832  0.78691  0.23543999999999998  1.0000
  O   O4        1.0  0.8564899999999996  0.8514099999999997  0.30476999999999993  1.0000
  O   O5        1.0  0.10135  0.21865999999999994  0.61127  1.0000
  O   O6        1.0  0.1823  0.27821  0.68049  1.0000
  O   O7        1.0  0.22717999999999997  0.44332999999999995  0.70637  1.0000
  O   O8        1.0  0.16736  0.45477  0.6364  1.0000
  O   O9        1.0  0.74846  0.4012899999999999  0.26907  1.0000
  O   O10       1.0  0.6838799999999998  0.41280999999999995  0.20223999999999998  1.0000
  O   O11       1.0  0.51223  0.27159  0.06143  1.0000
  O   O12       1.0  0.50675  0.19778999999999994  0.060549999999999986  1.0000
  O   O13       1.0  0.7634799999999998  0.007409999999999985  0.19617999999999997  1.0000
  O   O14       1.0  0.9871099999999998  0.20472999999999994  0.43614999999999987  1.0000
  O   O15       1.0  0.7786899999999998  0.26462999999999987  0.26754  1.0000
  O   O16       1.0  0.41744  0.20924  0.06507  1.0000
  O   O17       1.0  0.4222899999999999  0.2817699999999999  0.06363  1.0000
  O   O18       1.0  0.4560599999999999  0.44785  0.23232999999999995  1.0000
  O   O19       1.0  0.4479799999999999  0.45367  0.3026  1.0000
  O   O20       1.0  0.51073  0.39266  0.61386  1.0000
  O   O21       1.0  0.49944999999999995  0.40232  0.68345  1.0000
  O   O22       1.0  0.47634999999999983  0.2617499999999999  0.7066499999999999  1.0000
  O   O23       1.0  0.46888999999999986  0.18129999999999993  0.63785  1.0000
  O   O24       1.0  0.5230499999999998  0.87008  0.26957  1.0000
  O   O25       1.0  0.52098  0.79231  0.20217  1.0000
  O   O26       1.0  0.5515599999999998  0.79764  0.062159999999999986  1.0000
  O   O27       1.0  0.5562499999999998  0.8712799999999998  0.06288  1.0000
  O   O28       1.0  0.43182  0.19046  0.19837  1.0000
  O   O29       1.0  0.4489499999999999  0.23238  0.43817  1.0000
  O   O30       1.0  0.4879099999999999  0.004690000000000008  0.26813  1.0000
  O   O31       1.0  0.21328  0.6450099999999998  0.06132  1.0000
  O   O32       1.0  0.28812  0.6389999999999998  0.06515  1.0000
  O   O33       1.0  0.4495699999999998  0.7781199999999998  0.23269  1.0000
  O   O34       1.0  0.4536199999999999  0.85542  0.30256999999999995  1.0000
  O   O35       1.0  0.39254999999999984  0.10112999999999987  0.6125799999999999  1.0000
  O   O36       1.0  0.40136  0.18207  0.68117  1.0000
  O   O37       1.0  0.26143999999999995  0.22711999999999993  0.7045499999999999  1.0000
  O   O38       1.0  0.18060999999999994  0.16654000000000005  0.63546  1.0000
  O   O39       1.0  0.8702599999999998  0.74927  0.27147  1.0000
  O   O40       1.0  0.79174  0.6850299999999998  0.20401  1.0000
  O   O41       1.0  0.7921799999999998  0.51332  0.06462  1.0000
  O   O42       1.0  0.86341  0.50777  0.06036  1.0000
  O   O43       1.0  0.18991  0.76257  0.1959  1.0000
  O   O44       1.0  0.2323099999999999  0.9868099999999999  0.43609999999999993  1.0000
  O   O45       1.0  0.004470000000000028  0.77924  0.26754  1.0000
  O   O46       1.0  0.8575899999999997  0.419  0.06633  1.0000
  O   O47       1.0  0.7829499999999998  0.42166999999999993  0.06378  1.0000
  O   O48       1.0  0.78623  0.45684  0.23274  1.0000
  O   O49       1.0  0.8500999999999997  0.44805  0.30283  1.0000
  O   O50       1.0  0.22015  0.5106299999999998  0.6134699999999998  1.0000
  O   O51       1.0  0.27853999999999995  0.49732  0.68196  1.0000
  O   O52       1.0  0.4452899999999998  0.47783  0.70821  1.0000
  O   O53       1.0  0.4557199999999998  0.46874999999999994  0.6380499999999999  1.0000
  O   O54       1.0  0.40036999999999995  0.52274  0.26914  1.0000
  O   O55       1.0  0.4096799999999998  0.5192199999999998  0.20056  1.0000
  O   O56       1.0  0.26305  0.54863  0.059419999999999994  1.0000
  O   O57       1.0  0.19171  0.55613  0.06308999999999998  1.0000
  O   O58       1.0  0.009439999999999992  0.43198  0.19887  1.0000
  O   O59       1.0  0.20613999999999993  0.4486499999999998  0.43836999999999987  1.0000
  O   O60       1.0  0.26476  0.48975  0.26987  1.0000
  O   O61       1.0  0.35317999999999994  0.14972999999999992  0.9373899999999998  1.0000
  O   O62       1.0  0.35818000000000005  0.22118  0.93404  1.0000
  O   O63       1.0  0.22168999999999994  0.21308999999999984  0.7645599999999999  1.0000
  O   O64       1.0  0.14350999999999994  0.14858  0.69523  1.0000
  O   O65       1.0  0.8986599999999997  0.7813399999999998  0.38873  1.0000
  O   O66       1.0  0.8177  0.7217899999999998  0.31951  1.0000
  O   O67       1.0  0.7728299999999998  0.55667  0.29363  1.0000
  O   O68       1.0  0.8326399999999998  0.54522  0.3635999999999999  1.0000
  O   O69       1.0  0.2515399999999999  0.5987  0.7309299999999997  1.0000
  O   O70       1.0  0.3161299999999999  0.5871799999999998  0.7977599999999999  1.0000
  O   O71       1.0  0.48776999999999987  0.7284099999999996  0.9385699999999998  1.0000
  O   O72       1.0  0.49325999999999987  0.80221  0.93945  1.0000
  O   O73       1.0  0.23651999999999995  0.99259  0.80382  1.0000
  O   O74       1.0  0.012900000000000014  0.7952699999999998  0.56385  1.0000
  O   O75       1.0  0.22131999999999985  0.7353599999999999  0.7324599999999999  1.0000
  O   O76       1.0  0.5825599999999997  0.7907599999999998  0.93493  1.0000
  O   O77       1.0  0.57772  0.7182199999999997  0.9363699999999999  1.0000
  O   O78       1.0  0.5439399999999998  0.5521399999999997  0.76767  1.0000
  O   O79       1.0  0.5520199999999997  0.5463299999999998  0.6974  1.0000
  O   O80       1.0  0.48927999999999977  0.60733  0.38613999999999987  1.0000
  O   O81       1.0  0.5005599999999999  0.5976799999999998  0.31655  1.0000
  O   O82       1.0  0.52366  0.7382499999999997  0.29334  1.0000
  O   O83       1.0  0.5311099999999997  0.8186899999999998  0.36215  1.0000
  O   O84       1.0  0.4769599999999999  0.12992  0.73043  1.0000
  O   O85       1.0  0.47903  0.20767999999999995  0.79783  1.0000
  O   O86       1.0  0.44844999999999985  0.20235999999999998  0.9378399999999999  1.0000
  O   O87       1.0  0.4437599999999999  0.12871999999999986  0.9371199999999997  1.0000
  O   O88       1.0  0.56819  0.8095299999999997  0.80163  1.0000
  O   O89       1.0  0.5510499999999998  0.7676099999999998  0.56183  1.0000
  O   O90       1.0  0.51209  0.9953099999999999  0.73187  1.0000
  O   O91       1.0  0.78672  0.35498999999999997  0.9386799999999998  1.0000
  O   O92       1.0  0.7118899999999998  0.361  0.93485  1.0000
  O   O93       1.0  0.55044  0.2218799999999999  0.76731  1.0000
  O   O94       1.0  0.5463899999999998  0.14458  0.6974299999999999  1.0000
  O   O95       1.0  0.60746  0.8988699999999997  0.38742  1.0000
  O   O96       1.0  0.59865  0.81793  0.31883  1.0000
  O   O97       1.0  0.73856  0.7728699999999997  0.29545  1.0000
  O   O98       1.0  0.8194  0.8334499999999998  0.36453  1.0000
  O   O99       1.0  0.12974  0.25072  0.72853  1.0000
  O   O100      1.0  0.20826999999999984  0.3149699999999999  0.7959899999999998  1.0000
  O   O101      1.0  0.20782999999999996  0.48668  0.93538  1.0000
  O   O102      1.0  0.13659999999999992  0.4922299999999999  0.93964  1.0000
  O   O103      1.0  0.8101  0.23742999999999995  0.8040999999999999  1.0000
  O   O104      1.0  0.7676999999999998  0.01317999999999997  0.5639  1.0000
  O   O105      1.0  0.9955399999999996  0.22075999999999987  0.7324599999999999  1.0000
  O   O106      1.0  0.14240999999999993  0.5809899999999998  0.9336599999999998  1.0000
  O   O107      1.0  0.21705999999999986  0.57832  0.9362099999999999  1.0000
  O   O108      1.0  0.21377  0.54316  0.76726  1.0000
  O   O109      1.0  0.14991  0.55194  0.69717  1.0000
  O   O110      1.0  0.7798599999999999  0.48937  0.38653  1.0000
  O   O111      1.0  0.7214599999999998  0.50268  0.31804  1.0000
  O   O112      1.0  0.5547199999999998  0.52217  0.29179  1.0000
  O   O113      1.0  0.54429  0.53125  0.36195  1.0000
  O   O114      1.0  0.5996399999999998  0.47725999999999974  0.7308599999999998  1.0000
  O   O115      1.0  0.59033  0.48076999999999986  0.7994399999999998  1.0000
  O   O116      1.0  0.7369599999999997  0.45137  0.94058  1.0000
  O   O117      1.0  0.8082999999999998  0.4438699999999999  0.93691  1.0000
  O   O118      1.0  0.9905699999999997  0.56802  0.80113  1.0000
  O   O119      1.0  0.79387  0.55135  0.56163  1.0000
  O   O120      1.0  0.7352499999999997  0.5102499999999999  0.7301199999999999  1.0000
