data_image0
_chemical_formula_structural       Ni12H192C288N24O72
_chemical_formula_sum              "Ni12 H192 C288 N24 O72"
_cell_length_a       26.41431
_cell_length_b       26.41789
_cell_length_c       26.412630000000004
_cell_angle_alpha    109.47246999999999
_cell_angle_beta     109.48231
_cell_angle_gamma    109.47151999999998

_symmetry_space_group_name_H-M    'P 1'
_symmetry_Int_Tables_number       1

loop_
  _symmetry_equiv_pos_as_xyz
  'x,y,z'

loop_
  _atom_site_type_symbol
  _atom_site_label
  _atom_site_symmetry_multiplicity
  _atom_site_fract_x
  _atom_site_fract_y
  _atom_site_fract_z
  _atom_site_occupancy
  Ni  Ni1       1.0  0.59954  0.04969999999999994  0.7996899999999999  1.0000
  Ni  Ni2       1.0  0.9004900000000001  0.20010999999999993  0.95027  1.0000
  Ni  Ni3       1.0  0.25014000000000003  0.45044999999999996  0.5497399999999999  1.0000
  Ni  Ni4       1.0  0.25027  0.30004000000000003  0.70045  1.0000
  Ni  Ni5       1.0  0.7996799999999998  0.20001999999999998  0.24981  1.0000
  Ni  Ni6       1.0  0.95042  0.049709999999999976  0.25007  1.0000
  Ni  Ni7       1.0  0.70023  0.45030999999999993  0.9005399999999999  1.0000
  Ni  Ni8       1.0  0.54968  0.29993  0.59952  1.0000
  Ni  Ni9       1.0  0.54963  0.7498999999999999  0.9502099999999998  1.0000
  Ni  Ni10      1.0  0.70027  0.7500499999999999  0.7998499999999998  1.0000
  Ni  Ni11      1.0  0.79996  0.09948999999999993  0.5496699999999999  1.0000
  Ni  Ni12      1.0  0.95037  0.40053  0.70011  1.0000
  H   H1        1.0  0.64228  0.045189999999999945  0.64749  1.0000
  H   H2        1.0  0.47329999999999983  0.9980199999999999  0.7968299999999998  1.0000
  H   H3        1.0  0.61648  0.97578  0.70278  1.0000
  H   H4        1.0  0.6715399999999999  0.9150399999999997  0.6910299999999999  1.0000
  H   H5        1.0  0.74471  0.92191  0.7871899999999997  1.0000
  H   H6        1.0  0.7576000000000002  0.9875499999999998  0.8887999999999999  1.0000
  H   H7        1.0  0.69693  0.043559999999999884  0.8914499999999999  1.0000
  H   H8        1.0  0.5218099999999999  0.07603999999999995  0.7492399999999999  1.0000
  H   H9        1.0  0.85803  0.005289999999999984  0.90295  1.0000
  H   H10       1.0  0.026389999999999976  0.32347999999999993  0.02439  1.0000
  H   H11       1.0  0.88358  0.08614999999999996  0.85929  1.0000
  H   H12       1.0  0.82884  0.019719999999999897  0.7435599999999999  1.0000
  H   H13       1.0  0.75577  0.04278999999999993  0.67728  1.0000
  H   H14       1.0  0.74261  0.13130000000000003  0.73019  1.0000
  H   H15       1.0  0.80294  0.19423999999999983  0.8467599999999998  1.0000
  H   H16       1.0  0.9784800000000001  0.22748  0.05429  1.0000
  H   H17       1.0  0.10241999999999991  0.45523999999999987  0.5970399999999999  1.0000
  H   H18       1.0  0.29883  0.50187  0.47509  1.0000
  H   H19       1.0  0.22718000000000008  0.52449  0.64065  1.0000
  H   H20       1.0  0.27613  0.58518  0.75636  1.0000
  H   H21       1.0  0.36527999999999994  0.5782099999999999  0.8227799999999998  1.0000
  H   H22       1.0  0.40109000000000006  0.51232  0.76995  1.0000
  H   H23       1.0  0.34783  0.45641  0.65336  1.0000
  H   H24       1.0  0.17318999999999998  0.42418999999999996  0.4457799999999999  1.0000
  H   H25       1.0  0.39780999999999994  0.49484999999999996  0.8530099999999999  1.0000
  H   H26       1.0  0.20110000000000008  0.1766  0.70291  1.0000
  H   H27       1.0  0.27307  0.41381999999999997  0.79737  1.0000
  H   H28       1.0  0.22370999999999988  0.4802799999999999  0.8090699999999998  1.0000
  H   H29       1.0  0.13445  0.45718  0.71285  1.0000
  H   H30       1.0  0.09881999999999996  0.3687099999999999  0.6111899999999999  1.0000
  H   H31       1.0  0.1525499999999999  0.3057599999999999  0.6086299999999999  1.0000
  H   H32       1.0  0.32705999999999996  0.27277999999999997  0.7511599999999999  1.0000
  H   H33       1.0  0.99482  0.35267  0.39757  1.0000
  H   H34       1.0  0.67642  0.20298  0.20099999999999998  1.0000
  H   H35       1.0  0.91363  0.29702  0.27291  1.0000
  H   H36       1.0  0.98027  0.30887  0.22377  1.0000
  H   H37       1.0  0.95721  0.21275  0.1344  1.0000
  H   H38       1.0  0.86866  0.11107999999999998  0.09855999999999998  1.0000
  H   H39       1.0  0.8055000000000001  0.10839  0.15209  1.0000
  H   H40       1.0  0.7727100000000001  0.25078999999999996  0.32677999999999996  1.0000
  H   H41       1.0  0.95531  0.09714  0.10243  1.0000
  H   H42       1.0  0.0018899999999999987  0.97513  0.29883999999999994  1.0000
  H   H43       1.0  0.024579999999999987  0.14065999999999998  0.22720999999999997  1.0000
  H   H44       1.0  0.08522  0.25635  0.27615  1.0000
  H   H45       1.0  0.07817999999999994  0.32267999999999997  0.3652599999999999  1.0000
  H   H46       1.0  0.012309999999999998  0.26987  0.40107999999999994  1.0000
  H   H47       1.0  0.95643  0.1533  0.3478  1.0000
  H   H48       1.0  0.92418  0.9457999999999999  0.17315  1.0000
  H   H49       1.0  0.5055400000000001  0.40308  0.85831  1.0000
  H   H50       1.0  0.82364  0.52452  0.02652  1.0000
  H   H51       1.0  0.58627  0.35939  0.8836699999999998  1.0000
  H   H52       1.0  0.51981  0.24369  0.8290099999999999  1.0000
  H   H53       1.0  0.5427700000000001  0.17735000000000006  0.75588  1.0000
  H   H54       1.0  0.63123  0.23012999999999992  0.74263  1.0000
  H   H55       1.0  0.6942099999999999  0.3466999999999998  0.8028899999999998  1.0000
  H   H56       1.0  0.72765  0.5543599999999999  0.9785199999999998  1.0000
  H   H57       1.0  0.54523  0.14761  0.6422  1.0000
  H   H58       1.0  0.4979  0.29682  0.47312  1.0000
  H   H59       1.0  0.4759  0.20299000000000003  0.61654  1.0000
  H   H60       1.0  0.41514  0.19111000000000003  0.67154  1.0000
  H   H61       1.0  0.42193  0.28720000000000007  0.74474  1.0000
  H   H62       1.0  0.48748  0.38883  0.75765  1.0000
  H   H63       1.0  0.54348  0.39155999999999996  0.69697  1.0000
  H   H64       1.0  0.57611  0.24945  0.5219  1.0000
  H   H65       1.0  0.59725  0.60247  0.95539  1.0000
  H   H66       1.0  0.47512  0.79876  0.0017099999999999997  1.0000
  H   H67       1.0  0.64063  0.72718  0.02446  1.0000
  H   H68       1.0  0.75635  0.77618  0.08522  1.0000
  H   H69       1.0  0.82267  0.8652799999999999  0.07818  1.0000
  H   H70       1.0  0.76986  0.90109  0.01227  1.0000
  H   H71       1.0  0.65326  0.84775  0.95631  1.0000
  H   H72       1.0  0.44569  0.67301  0.92418  1.0000
  H   H73       1.0  0.85285  0.8977199999999999  0.99482  1.0000
  H   H74       1.0  0.7029499999999999  0.7010699999999997  0.6764499999999999  1.0000
  H   H75       1.0  0.79722  0.77302  0.91375  1.0000
  H   H76       1.0  0.8089999999999999  0.7237699999999998  0.9803199999999997  1.0000
  H   H77       1.0  0.7128499999999997  0.63447  0.95725  1.0000
  H   H78       1.0  0.6111700000000001  0.59876  0.86872  1.0000
  H   H79       1.0  0.6085199999999997  0.6523599999999998  0.8056399999999999  1.0000
  H   H80       1.0  0.75094  0.8268799999999998  0.77268  1.0000
  H   H81       1.0  0.6476899999999999  0.1423799999999999  0.5452299999999999  1.0000
  H   H82       1.0  0.7969599999999999  0.9731999999999996  0.49796  1.0000
  H   H83       1.0  0.7029800000000002  0.11637  0.47583999999999993  1.0000
  H   H84       1.0  0.69104  0.17140999999999998  0.4151399999999999  1.0000
  H   H85       1.0  0.78709  0.24467  0.42198  1.0000
  H   H86       1.0  0.88877  0.25761  0.48748  1.0000
  H   H87       1.0  0.8916099999999998  0.1969599999999999  0.5434799999999999  1.0000
  H   H88       1.0  0.7493400000000001  0.021760000000000012  0.57604  1.0000
  H   H89       1.0  0.90301  0.3580199999999999  0.5052999999999999  1.0000
  H   H90       1.0  0.024489999999999915  0.5263299999999999  0.8234699999999999  1.0000
  H   H91       1.0  0.85937  0.38363  0.58614  1.0000
  H   H92       1.0  0.74364  0.3289099999999999  0.5197  1.0000
  H   H93       1.0  0.67739  0.25586  0.54279  1.0000
  H   H94       1.0  0.7302599999999999  0.24268999999999993  0.6313  1.0000
  H   H95       1.0  0.84686  0.303  0.69426  1.0000
  H   H96       1.0  0.05434999999999995  0.4785099999999999  0.7274199999999998  1.0000
  H   H97       1.0  0.6418300000000001  0.09692999999999996  0.99453  1.0000
  H   H98       1.0  0.47357  0.97552  0.67641  1.0000
  H   H99       1.0  0.6163899999999998  0.14056999999999983  0.9136899999999998  1.0000
  H   H100      1.0  0.6709700000000001  0.25626  0.98018  1.0000
  H   H101      1.0  0.74411  0.3226599999999999  0.9572399999999999  1.0000
  H   H102      1.0  0.7574100000000001  0.26990999999999987  0.8687699999999998  1.0000
  H   H103      1.0  0.69716  0.15331999999999996  0.8057599999999999  1.0000
  H   H104      1.0  0.52163  0.94572  0.7724299999999997  1.0000
  H   H105      1.0  0.85775  0.35242  0.9548  1.0000
  H   H106      1.0  0.02685999999999999  0.20311  0.0020499999999999997  1.0000
  H   H107      1.0  0.8834799999999999  0.29702999999999996  0.024109999999999996  1.0000
  H   H108      1.0  0.82847  0.30886  0.08489  1.0000
  H   H109      1.0  0.75532  0.21274  0.07808  1.0000
  H   H110      1.0  0.7424199999999999  0.11111999999999997  0.01246  1.0000
  H   H111      1.0  0.80309  0.10844999999999998  0.95645  1.0000
  H   H112      1.0  0.9783099999999999  0.2507099999999999  0.9239599999999998  1.0000
  H   H113      1.0  0.10257000000000002  0.14744  0.50538  1.0000
  H   H114      1.0  0.29909999999999987  0.2970099999999999  0.8237399999999999  1.0000
  H   H115      1.0  0.22716000000000003  0.20304  0.58645  1.0000
  H   H116      1.0  0.27628  0.19122999999999998  0.51978  1.0000
  H   H117      1.0  0.36567000000000005  0.28733  0.54285  1.0000
  H   H118      1.0  0.40148  0.38898  0.63144  1.0000
  H   H119      1.0  0.34798999999999997  0.3916599999999999  0.6946299999999999  1.0000
  H   H120      1.0  0.17334999999999998  0.24928  0.7274799999999999  1.0000
  H   H121      1.0  0.39765000000000006  0.40294  0.54468  1.0000
  H   H122      1.0  0.20125000000000004  0.52491  0.49819  1.0000
  H   H123      1.0  0.27294  0.35948  0.47561999999999993  1.0000
  H   H124      1.0  0.22400999999999996  0.24378999999999992  0.41487999999999997  1.0000
  H   H125      1.0  0.13486  0.17743  0.42185  1.0000
  H   H126      1.0  0.09895999999999998  0.2302  0.48766999999999994  1.0000
  H   H127      1.0  0.15226999999999996  0.3467799999999999  0.54364  1.0000
  H   H128      1.0  0.32698  0.5543  0.57581  1.0000
  H   H129      1.0  0.9947799999999999  0.14204999999999995  0.5971099999999999  1.0000
  H   H130      1.0  0.6766  0.97368  0.47551  1.0000
  H   H131      1.0  0.9139599999999999  0.11648999999999987  0.6407899999999997  1.0000
  H   H132      1.0  0.98032  0.17119  0.75653  1.0000
  H   H133      1.0  0.95717  0.24424  0.8227299999999999  1.0000
  H   H134      1.0  0.8687000000000001  0.2574  0.76977  1.0000
  H   H135      1.0  0.8058199999999998  0.19709999999999997  0.6531799999999999  1.0000
  H   H136      1.0  0.77266  0.021579999999999988  0.44572  1.0000
  H   H137      1.0  0.9548499999999999  0.35774999999999985  0.8524299999999998  1.0000
  H   H138      1.0  0.0020399999999999373  0.52684  0.7031199999999999  1.0000
  H   H139      1.0  0.024169999999999976  0.38363  0.79709  1.0000
  H   H140      1.0  0.0849  0.32859  0.809  1.0000
  H   H141      1.0  0.07806000000000003  0.25537000000000004  0.7129  1.0000
  H   H142      1.0  0.01253999999999997  0.24244999999999997  0.61124  1.0000
  H   H143      1.0  0.9565400000000001  0.30311999999999995  0.6084499999999999  1.0000
  H   H144      1.0  0.92398  0.47823999999999983  0.7507199999999998  1.0000
  H   H145      1.0  0.50532  0.60242  0.64724  1.0000
  H   H146      1.0  0.82359  0.79898  0.79707  1.0000
  H   H147      1.0  0.58634  0.72696  0.70283  1.0000
  H   H148      1.0  0.5197  0.7761399999999998  0.69098  1.0000
  H   H149      1.0  0.5427599999999999  0.8655  0.7870799999999999  1.0000
  H   H150      1.0  0.63132  0.90135  0.8887699999999998  1.0000
  H   H151      1.0  0.6944599999999999  0.8477999999999999  0.8915199999999999  1.0000
  H   H152      1.0  0.72734  0.67318  0.7490999999999999  1.0000
  H   H153      1.0  0.54475  0.8975399999999999  0.9027599999999999  1.0000
  H   H154      1.0  0.49818  0.7011799999999999  0.024879999999999992  1.0000
  H   H155      1.0  0.4755599999999999  0.77281  0.8593199999999999  1.0000
  H   H156      1.0  0.41483  0.72391  0.7436  1.0000
  H   H157      1.0  0.42177  0.6347299999999999  0.67719  1.0000
  H   H158      1.0  0.48756  0.5987900000000002  0.72998  1.0000
  H   H159      1.0  0.54348  0.65207  0.84659  1.0000
  H   H160      1.0  0.57582  0.82687  0.05416  1.0000
  H   H161      1.0  0.5970799999999999  0.49472999999999995  0.6418999999999999  1.0000
  H   H162      1.0  0.47561  0.17657  0.47375  1.0000
  H   H163      1.0  0.64065  0.4138299999999999  0.61639  1.0000
  H   H164      1.0  0.75637  0.48024999999999995  0.67107  1.0000
  H   H165      1.0  0.8226900000000001  0.45725000000000005  0.74417  1.0000
  H   H166      1.0  0.7698499999999998  0.3687699999999999  0.7573799999999998  1.0000
  H   H167      1.0  0.6532699999999999  0.30582999999999994  0.6971299999999999  1.0000
  H   H168      1.0  0.4456899999999999  0.27255999999999997  0.5214599999999999  1.0000
  H   H169      1.0  0.8524699999999998  0.45481999999999984  0.8577899999999998  1.0000
  H   H170      1.0  0.7032  0.50201  0.02681  1.0000
  H   H171      1.0  0.79713  0.5241499999999999  0.8835099999999999  1.0000
  H   H172      1.0  0.8089  0.58485  0.82842  1.0000
  H   H173      1.0  0.71276  0.57804  0.75529  1.0000
  H   H174      1.0  0.6111499999999999  0.5124799999999999  0.7424599999999999  1.0000
  H   H175      1.0  0.6085199999999997  0.4565199999999998  0.8031899999999998  1.0000
  H   H176      1.0  0.75077  0.42399  0.97821  1.0000
  H   H177      1.0  0.64711  0.005089999999999995  0.10221  1.0000
  H   H178      1.0  0.79711  0.32347999999999993  0.29895  1.0000
  H   H179      1.0  0.70271  0.08618999999999997  0.22693999999999995  1.0000
  H   H180      1.0  0.691  0.019739999999999973  0.27629999999999993  1.0000
  H   H181      1.0  0.78719  0.04284000000000001  0.36558999999999997  1.0000
  H   H182      1.0  0.8888400000000001  0.13126999999999994  0.4012  1.0000
  H   H183      1.0  0.89143  0.19422999999999993  0.34748999999999997  1.0000
  H   H184      1.0  0.74891  0.22728  0.17302  1.0000
  H   H185      1.0  0.90306  0.04489  0.39773  1.0000
  H   H186      1.0  0.02488999999999992  0.9981099999999998  0.20119  1.0000
  H   H187      1.0  0.8594700000000001  0.9756199999999999  0.27293  1.0000
  H   H188      1.0  0.7437499999999998  0.9148899999999998  0.22391999999999995  1.0000
  H   H189      1.0  0.67741  0.9218899999999998  0.13475999999999996  1.0000
  H   H190      1.0  0.73023  0.98774  0.09891999999999998  1.0000
  H   H191      1.0  0.84683  0.04369000000000001  0.15229  1.0000
  H   H192      1.0  0.054329999999999996  0.07576999999999998  0.32697  1.0000
  C   C1        1.0  0.5723  0.079  0.69267  1.0000
  C   C2        1.0  0.59164  0.09468000000000007  0.64961  1.0000
  C   C3        1.0  0.6289499999999998  0.07433999999999992  0.6318699999999999  1.0000
  C   C4        1.0  0.46765  0.009229999999999978  0.7593699999999999  1.0000
  C   C5        1.0  0.41445  0.018010000000000005  0.74275  1.0000
  C   C6        1.0  0.38009999999999977  0.03980999999999988  0.7433299999999998  1.0000
  C   C7        1.0  0.34636  0.0679  0.74648  1.0000
  C   C8        1.0  0.6482  0.9766599999999999  0.7423299999999999  1.0000
  C   C9        1.0  0.679  0.94325  0.7365099999999998  1.0000
  C   C10       1.0  0.71929  0.94688  0.78943  1.0000
  C   C11       1.0  0.72673  0.98358  0.8464599999999999  1.0000
  C   C12       1.0  0.69415  0.015379999999999998  0.84874  1.0000
  C   C13       1.0  0.9282399999999998  0.12052  0.006839999999999999  1.0000
  C   C14       1.0  0.90887  0.058119999999999984  0.0031499999999999996  1.0000
  C   C15       1.0  0.8715  0.0030699999999999916  0.94547  1.0000
  C   C16       1.0  0.03229000000000001  0.29183  0.04141999999999999  1.0000
  C   C17       1.0  0.08559999999999998  0.3285799999999999  0.10339999999999999  1.0000
  C   C18       1.0  0.11995000000000001  0.36355  0.15957999999999997  1.0000
  C   C19       1.0  0.15363  0.40042  0.22144  1.0000
  C   C20       1.0  0.8519  0.09405999999999985  0.8285199999999998  1.0000
  C   C21       1.0  0.8212  0.05758999999999996  0.76428  1.0000
  C   C22       1.0  0.7809700000000002  0.07026999999999999  0.72765  1.0000
  C   C23       1.0  0.7734  0.11970999999999996  0.7569699999999999  1.0000
  C   C24       1.0  0.80586  0.15441999999999995  0.8213599999999999  1.0000
  C   C25       1.0  0.11376999999999998  0.4214  0.49321  1.0000
  C   C26       1.0  0.05502999999999997  0.4056799999999999  0.49687999999999993  1.0000
  C   C27       1.0  0.05765999999999998  0.42602  0.55454  1.0000
  C   C28       1.0  0.25023999999999996  0.4909  0.45837999999999995  1.0000
  C   C29       1.0  0.22487999999999997  0.48207999999999995  0.39637999999999995  1.0000
  C   C30       1.0  0.20378  0.46035999999999994  0.34021  1.0000
  C   C31       1.0  0.17884  0.43216  0.27837  1.0000
  C   C32       1.0  0.2658  0.52353  0.67147  1.0000
  C   C33       1.0  0.29339  0.55692  0.7357  1.0000
  C   C34       1.0  0.34259  0.55323  0.7724  1.0000
  C   C35       1.0  0.3628199999999998  0.5164299999999998  0.7431199999999998  1.0000
  C   C36       1.0  0.3333400000000001  0.48466  0.67873  1.0000
  C   C37       1.0  0.38642999999999994  0.37958  0.8077699999999999  1.0000
  C   C38       1.0  0.44519999999999993  0.4420499999999999  0.8510199999999999  1.0000
  C   C39       1.0  0.44257  0.49709999999999976  0.86865  1.0000
  C   C40       1.0  0.2497799999999999  0.20828999999999992  0.7404799999999999  1.0000
  C   C41       1.0  0.275  0.17149  0.75693  1.0000
  C   C42       1.0  0.29609  0.13639999999999994  0.75611  1.0000
  C   C43       1.0  0.32104999999999995  0.09951999999999989  0.7528899999999998  1.0000
  C   C44       1.0  0.23439  0.40592  0.7578  1.0000
  C   C45       1.0  0.20666  0.44242  0.76357  1.0000
  C   C46       1.0  0.15735999999999994  0.4297  0.7106  1.0000
  C   C47       1.0  0.13724999999999998  0.38026999999999994  0.65355  1.0000
  C   C48       1.0  0.16692000000000004  0.34555  0.65136  1.0000
  C   C49       1.0  0.8794999999999998  0.3073899999999999  0.38618  1.0000
  C   C50       1.0  0.94196  0.35060999999999987  0.44491  1.0000
  C   C51       1.0  0.99703  0.36831  0.44231  1.0000
  C   C52       1.0  0.7082400000000001  0.24047999999999997  0.24968  1.0000
  C   C53       1.0  0.67159  0.25701  0.27505  1.0000
  C   C54       1.0  0.6366  0.25627  0.29624  1.0000
  C   C55       1.0  0.59979  0.25306  0.32128  1.0000
  C   C56       1.0  0.90576  0.2575  0.23421  1.0000
  C   C57       1.0  0.94231  0.26336  0.20653999999999995  1.0000
  C   C58       1.0  0.92965  0.21046999999999996  0.15721999999999997  1.0000
  C   C59       1.0  0.88014  0.15341  0.13695  1.0000
  C   C60       1.0  0.8453600000000001  0.15112  0.16655999999999999  1.0000
  C   C61       1.0  0.9214499999999999  0.9932799999999998  0.11375999999999999  1.0000
  C   C62       1.0  0.90575  0.997  0.05506  1.0000
  C   C63       1.0  0.9261000000000001  0.05465  0.05768  1.0000
  C   C64       1.0  0.99086  0.95834  0.25021999999999994  1.0000
  C   C65       1.0  0.9821  0.8963599999999998  0.22484  1.0000
  C   C66       1.0  0.9604000000000001  0.84021  0.20373  1.0000
  C   C67       1.0  0.93225  0.77839  0.17882  1.0000
  C   C68       1.0  0.023570000000000004  0.17143  0.2658  1.0000
  C   C69       1.0  0.05694999999999996  0.2356399999999999  0.2933799999999999  1.0000
  C   C70       1.0  0.05322  0.27231  0.34257  1.0000
  C   C71       1.0  0.016419999999999976  0.24302999999999997  0.3628  1.0000
  C   C72       1.0  0.98467  0.17864999999999998  0.33329999999999993  1.0000
  C   C73       1.0  0.6206399999999999  0.50689  0.9283  1.0000
  C   C74       1.0  0.55826  0.50323  0.90903  1.0000
  C   C75       1.0  0.5032399999999999  0.44555999999999996  0.8716799999999999  1.0000
  C   C76       1.0  0.79195  0.54147  0.03239999999999999  1.0000
  C   C77       1.0  0.82869  0.60345  0.08566  1.0000
  C   C78       1.0  0.86365  0.6596099999999999  0.12002999999999998  1.0000
  C   C79       1.0  0.90052  0.72147  0.15366  1.0000
  C   C80       1.0  0.59415  0.32860999999999996  0.85199  1.0000
  C   C81       1.0  0.55765  0.26439999999999997  0.8213399999999998  1.0000
  C   C82       1.0  0.57027  0.22773  0.78109  1.0000
  C   C83       1.0  0.6196899999999999  0.25697999999999993  0.7734399999999998  1.0000
  C   C84       1.0  0.65442  0.3213599999999998  0.8058699999999999  1.0000
  C   C85       1.0  0.5790100000000001  0.19279999999999994  0.5722799999999999  1.0000
  C   C86       1.0  0.59475  0.14974  0.59161  1.0000
  C   C87       1.0  0.5744199999999999  0.132  0.62893  1.0000
  C   C88       1.0  0.50919  0.25942999999999994  0.46761999999999987  1.0000
  C   C89       1.0  0.51801  0.2427499999999999  0.41443999999999986  1.0000
  C   C90       1.0  0.5399299999999999  0.24345999999999995  0.38017999999999996  1.0000
  C   C91       1.0  0.5681299999999999  0.24665999999999988  0.3465599999999999  1.0000
  C   C92       1.0  0.47670999999999997  0.24247999999999997  0.64823  1.0000
  C   C93       1.0  0.44332  0.23661  0.67904  1.0000
  C   C94       1.0  0.44690999999999986  0.2894799999999999  0.71934  1.0000
  C   C95       1.0  0.48355999999999993  0.34652999999999995  0.7267799999999999  1.0000
  C   C96       1.0  0.51533  0.34884  0.69418  1.0000
  C   C97       1.0  0.49333999999999983  0.6137699999999999  0.92153  1.0000
  C   C98       1.0  0.49709999999999976  0.5551199999999997  0.9059299999999998  1.0000
  C   C99       1.0  0.55476  0.5577399999999999  0.9262099999999999  1.0000
  C   C100      1.0  0.45831  0.75017  0.99077  1.0000
  C   C101      1.0  0.39635  0.72481  0.98206  1.0000
  C   C102      1.0  0.3401999999999999  0.7036799999999999  0.9604199999999998  1.0000
  C   C103      1.0  0.2783899999999999  0.67875  0.9323199999999999  1.0000
  C   C104      1.0  0.67141  0.76578  0.023469999999999994  1.0000
  C   C105      1.0  0.73564  0.79339  0.056909999999999995  1.0000
  C   C106      1.0  0.7723100000000002  0.84258  0.05320999999999999  1.0000
  C   C107      1.0  0.7430399999999999  0.8627999999999999  0.01638  1.0000
  C   C108      1.0  0.67865  0.8332799999999999  0.98457  1.0000
  C   C109      1.0  0.80759  0.88629  0.8795299999999999  1.0000
  C   C110      1.0  0.8508  0.94505  0.9419799999999999  1.0000
  C   C111      1.0  0.86847  0.94246  0.9970499999999998  1.0000
  C   C112      1.0  0.74048  0.74972  0.70823  1.0000
  C   C113      1.0  0.75706  0.77502  0.67154  1.0000
  C   C114      1.0  0.7563599999999999  0.7962699999999998  0.6365799999999999  1.0000
  C   C115      1.0  0.75311  0.82127  0.59973  1.0000
  C   C116      1.0  0.7576800000000001  0.73433  0.90588  1.0000
  C   C117      1.0  0.76349  0.70662  0.9424  1.0000
  C   C118      1.0  0.71058  0.65732  0.92972  1.0000
  C   C119      1.0  0.65352  0.63714  0.88025  1.0000
  C   C120      1.0  0.65125  0.6667599999999999  0.84549  1.0000
  C   C121      1.0  0.69274  0.07227000000000001  0.57889  1.0000
  C   C122      1.0  0.64967  0.0915999999999999  0.5945799999999999  1.0000
  C   C123      1.0  0.6320099999999997  0.12901  0.57433  1.0000
  C   C124      1.0  0.7594599999999999  0.9676299999999999  0.50912  1.0000
  C   C125      1.0  0.74288  0.9145599999999998  0.51809  1.0000
  C   C126      1.0  0.74352  0.8802099999999998  0.5399  1.0000
  C   C127      1.0  0.74666  0.8464999999999999  0.5680199999999999  1.0000
  C   C128      1.0  0.74248  0.14808999999999994  0.47669999999999996  1.0000
  C   C129      1.0  0.73656  0.17892999999999998  0.44335  1.0000
  C   C130      1.0  0.7894  0.21925  0.44693  1.0000
  C   C131      1.0  0.84648  0.22674  0.48358  1.0000
  C   C132      1.0  0.8488599999999997  0.19413  0.51533  1.0000
  C   C133      1.0  0.006849999999999966  0.42821  0.62045  1.0000
  C   C134      1.0  0.003139999999999957  0.40879999999999994  0.5580199999999998  1.0000
  C   C135      1.0  0.94547  0.37137  0.50295  1.0000
  C   C136      1.0  0.04152999999999999  0.53231  0.79187  1.0000
  C   C137      1.0  0.10348999999999997  0.5856  0.82865  1.0000
  C   C138      1.0  0.15965  0.61996  0.86366  1.0000
  C   C139      1.0  0.22146999999999992  0.65358  0.90057  1.0000
  C   C140      1.0  0.82863  0.35195  0.59406  1.0000
  C   C141      1.0  0.7644000000000001  0.32130999999999993  0.5575999999999999  1.0000
  C   C142      1.0  0.72777  0.28109  0.57028  1.0000
  C   C143      1.0  0.75707  0.2735  0.61973  1.0000
  C   C144      1.0  0.8214500000000001  0.30591  0.65442  1.0000
  C   C145      1.0  0.5718099999999999  0.9931399999999999  0.8793699999999999  1.0000
  C   C146      1.0  0.59116  0.99679  0.94178  1.0000
  C   C147      1.0  0.62845  0.05445  0.9968299999999999  1.0000
  C   C148      1.0  0.46766  0.9585599999999997  0.7080799999999999  1.0000
  C   C149      1.0  0.41445  0.89658  0.67133  1.0000
  C   C150      1.0  0.38009  0.84041  0.6363499999999999  1.0000
  C   C151      1.0  0.34649  0.77857  0.59949  1.0000
  C   C152      1.0  0.64807  0.17135999999999993  0.9058199999999998  1.0000
  C   C153      1.0  0.67868  0.23557  0.94233  1.0000
  C   C154      1.0  0.71893  0.27227  0.92972  1.0000
  C   C155      1.0  0.7265900000000001  0.24302999999999983  0.8802999999999997  1.0000
  C   C156      1.0  0.6941800000000001  0.17864999999999992  0.84556  1.0000
  C   C157      1.0  0.92779  0.30727  0.92105  1.0000
  C   C158      1.0  0.9085199999999999  0.3504199999999999  0.9054299999999998  1.0000
  C   C159      1.0  0.8711000000000001  0.3680599999999999  0.9256599999999998  1.0000
  C   C160      1.0  0.03233999999999994  0.24051999999999998  0.9907599999999999  1.0000
  C   C161      1.0  0.08550999999999999  0.25712  0.98192  1.0000
  C   C162      1.0  0.11986999999999996  0.2564399999999999  0.96013  1.0000
  C   C163      1.0  0.1535799999999999  0.2532699999999999  0.9320199999999998  1.0000
  C   C164      1.0  0.85177  0.25752  0.023289999999999998  1.0000
  C   C165      1.0  0.82095  0.26335  0.05668  1.0000
  C   C166      1.0  0.78069  0.21048  0.053099999999999994  1.0000
  C   C167      1.0  0.77324  0.15345  0.016409999999999998  1.0000
  C   C168      1.0  0.8058399999999999  0.15114999999999998  0.9846299999999999  1.0000
  C   C169      1.0  0.11394  0.19269999999999998  0.62065  1.0000
  C   C170      1.0  0.055179999999999986  0.14946  0.55818  1.0000
  C   C171      1.0  0.05780000000000001  0.13176000000000002  0.50312  1.0000
  C   C172      1.0  0.25039999999999996  0.25957  0.79187  1.0000
  C   C173      1.0  0.22504999999999997  0.24293999999999993  0.8284999999999999  1.0000
  C   C174      1.0  0.2037799999999999  0.24357999999999985  0.8634399999999999  1.0000
  C   C175      1.0  0.17879999999999993  0.24681999999999998  0.9002899999999999  1.0000
  C   C176      1.0  0.2658599999999999  0.24255999999999991  0.5942899999999999  1.0000
  C   C177      1.0  0.29354  0.23672  0.55775  1.0000
  C   C178      1.0  0.34285999999999994  0.2896099999999999  0.57043  1.0000
  C   C179      1.0  0.36312000000000005  0.34665  0.61994  1.0000
  C   C180      1.0  0.33353000000000005  0.34896  0.65474  1.0000
  C   C181      1.0  0.38633  0.50683  0.57857  1.0000
  C   C182      1.0  0.44503999999999994  0.5031099999999998  0.5942599999999999  1.0000
  C   C183      1.0  0.44239999999999996  0.44543999999999995  0.5738599999999999  1.0000
  C   C184      1.0  0.24985  0.5417099999999999  0.5091699999999999  1.0000
  C   C185      1.0  0.27519  0.60367  0.51788  1.0000
  C   C186      1.0  0.29634999999999995  0.65982  0.53961  1.0000
  C   C187      1.0  0.3213199999999999  0.7216599999999997  0.5677799999999998  1.0000
  C   C188      1.0  0.23433999999999996  0.32869  0.4765799999999999  1.0000
  C   C189      1.0  0.20676  0.26447  0.44317  1.0000
  C   C190      1.0  0.15754000000000004  0.2278  0.44683  1.0000
  C   C191      1.0  0.13728999999999994  0.25705999999999996  0.48362999999999995  1.0000
  C   C192      1.0  0.1668  0.3214399999999999  0.51542  1.0000
  C   C193      1.0  0.87969  0.07188999999999993  0.4932399999999999  1.0000
  C   C194      1.0  0.9420999999999998  0.09132999999999994  0.4969699999999999  1.0000
  C   C195      1.0  0.99714  0.12871  0.55466  1.0000
  C   C196      1.0  0.7081899999999999  0.9676899999999999  0.4584599999999999  1.0000
  C   C197      1.0  0.67144  0.9143899999999999  0.39653999999999995  1.0000
  C   C198      1.0  0.63642  0.8800499999999996  0.34035999999999994  1.0000
  C   C199      1.0  0.5995899999999997  0.84648  0.27852  1.0000
  C   C200      1.0  0.906  0.14815000000000003  0.6715  1.0000
  C   C201      1.0  0.9424199999999999  0.17878999999999987  0.7357399999999997  1.0000
  C   C202      1.0  0.92972  0.219  0.77234  1.0000
  C   C203      1.0  0.88028  0.22657999999999986  0.7429899999999999  1.0000
  C   C204      1.0  0.8456299999999999  0.19416999999999993  0.6785999999999999  1.0000
  C   C205      1.0  0.92106  0.42774  0.80728  1.0000
  C   C206      1.0  0.90542  0.40842  0.85036  1.0000
  C   C207      1.0  0.92573  0.37108999999999986  0.8680899999999999  1.0000
  C   C208      1.0  0.9908700000000001  0.53241  0.74061  1.0000
  C   C209      1.0  0.9819800000000001  0.58554  0.75725  1.0000
  C   C210      1.0  0.9601600000000001  0.61988  0.75661  1.0000
  C   C211      1.0  0.93202  0.65356  0.75343  1.0000
  C   C212      1.0  0.023319999999999907  0.3519099999999999  0.7575899999999999  1.0000
  C   C213      1.0  0.056709999999999934  0.3210899999999999  0.7634899999999999  1.0000
  C   C214      1.0  0.05310999999999988  0.2807999999999998  0.7106199999999998  1.0000
  C   C215      1.0  0.016470000000000005  0.27333  0.65354  1.0000
  C   C216      1.0  0.98469  0.30591  0.65119  1.0000
  C   C217      1.0  0.6205499999999999  0.6137699999999998  0.6924499999999998  1.0000
  C   C218      1.0  0.5581  0.55501  0.64924  1.0000
  C   C219      1.0  0.5030599999999997  0.55765  0.63153  1.0000
  C   C220      1.0  0.79182  0.7503099999999999  0.75954  1.0000
  C   C221      1.0  0.8285099999999999  0.7250099999999998  0.7429799999999998  1.0000
  C   C222      1.0  0.8635  0.7038  0.7437399999999998  1.0000
  C   C223      1.0  0.90034  0.67881  0.747  1.0000
  C   C224      1.0  0.59419  0.7656699999999999  0.74235  1.0000
  C   C225      1.0  0.55764  0.7933499999999999  0.73649  1.0000
  C   C226      1.0  0.57031  0.84268  0.78938  1.0000
  C   C227      1.0  0.61981  0.86294  0.84645  1.0000
  C   C228      1.0  0.6546  0.83335  0.8487699999999998  1.0000
  C   C229      1.0  0.57856  0.8862  0.006619999999999999  1.0000
  C   C230      1.0  0.59422  0.9448899999999998  0.0029299999999999994  1.0000
  C   C231      1.0  0.5739199999999999  0.9422699999999998  0.9452699999999998  1.0000
  C   C232      1.0  0.50914  0.74977  0.04157  1.0000
  C   C233      1.0  0.51797  0.7752299999999998  0.10359  1.0000
  C   C234      1.0  0.53968  0.79632  0.15975  1.0000
  C   C235      1.0  0.56784  0.8212999999999999  0.2216  1.0000
  C   C236      1.0  0.47651  0.7342  0.82851  1.0000
  C   C237      1.0  0.44306999999999996  0.7066299999999999  0.7642699999999999  1.0000
  C   C238      1.0  0.44671000000000005  0.65739  0.72757  1.0000
  C   C239      1.0  0.4834800000000001  0.63711  0.7568099999999999  1.0000
  C   C240      1.0  0.51528  0.6666099999999999  0.8212199999999998  1.0000
  C   C241      1.0  0.49322000000000005  0.37954999999999994  0.5717099999999999  1.0000
  C   C242      1.0  0.49691  0.44194  0.59111  1.0000
  C   C243      1.0  0.5545799999999999  0.4969799999999998  0.6284799999999999  1.0000
  C   C244      1.0  0.45857000000000003  0.20815999999999996  0.46773999999999993  1.0000
  C   C245      1.0  0.39658  0.17134  0.41446999999999995  1.0000
  C   C246      1.0  0.3403999999999999  0.13631999999999994  0.38013999999999987  1.0000
  C   C247      1.0  0.27857  0.09941999999999995  0.3465  1.0000
  C   C248      1.0  0.6714199999999999  0.40593  0.6480699999999999  1.0000
  C   C249      1.0  0.73564  0.44241  0.67873  1.0000
  C   C250      1.0  0.7723  0.4297599999999999  0.7189699999999998  1.0000
  C   C251      1.0  0.74302  0.38034  0.72659  1.0000
  C   C252      1.0  0.6786400000000001  0.34562  0.69416  1.0000
  C   C253      1.0  0.8073399999999998  0.42104  0.92777  1.0000
  C   C254      1.0  0.8504  0.4053499999999999  0.9083999999999998  1.0000
  C   C255      1.0  0.8680800000000001  0.42563999999999996  0.8710399999999999  1.0000
  C   C256      1.0  0.74067  0.49082999999999993  0.03243999999999999  1.0000
  C   C257      1.0  0.7573000000000001  0.48202  0.08562  1.0000
  C   C258      1.0  0.75672  0.4602  0.11997  1.0000
  C   C259      1.0  0.7535  0.43204  0.15365  1.0000
  C   C260      1.0  0.7576000000000002  0.52329  0.8518  1.0000
  C   C261      1.0  0.7634199999999998  0.5566899999999999  0.8209899999999998  1.0000
  C   C262      1.0  0.7105199999999999  0.5530899999999999  0.7807199999999999  1.0000
  C   C263      1.0  0.6534899999999999  0.5164499999999999  0.7733299999999999  1.0000
  C   C264      1.0  0.65121  0.4846599999999999  0.8059099999999998  1.0000
  C   C265      1.0  0.6923  0.12039999999999997  0.11362999999999997  1.0000
  C   C266      1.0  0.6491099999999999  0.05795  0.05487  1.0000
  C   C267      1.0  0.63148  0.00289  0.05747  1.0000
  C   C268      1.0  0.75955  0.29173  0.2503  1.0000
  C   C269      1.0  0.74307  0.32846  0.22501999999999997  1.0000
  C   C270      1.0  0.7438099999999999  0.36351  0.2039  1.0000
  C   C271      1.0  0.74704  0.40038  0.17892  1.0000
  C   C272      1.0  0.7422700000000001  0.09408  0.2656299999999999  1.0000
  C   C273      1.0  0.73649  0.05761  0.29337  1.0000
  C   C274      1.0  0.78942  0.07030999999999998  0.34269  1.0000
  C   C275      1.0  0.84647  0.11972999999999998  0.3628  1.0000
  C   C276      1.0  0.8487  0.15444  0.33313  1.0000
  C   C277      1.0  0.006899999999999983  0.07866999999999998  0.38636  1.0000
  C   C278      1.0  0.0032499999999999916  0.09444000000000002  0.4451  1.0000
  C   C279      1.0  0.94559  0.07408  0.44246  1.0000
  C   C280      1.0  0.04169000000000002  0.009140000000000002  0.24982  1.0000
  C   C281      1.0  0.10365999999999997  0.017839999999999984  0.27518999999999993  1.0000
  C   C282      1.0  0.15981000000000004  0.039549999999999974  0.29636  1.0000
  C   C283      1.0  0.22165  0.06769  0.3213  1.0000
  C   C284      1.0  0.8286800000000001  0.9765899999999998  0.23430999999999996  1.0000
  C   C285      1.0  0.76446  0.94319  0.20671  1.0000
  C   C286      1.0  0.72779  0.94688  0.15749  1.0000
  C   C287      1.0  0.75707  0.98369  0.13725999999999997  1.0000
  C   C288      1.0  0.8214599999999999  0.015450000000000007  0.16677999999999998  1.0000
  N   N1        1.0  0.65577  0.012459999999999917  0.7976699999999998  1.0000
  N   N2        1.0  0.84427  0.14174999999999993  0.85682  1.0000
  N   N3        1.0  0.28528  0.48767  0.64323  1.0000
  N   N4        1.0  0.21499  0.3582099999999999  0.7024799999999999  1.0000
  N   N5        1.0  0.8580299999999996  0.2021599999999999  0.21471999999999994  1.0000
  N   N6        1.0  0.98768  0.14317  0.28525  1.0000
  N   N7        1.0  0.64182  0.35684999999999995  0.8443099999999999  1.0000
  N   N8        1.0  0.5124499999999999  0.2978199999999999  0.6557799999999999  1.0000
  N   N9        1.0  0.6431499999999999  0.78521  0.9875599999999999  1.0000
  N   N10       1.0  0.7023300000000001  0.7148699999999999  0.8581499999999997  1.0000
  N   N11       1.0  0.79785  0.15568  0.51242  1.0000
  N   N12       1.0  0.85689  0.3442799999999999  0.6417299999999999  1.0000
  N   N13       1.0  0.65576  0.14314  0.8581599999999999  1.0000
  N   N14       1.0  0.8442500000000001  0.20219  0.98754  1.0000
  N   N15       1.0  0.28538  0.2979  0.64203  1.0000
  N   N16       1.0  0.21486999999999992  0.3569499999999999  0.5124499999999999  1.0000
  N   N17       1.0  0.85833  0.1557999999999999  0.6431699999999999  1.0000
  N   N18       1.0  0.98758  0.34433  0.70222  1.0000
  N   N19       1.0  0.64193  0.78519  0.7977299999999999  1.0000
  N   N20       1.0  0.5123499999999999  0.7147  0.8567599999999999  1.0000
  N   N21       1.0  0.64318  0.35827  0.65575  1.0000
  N   N22       1.0  0.70227  0.4875399999999999  0.84426  1.0000
  N   N23       1.0  0.7976  0.14176999999999998  0.28502999999999995  1.0000
  N   N24       1.0  0.85694  0.012430000000000004  0.21484  1.0000
  O   O1        1.0  0.6017399999999998  0.05868999999999985  0.7218899999999998  1.0000
  O   O2        1.0  0.52936  0.08778000000000007  0.69814  1.0000
  O   O3        1.0  0.52309  0.06695  0.78499  1.0000
  O   O4        1.0  0.89856  0.12032  0.95718  1.0000
  O   O5        1.0  0.9714  0.16892  0.05846999999999999  1.0000
  O   O6        1.0  0.97692  0.26182  0.043809999999999995  1.0000
  O   O7        1.0  0.16329000000000002  0.44153  0.54289  1.0000
  O   O8        1.0  0.11049999999999997  0.41278999999999993  0.44154  1.0000
  O   O9        1.0  0.21802999999999997  0.4332  0.4560999999999999  1.0000
  O   O10       1.0  0.337  0.37984  0.77829  1.0000
  O   O11       1.0  0.38971  0.33118  0.80247  1.0000
  O   O12       1.0  0.2822  0.23835999999999993  0.7151599999999999  1.0000
  O   O13       1.0  0.87967  0.2779899999999999  0.3366799999999999  1.0000
  O   O14       1.0  0.8311  0.30195  0.38951  1.0000
  O   O15       1.0  0.7381499999999999  0.21492  0.28191  1.0000
  O   O16       1.0  0.9415  0.04291000000000001  0.16325999999999996  1.0000
  O   O17       1.0  0.9128399999999999  0.9415999999999998  0.11046  1.0000
  O   O18       1.0  0.93315  0.95608  0.21798  1.0000
  O   O19       1.0  0.62047  0.45726  0.89863  1.0000
  O   O20       1.0  0.6690300000000002  0.55851  0.9714499999999999  1.0000
  O   O21       1.0  0.7619899999999997  0.5438399999999998  0.9769799999999997  1.0000
  O   O22       1.0  0.55865  0.22196  0.60168  1.0000
  O   O23       1.0  0.58789  0.19837999999999995  0.5294199999999999  1.0000
  O   O24       1.0  0.5669599999999999  0.2851799999999999  0.5231599999999998  1.0000
  O   O25       1.0  0.54294  0.66324  0.94144  1.0000
  O   O26       1.0  0.44166  0.61046  0.91299  1.0000
  O   O27       1.0  0.45599  0.71782  0.93306  1.0000
  O   O28       1.0  0.7781699999999999  0.8368399999999998  0.8797799999999999  1.0000
  O   O29       1.0  0.80219  0.88959  0.83112  1.0000
  O   O30       1.0  0.7150099999999998  0.7820299999999999  0.73817  1.0000
  O   O31       1.0  0.7220299999999998  0.10173999999999993  0.5586499999999999  1.0000
  O   O32       1.0  0.69824  0.029369999999999927  0.5877099999999998  1.0000
  O   O33       1.0  0.78511  0.023150000000000007  0.56691  1.0000
  O   O34       1.0  0.9572000000000002  0.39854  0.62024  1.0000
  O   O35       1.0  0.05850999999999996  0.4713599999999999  0.66884  1.0000
  O   O36       1.0  0.043870000000000006  0.4769299999999999  0.76178  1.0000
  O   O37       1.0  0.60143  0.04277999999999993  0.8795299999999999  1.0000
  O   O38       1.0  0.52869  0.94147  0.83098  1.0000
  O   O39       1.0  0.52307  0.9561799999999998  0.73803  1.0000
  O   O40       1.0  0.89834  0.27804  0.94135  1.0000
  O   O41       1.0  0.97071  0.30178  0.91226  1.0000
  O   O42       1.0  0.9768999999999999  0.2149199999999999  0.9330099999999999  1.0000
  O   O43       1.0  0.16343999999999997  0.22202  0.62045  1.0000
  O   O44       1.0  0.11058999999999992  0.1981999999999999  0.6690599999999999  1.0000
  O   O45       1.0  0.2182  0.28516  0.76202  1.0000
  O   O46       1.0  0.3368499999999999  0.45720999999999995  0.5586199999999999  1.0000
  O   O47       1.0  0.38961  0.55848  0.5871  1.0000
  O   O48       1.0  0.28215  0.544  0.56686  1.0000
  O   O49       1.0  0.87987  0.10149999999999997  0.5429099999999999  1.0000
  O   O50       1.0  0.83132  0.02878999999999996  0.44155999999999995  1.0000
  O   O51       1.0  0.73826  0.023059999999999994  0.45612  1.0000
  O   O52       1.0  0.9413799999999999  0.39832999999999985  0.7780599999999998  1.0000
  O   O53       1.0  0.9122399999999999  0.4706399999999999  0.8017899999999998  1.0000
  O   O54       1.0  0.93307  0.47689  0.71493  1.0000
  O   O55       1.0  0.62034  0.66322  0.72194  1.0000
  O   O56       1.0  0.6689500000000002  0.61047  0.69784  1.0000
  O   O57       1.0  0.76185  0.71803  0.78503  1.0000
  O   O58       1.0  0.5584699999999999  0.8366899999999999  0.95698  1.0000
  O   O59       1.0  0.58727  0.88952  0.05833999999999999  1.0000
  O   O60       1.0  0.56685  0.78201  0.043809999999999995  1.0000
  O   O61       1.0  0.5428299999999999  0.37972999999999996  0.6014799999999999  1.0000
  O   O62       1.0  0.44158  0.33117  0.52855  1.0000
  O   O63       1.0  0.45618  0.23822  0.52312  1.0000
  O   O64       1.0  0.77811  0.44132999999999994  0.89831  1.0000
  O   O65       1.0  0.80184  0.41222  0.97068  1.0000
  O   O66       1.0  0.7150299999999999  0.4330899999999999  0.9769599999999998  1.0000
  O   O67       1.0  0.72182  0.12018  0.16307  1.0000
  O   O68       1.0  0.6976  0.16879  0.11034  1.0000
  O   O69       1.0  0.7849100000000001  0.26170999999999994  0.21788999999999994  1.0000
  O   O70       1.0  0.9572400000000001  0.05864999999999997  0.33686999999999995  1.0000
  O   O71       1.0  0.05855  0.08721  0.38959  1.0000
  O   O72       1.0  0.043999999999999984  0.06686  0.28212  1.0000
