data_image0
_chemical_formula_structural       Zn28H144C288N24O120
_chemical_formula_sum              "Zn28 H144 C288 N24 O120"
_cell_length_a       31.35743
_cell_length_b       31.34062
_cell_length_c       31.3411
_cell_angle_alpha    90.11915000000002
_cell_angle_beta     90.19441999999998
_cell_angle_gamma    90.05541999999998

_symmetry_space_group_name_H-M    'P 1'
_symmetry_Int_Tables_number       1

loop_
  _symmetry_equiv_pos_as_xyz
  'x,y,z'

loop_
  _atom_site_type_symbol
  _atom_site_label
  _atom_site_symmetry_multiplicity
  _atom_site_fract_x
  _atom_site_fract_y
  _atom_site_fract_z
  _atom_site_occupancy
  Zn  Zn1       1.0  0.50089  0.4995  0.1301  1.0000
  Zn  Zn2       1.0  0.5009399999999998  0.4996099999999999  0.21125999999999995  1.0000
  Zn  Zn3       1.0  0.4990399999999999  0.50026  0.8711899999999998  1.0000
  Zn  Zn4       1.0  0.4991899999999999  0.50044  0.7891399999999997  1.0000
  Zn  Zn5       1.0  0.13015  0.4989599999999999  0.49897  1.0000
  Zn  Zn6       1.0  0.21143999999999993  0.49891  0.4996199999999999  1.0000
  Zn  Zn7       1.0  0.8699699999999998  0.50101  0.50044  1.0000
  Zn  Zn8       1.0  0.7885599999999998  0.50109  0.4998499999999999  1.0000
  Zn  Zn9       1.0  0.5005699999999997  0.12878  0.50111  1.0000
  Zn  Zn10      1.0  0.5007099999999998  0.2109  0.50129  1.0000
  Zn  Zn11      1.0  0.4999899999999999  0.86945  0.49897  1.0000
  Zn  Zn12      1.0  0.50006  0.7883  0.4990199999999999  1.0000
  Zn  Zn13      1.0  0.32801999999999987  0.32643  0.32601999999999987  1.0000
  Zn  Zn14      1.0  0.27194  0.26979  0.2695499999999999  1.0000
  Zn  Zn15      1.0  0.67265  0.67195  0.3277899999999999  1.0000
  Zn  Zn16      1.0  0.7283099999999998  0.72794  0.27179  1.0000
  Zn  Zn17      1.0  0.67359  0.32816  0.67451  1.0000
  Zn  Zn18      1.0  0.7300299999999997  0.27213  0.73044  1.0000
  Zn  Zn19      1.0  0.3282699999999999  0.67209  0.6718999999999998  1.0000
  Zn  Zn20      1.0  0.2718599999999999  0.72833  0.7278899999999998  1.0000
  Zn  Zn21      1.0  0.67158  0.67194  0.6722499999999998  1.0000
  Zn  Zn22      1.0  0.72787  0.72818  0.7281999999999997  1.0000
  Zn  Zn23      1.0  0.32781  0.32796  0.67124  1.0000
  Zn  Zn24      1.0  0.27214  0.27170999999999995  0.7278499999999998  1.0000
  Zn  Zn25      1.0  0.32818999999999987  0.67018  0.32801999999999987  1.0000
  Zn  Zn26      1.0  0.27209999999999995  0.72613  0.2718699999999999  1.0000
  Zn  Zn27      1.0  0.6715599999999998  0.32788  0.3286599999999999  1.0000
  Zn  Zn28      1.0  0.7263699999999997  0.27187  0.27373  1.0000
  H   H1        1.0  0.3864399999999999  0.34048  0.06453999999999997  1.0000
  H   H2        1.0  0.4039799999999999  0.4026  0.23735  1.0000
  H   H3        1.0  0.3316899999999999  0.30976  0.16538999999999995  1.0000
  H   H4        1.0  0.41857  0.39518  0.10131999999999997  1.0000
  H   H5        1.0  0.3714599999999999  0.20805  0.06905  1.0000
  H   H6        1.0  0.61313  0.65905  0.06370999999999997  1.0000
  H   H7        1.0  0.59768  0.5972  0.23656999999999995  1.0000
  H   H8        1.0  0.6683499999999998  0.69064  0.16459  1.0000
  H   H9        1.0  0.58132  0.60449  0.10076999999999997  1.0000
  H   H10       1.0  0.62783  0.79197  0.06875999999999997  1.0000
  H   H11       1.0  0.613  0.34065  0.93655  1.0000
  H   H12       1.0  0.59657  0.40349  0.7640199999999998  1.0000
  H   H13       1.0  0.66812  0.31034  0.8356599999999997  1.0000
  H   H14       1.0  0.5807099999999997  0.39529  0.8998299999999998  1.0000
  H   H15       1.0  0.62788  0.20774  0.93106  1.0000
  H   H16       1.0  0.38595  0.6581899999999998  0.93585  1.0000
  H   H17       1.0  0.40251  0.59754  0.7626699999999997  1.0000
  H   H18       1.0  0.33162999999999987  0.691  0.8346099999999997  1.0000
  H   H19       1.0  0.41798999999999986  0.60462  0.8985999999999997  1.0000
  H   H20       1.0  0.37248  0.79196  0.9319999999999998  1.0000
  H   H21       1.0  0.06411  0.3871  0.3406499999999999  1.0000
  H   H22       1.0  0.23800999999999994  0.39942  0.4016599999999999  1.0000
  H   H23       1.0  0.16357999999999995  0.33062  0.3080699999999999  1.0000
  H   H24       1.0  0.10255999999999997  0.41845  0.3949699999999999  1.0000
  H   H25       1.0  0.06697  0.37276  0.20767999999999995  1.0000
  H   H26       1.0  0.06427  0.61218  0.6586599999999998  1.0000
  H   H27       1.0  0.23762999999999995  0.59768  0.5973099999999998  1.0000
  H   H28       1.0  0.16454  0.66827  0.68999  1.0000
  H   H29       1.0  0.10204  0.57977  0.6042799999999998  1.0000
  H   H30       1.0  0.06978  0.62727  0.79134  1.0000
  H   H31       1.0  0.9365699999999998  0.6127  0.3404899999999999  1.0000
  H   H32       1.0  0.7636599999999998  0.5987699999999999  0.4026099999999999  1.0000
  H   H33       1.0  0.8360699999999999  0.66805  0.30862  1.0000
  H   H34       1.0  0.89933  0.58166  0.3953699999999999  1.0000
  H   H35       1.0  0.9318699999999998  0.62744  0.20743999999999996  1.0000
  H   H36       1.0  0.9360599999999998  0.3863099999999999  0.6581799999999998  1.0000
  H   H37       1.0  0.7628299999999998  0.40407  0.5973099999999998  1.0000
  H   H38       1.0  0.8347599999999997  0.33263  0.6904799999999998  1.0000
  H   H39       1.0  0.8988499999999998  0.41866  0.60424  1.0000
  H   H40       1.0  0.93133  0.37286  0.7919399999999998  1.0000
  H   H41       1.0  0.3416599999999999  0.06474  0.38724  1.0000
  H   H42       1.0  0.4036799999999999  0.23768  0.4029799999999999  1.0000
  H   H43       1.0  0.31067999999999996  0.16545  0.33118  1.0000
  H   H44       1.0  0.39534999999999987  0.10197  0.41966  1.0000
  H   H45       1.0  0.20879999999999996  0.06938  0.37230999999999986  1.0000
  H   H46       1.0  0.6606599999999998  0.06378  0.61192  1.0000
  H   H47       1.0  0.59917  0.23745  0.6003999999999998  1.0000
  H   H48       1.0  0.69241  0.16318  0.6692699999999998  1.0000
  H   H49       1.0  0.6057899999999998  0.1019  0.5808399999999998  1.0000
  H   H50       1.0  0.79272  0.06754  0.62743  1.0000
  H   H51       1.0  0.3411399999999999  0.93577  0.6124599999999998  1.0000
  H   H52       1.0  0.40304  0.76266  0.5966299999999998  1.0000
  H   H53       1.0  0.31002  0.83505  0.6674299999999997  1.0000
  H   H54       1.0  0.3954799999999999  0.89845  0.58018  1.0000
  H   H55       1.0  0.20845999999999995  0.93074  0.62766  1.0000
  H   H56       1.0  0.6588899999999998  0.93598  0.38690999999999987  1.0000
  H   H57       1.0  0.5970799999999999  0.76273  0.40072999999999986  1.0000
  H   H58       1.0  0.69022  0.83572  0.3308  1.0000
  H   H59       1.0  0.60468  0.89842  0.4185699999999999  1.0000
  H   H60       1.0  0.79179  0.93151  0.37213  1.0000
  H   H61       1.0  0.6136  0.65872  0.9353599999999997  1.0000
  H   H62       1.0  0.5954499999999998  0.59817  0.7621799999999997  1.0000
  H   H63       1.0  0.66819  0.6904  0.8344599999999998  1.0000
  H   H64       1.0  0.58127  0.6047  0.8982399999999998  1.0000
  H   H65       1.0  0.62788  0.79187  0.93097  1.0000
  H   H66       1.0  0.38704  0.34121  0.9356899999999998  1.0000
  H   H67       1.0  0.40115  0.40268  0.7624699999999998  1.0000
  H   H68       1.0  0.3310499999999999  0.30938  0.8351499999999997  1.0000
  H   H69       1.0  0.4186999999999999  0.39548  0.8981899999999998  1.0000
  H   H70       1.0  0.3726699999999999  0.20827  0.9313099999999997  1.0000
  H   H71       1.0  0.38708  0.65874  0.06499999999999997  1.0000
  H   H72       1.0  0.4028599999999999  0.59627  0.23760999999999993  1.0000
  H   H73       1.0  0.3310899999999999  0.68917  0.16560999999999995  1.0000
  H   H74       1.0  0.4195099999999999  0.60482  0.10200999999999998  1.0000
  H   H75       1.0  0.3721299999999999  0.79166  0.06974  1.0000
  H   H76       1.0  0.6130999999999998  0.34098  0.06483  1.0000
  H   H77       1.0  0.5981299999999998  0.40236  0.23797999999999994  1.0000
  H   H78       1.0  0.6690299999999998  0.30936  0.16541999999999996  1.0000
  H   H79       1.0  0.5818199999999998  0.39521  0.10206999999999997  1.0000
  H   H80       1.0  0.6277199999999997  0.20788  0.06882  1.0000
  H   H81       1.0  0.9351999999999998  0.61391  0.6598399999999998  1.0000
  H   H82       1.0  0.76184  0.59707  0.5988599999999997  1.0000
  H   H83       1.0  0.8345299999999998  0.66835  0.6919899999999998  1.0000
  H   H84       1.0  0.8978  0.58189  0.6053399999999998  1.0000
  H   H85       1.0  0.93213  0.62793  0.7929899999999998  1.0000
  H   H86       1.0  0.9350899999999998  0.38675  0.3407799999999999  1.0000
  H   H87       1.0  0.76272  0.40322  0.40326  1.0000
  H   H88       1.0  0.8341399999999998  0.33112  0.31043  1.0000
  H   H89       1.0  0.8984799999999997  0.4193699999999999  0.39491  1.0000
  H   H90       1.0  0.9292799999999998  0.3719  0.20783  1.0000
  H   H91       1.0  0.06365  0.38676  0.65906  1.0000
  H   H92       1.0  0.23634  0.40165  0.59668  1.0000
  H   H93       1.0  0.16430999999999996  0.33135  0.6901799999999998  1.0000
  H   H94       1.0  0.10067999999999998  0.41854999999999987  0.6044599999999998  1.0000
  H   H95       1.0  0.06906999999999998  0.3717799999999999  0.7921399999999997  1.0000
  H   H96       1.0  0.06468999999999997  0.61337  0.3405499999999999  1.0000
  H   H97       1.0  0.23749999999999993  0.59624  0.4028299999999999  1.0000
  H   H98       1.0  0.16567999999999994  0.66846  0.3101599999999999  1.0000
  H   H99       1.0  0.10160999999999998  0.58094  0.3948399999999999  1.0000
  H   H100      1.0  0.06959  0.62807  0.20754999999999996  1.0000
  H   H101      1.0  0.6589699999999997  0.93511  0.6142  1.0000
  H   H102      1.0  0.59742  0.76196  0.59627  1.0000
  H   H103      1.0  0.6903299999999998  0.83403  0.6682999999999998  1.0000
  H   H104      1.0  0.60488  0.89791  0.5809199999999998  1.0000
  H   H105      1.0  0.7926699999999998  0.92976  0.62699  1.0000
  H   H106      1.0  0.3410099999999999  0.93518  0.3855099999999999  1.0000
  H   H107      1.0  0.4023599999999999  0.76218  0.4012499999999999  1.0000
  H   H108      1.0  0.3090099999999999  0.83438  0.33016  1.0000
  H   H109      1.0  0.39476  0.89797  0.41782999999999987  1.0000
  H   H110      1.0  0.20767999999999995  0.9316  0.37196999999999997  1.0000
  H   H111      1.0  0.6587999999999998  0.06455999999999998  0.38696999999999987  1.0000
  H   H112      1.0  0.5968699999999998  0.23705  0.4041499999999999  1.0000
  H   H113      1.0  0.6895699999999998  0.16566  0.33178  1.0000
  H   H114      1.0  0.6050299999999997  0.10114999999999998  0.41909  1.0000
  H   H115      1.0  0.79165  0.06931  0.37215999999999994  1.0000
  H   H116      1.0  0.34083999999999987  0.0644  0.6135499999999998  1.0000
  H   H117      1.0  0.4033499999999999  0.23670999999999995  0.59712  1.0000
  H   H118      1.0  0.30946  0.16579  0.66826  1.0000
  H   H119      1.0  0.3950999999999999  0.10075  0.58222  1.0000
  H   H120      1.0  0.20794999999999994  0.06852  0.6279999999999998  1.0000
  H   H121      1.0  0.34876  0.32455  0.0003299999999999999  1.0000
  H   H122      1.0  0.3826999999999999  0.16915  0.00015  1.0000
  H   H123      1.0  0.6506799999999998  0.67547  0.9998199999999999  1.0000
  H   H124      1.0  0.61745  0.83103  0.9998599999999999  1.0000
  H   H125      1.0  0.6504899999999998  0.32435  0.00018999999999999996  1.0000
  H   H126      1.0  0.61737  0.16873  0.9998799999999999  1.0000
  H   H127      1.0  0.34976  0.67524  0.00023999999999999995  1.0000
  H   H128      1.0  0.3824799999999999  0.83096  0.0011199999999999995  1.0000
  H   H129      1.0  0.9987899999999997  0.3497  0.32423  1.0000
  H   H130      1.0  0.9979399999999998  0.38279  0.16868  1.0000
  H   H131      1.0  0.9993099999999999  0.65042  0.6757199999999998  1.0000
  H   H132      1.0  0.0015299999999999995  0.61716  0.83126  1.0000
  H   H133      1.0  0.0009699999999999996  0.65058  0.3240499999999999  1.0000
  H   H134      1.0  0.0006499999999999998  0.61729  0.16844999999999993  1.0000
  H   H135      1.0  0.9997799999999999  0.34978  0.6755  1.0000
  H   H136      1.0  0.00037000000000000005  0.38242  0.83126  1.0000
  H   H137      1.0  0.3246099999999999  0.99964  0.3493999999999999  1.0000
  H   H138      1.0  0.16921  0.00078  0.38257  1.0000
  H   H139      1.0  0.6763999999999998  0.99858  0.6502299999999998  1.0000
  H   H140      1.0  0.8317099999999997  0.99871  0.6166099999999998  1.0000
  H   H141      1.0  0.3247299999999999  0.00015000000000000001  0.65051  1.0000
  H   H142      1.0  0.16906999999999994  0.99944  0.6174899999999998  1.0000
  H   H143      1.0  0.67519  0.00013999999999999977  0.3495299999999999  1.0000
  H   H144      1.0  0.8308499999999998  0.0005199999999999997  0.38251  1.0000
  C   C1        1.0  0.4133099999999999  0.4031299999999999  0.16903999999999994  1.0000
  C   C2        1.0  0.3953699999999999  0.38814  0.20699  1.0000
  C   C3        1.0  0.3655799999999999  0.3549  0.20510999999999993  1.0000
  C   C4        1.0  0.3547399999999999  0.33553  0.16616  1.0000
  C   C5        1.0  0.375  0.34882  0.1286  1.0000
  C   C6        1.0  0.4033599999999999  0.3834  0.13014  1.0000
  C   C7        1.0  0.4438299999999999  0.43966  0.16949  1.0000
  C   C8        1.0  0.34437  0.34  0.24484999999999996  1.0000
  C   C9        1.0  0.3532099999999999  0.28733  0.08244999999999997  1.0000
  C   C10       1.0  0.3607199999999999  0.26854  0.039019999999999985  1.0000
  C   C11       1.0  0.3696099999999999  0.22463  0.03866  1.0000
  C   C12       1.0  0.5875499999999998  0.5967899999999998  0.16836999999999994  1.0000
  C   C13       1.0  0.6058299999999998  0.61185  0.20629  1.0000
  C   C14       1.0  0.63541  0.64525  0.20434  1.0000
  C   C15       1.0  0.6454799999999998  0.66474  0.16538  1.0000
  C   C16       1.0  0.62489  0.65125  0.12787  1.0000
  C   C17       1.0  0.59683  0.61651  0.12947999999999996  1.0000
  C   C18       1.0  0.5576  0.55986  0.16865  1.0000
  C   C19       1.0  0.6576699999999998  0.66016  0.24376999999999993  1.0000
  C   C20       1.0  0.6456099999999998  0.71274  0.08202999999999998  1.0000
  C   C21       1.0  0.63852  0.7315  0.03859  1.0000
  C   C22       1.0  0.6298499999999998  0.77545  0.038289999999999984  1.0000
  C   C23       1.0  0.58659  0.40369  0.83225  1.0000
  C   C24       1.0  0.6048999999999998  0.3889  0.7943199999999998  1.0000
  C   C25       1.0  0.6346499999999998  0.35568  0.7961199999999998  1.0000
  C   C26       1.0  0.6450699999999998  0.33606  0.8349599999999998  1.0000
  C   C27       1.0  0.6244699999999997  0.34913  0.8724799999999998  1.0000
  C   C28       1.0  0.5961999999999997  0.38373  0.8710299999999997  1.0000
  C   C29       1.0  0.5560199999999997  0.44022  0.83193  1.0000
  C   C30       1.0  0.65649  0.34089  0.75652  1.0000
  C   C31       1.0  0.6454799999999998  0.28722  0.9179799999999998  1.0000
  C   C32       1.0  0.63847  0.26827  0.9613399999999998  1.0000
  C   C33       1.0  0.6298699999999998  0.22429  0.9615399999999997  1.0000
  C   C34       1.0  0.4121399999999999  0.59676  0.83106  1.0000
  C   C35       1.0  0.3942799999999999  0.61199  0.79306  1.0000
  C   C36       1.0  0.36493  0.64555  0.7948499999999997  1.0000
  C   C37       1.0  0.35443999999999987  0.66506  0.8338399999999998  1.0000
  C   C38       1.0  0.37471  0.65143  0.8714699999999997  1.0000
  C   C39       1.0  0.4026499999999999  0.61662  0.8698599999999997  1.0000
  C   C40       1.0  0.4421799999999999  0.55992  0.8309299999999997  1.0000
  C   C41       1.0  0.34358  0.66024  0.7549099999999997  1.0000
  C   C42       1.0  0.3550699999999999  0.71291  0.918  1.0000
  C   C43       1.0  0.3618899999999999  0.73137  0.9617599999999997  1.0000
  C   C44       1.0  0.37042  0.77538  0.9623699999999997  1.0000
  C   C45       1.0  0.17011999999999994  0.41097  0.40259  1.0000
  C   C46       1.0  0.20736999999999994  0.39191  0.38722999999999996  1.0000
  C   C47       1.0  0.20446999999999996  0.36263  0.3535299999999999  1.0000
  C   C48       1.0  0.16514  0.3533  0.3341699999999999  1.0000
  C   C49       1.0  0.12822  0.37452  0.34794999999999987  1.0000
  C   C50       1.0  0.13082  0.40241  0.38289  1.0000
  C   C51       1.0  0.17154  0.44139  0.4393199999999999  1.0000
  C   C52       1.0  0.24357999999999994  0.34041  0.3378599999999999  1.0000
  C   C53       1.0  0.08099  0.35473  0.28647  1.0000
  C   C54       1.0  0.037229999999999985  0.36198  0.2682  1.0000
  C   C55       1.0  0.03662  0.37063  0.22422999999999996  1.0000
  C   C56       1.0  0.16968999999999995  0.58673  0.59645  1.0000
  C   C57       1.0  0.20719999999999994  0.60557  0.61172  1.0000
  C   C58       1.0  0.20473999999999995  0.63522  0.6450499999999999  1.0000
  C   C59       1.0  0.16565  0.64514  0.6642799999999998  1.0000
  C   C60       1.0  0.12845999999999994  0.62401  0.6507799999999998  1.0000
  C   C61       1.0  0.13058  0.59571  0.6160899999999998  1.0000
  C   C62       1.0  0.17119  0.5563  0.5597  1.0000
  C   C63       1.0  0.24389999999999995  0.6576  0.66023  1.0000
  C   C64       1.0  0.08233999999999997  0.64506  0.7123  1.0000
  C   C65       1.0  0.03889999999999998  0.63802  0.7312  1.0000
  C   C66       1.0  0.03911999999999999  0.62937  0.7751799999999998  1.0000
  C   C67       1.0  0.8317199999999998  0.58827  0.4032399999999999  1.0000
  C   C68       1.0  0.7939899999999998  0.60655  0.38790999999999987  1.0000
  C   C69       1.0  0.7961199999999998  0.63563  0.3541699999999999  1.0000
  C   C70       1.0  0.8351199999999998  0.64546  0.3346899999999999  1.0000
  C   C71       1.0  0.8724999999999998  0.62488  0.34837  1.0000
  C   C72       1.0  0.87067  0.59716  0.3833799999999999  1.0000
  C   C73       1.0  0.8307099999999997  0.55832  0.4402199999999999  1.0000
  C   C74       1.0  0.7567699999999998  0.65756  0.3389899999999999  1.0000
  C   C75       1.0  0.9185099999999998  0.64535  0.2868699999999999  1.0000
  C   C76       1.0  0.9619999999999997  0.6384  0.26804  1.0000
  C   C77       1.0  0.9622999999999998  0.6297  0.22404999999999994  1.0000
  C   C78       1.0  0.8310599999999998  0.41328  0.59653  1.0000
  C   C79       1.0  0.79311  0.39543  0.6117899999999997  1.0000
  C   C80       1.0  0.79498  0.36592  0.64522  1.0000
  C   C81       1.0  0.8340299999999998  0.35538  0.6645099999999998  1.0000
  C   C82       1.0  0.8716099999999998  0.37555  0.65091  1.0000
  C   C83       1.0  0.87  0.40357  0.61616  1.0000
  C   C84       1.0  0.8304099999999998  0.44358  0.55985  1.0000
  C   C85       1.0  0.75539  0.34454  0.6607199999999998  1.0000
  C   C86       1.0  0.9176399999999998  0.35548  0.71265  1.0000
  C   C87       1.0  0.9612199999999997  0.36211  0.7314699999999997  1.0000
  C   C88       1.0  0.9617299999999998  0.37063  0.7754899999999998  1.0000
  C   C89       1.0  0.40372999999999987  0.1696  0.4134799999999999  1.0000
  C   C90       1.0  0.38907  0.20732  0.3947299999999999  1.0000
  C   C91       1.0  0.35601  0.20525  0.3646899999999999  1.0000
  C   C92       1.0  0.33636  0.16627  0.3544  1.0000
  C   C93       1.0  0.34938999999999987  0.12887  0.37537  1.0000
  C   C94       1.0  0.38385999999999987  0.13069  0.4039399999999999  1.0000
  C   C95       1.0  0.4400999999999999  0.17046999999999998  0.44434  1.0000
  C   C96       1.0  0.3415999999999999  0.24498  0.3428299999999999  1.0000
  C   C97       1.0  0.28787  0.08241  0.35459  1.0000
  C   C98       1.0  0.26902  0.03888  0.36163  1.0000
  C   C99       1.0  0.22508999999999996  0.03882  0.37026  1.0000
  C   C100      1.0  0.59822  0.16946  0.58838  1.0000
  C   C101      1.0  0.6134899999999998  0.20679  0.60781  1.0000
  C   C102      1.0  0.64698  0.20394  0.6373699999999998  1.0000
  C   C103      1.0  0.66634  0.16467  0.6465399999999998  1.0000
  C   C104      1.0  0.6527  0.12776  0.6250199999999998  1.0000
  C   C105      1.0  0.6178899999999998  0.13025  0.5969199999999998  1.0000
  C   C106      1.0  0.5614199999999998  0.17076  0.55789  1.0000
  C   C107      1.0  0.66282  0.24285  0.6601599999999997  1.0000
  C   C108      1.0  0.7137899999999998  0.08082  0.64601  1.0000
  C   C109      1.0  0.73232  0.03735  0.6382299999999997  1.0000
  C   C110      1.0  0.77621  0.03708  0.6293799999999998  1.0000
  C   C111      1.0  0.40341  0.8308  0.5863599999999998  1.0000
  C   C112      1.0  0.3884799999999999  0.79301  0.6047899999999998  1.0000
  C   C113      1.0  0.3551699999999999  0.79509  0.63433  1.0000
  C   C114      1.0  0.33579  0.83414  0.64452  1.0000
  C   C115      1.0  0.3491499999999999  0.87158  0.62398  1.0000
  C   C116      1.0  0.38372  0.86979  0.5957799999999999  1.0000
  C   C117      1.0  0.43982  0.83014  0.5557499999999997  1.0000
  C   C118      1.0  0.3399299999999999  0.75569  0.6562199999999998  1.0000
  C   C119      1.0  0.28774  0.91767  0.6452299999999997  1.0000
  C   C120      1.0  0.2688599999999999  0.96113  0.6382899999999998  1.0000
  C   C121      1.0  0.22485999999999995  0.96126  0.6297199999999997  1.0000
  C   C122      1.0  0.5966099999999998  0.83083  0.4116399999999999  1.0000
  C   C123      1.0  0.61161  0.79318  0.3928999999999999  1.0000
  C   C124      1.0  0.6450299999999998  0.79553  0.3634799999999999  1.0000
  C   C125      1.0  0.6643899999999998  0.83465  0.3536199999999999  1.0000
  C   C126      1.0  0.65096  0.8718999999999998  0.3745599999999999  1.0000
  C   C127      1.0  0.61637  0.86987  0.40266999999999986  1.0000
  C   C128      1.0  0.56019  0.83021  0.4422199999999999  1.0000
  C   C129      1.0  0.6606399999999998  0.75625  0.3416299999999999  1.0000
  C   C130      1.0  0.7125  0.918  0.3544499999999999  1.0000
  C   C131      1.0  0.7312699999999998  0.9615  0.36154999999999987  1.0000
  C   C132      1.0  0.7752499999999998  0.96193  0.37014  1.0000
  C   C133      1.0  0.5862899999999998  0.59722  0.8304199999999998  1.0000
  C   C134      1.0  0.6041699999999998  0.61247  0.79256  1.0000
  C   C135      1.0  0.6340499999999998  0.6456  0.79449  1.0000
  C   C136      1.0  0.6449999999999998  0.66474  0.83357  1.0000
  C   C137      1.0  0.62476  0.65121  0.8711199999999998  1.0000
  C   C138      1.0  0.5963799999999998  0.61663  0.86943  1.0000
  C   C139      1.0  0.5557699999999998  0.56069  0.8294599999999998  1.0000
  C   C140      1.0  0.6555099999999998  0.66028  0.7546999999999998  1.0000
  C   C141      1.0  0.64577  0.71259  0.9175599999999998  1.0000
  C   C142      1.0  0.6385799999999998  0.73141  0.96105  1.0000
  C   C143      1.0  0.62988  0.77537  0.9613999999999998  1.0000
  C   C144      1.0  0.4119699999999999  0.40328  0.83056  1.0000
  C   C145      1.0  0.3932799999999999  0.38816  0.79288  1.0000
  C   C146      1.0  0.3637399999999999  0.35477  0.7951399999999997  1.0000
  C   C147      1.0  0.35392  0.33529  0.8341699999999997  1.0000
  C   C148      1.0  0.37487  0.34879  0.8715099999999999  1.0000
  C   C149      1.0  0.4029299999999999  0.38357  0.8695699999999997  1.0000
  C   C150      1.0  0.4422599999999999  0.44003  0.82977  1.0000
  C   C151      1.0  0.3415299999999999  0.33974  0.7557999999999998  1.0000
  C   C152      1.0  0.35445  0.28739  0.9178799999999998  1.0000
  C   C153      1.0  0.3614799999999999  0.26869  0.9614499999999998  1.0000
  C   C154      1.0  0.3703399999999999  0.22476  0.9617799999999997  1.0000
  C   C155      1.0  0.41325  0.59629  0.16958999999999994  1.0000
  C   C156      1.0  0.3946199999999999  0.61096  0.20734  1.0000
  C   C157      1.0  0.36464999999999986  0.6439699999999998  0.20537  1.0000
  C   C158      1.0  0.3543099999999999  0.6635899999999999  0.16643999999999995  1.0000
  C   C159      1.0  0.37527  0.6506699999999997  0.12904  1.0000
  C   C160      1.0  0.40377  0.61623  0.13072999999999996  1.0000
  C   C161      1.0  0.4439299999999999  0.55986  0.17047999999999994  1.0000
  C   C162      1.0  0.34278  0.6582  0.24506999999999995  1.0000
  C   C163      1.0  0.3545299999999999  0.7124  0.08285999999999998  1.0000
  C   C164      1.0  0.36170999999999986  0.73116  0.03937  1.0000
  C   C165      1.0  0.37025  0.77517  0.03924  1.0000
  C   C166      1.0  0.58804  0.40308  0.16981  1.0000
  C   C167      1.0  0.6063099999999998  0.38788  0.20758999999999994  1.0000
  C   C168      1.0  0.6358899999999997  0.35454  0.20545  1.0000
  C   C169      1.0  0.6461399999999998  0.3352  0.16636999999999993  1.0000
  C   C170      1.0  0.6253899999999998  0.34863  0.12893999999999994  1.0000
  C   C171      1.0  0.5973199999999997  0.3833699999999999  0.1308  1.0000
  C   C172      1.0  0.5578799999999998  0.43982  0.17063999999999993  1.0000
  C   C173      1.0  0.65749  0.3397  0.24511999999999995  1.0000
  C   C174      1.0  0.6456199999999997  0.28716  0.08243  1.0000
  C   C175      1.0  0.6383599999999998  0.26838  0.038889999999999994  1.0000
  C   C176      1.0  0.62974  0.22439  0.03841999999999999  1.0000
  C   C177      1.0  0.8299499999999997  0.58741  0.5979199999999998  1.0000
  C   C178      1.0  0.79224  0.60542  0.6133399999999998  1.0000
  C   C179      1.0  0.79444  0.635  0.6467499999999998  1.0000
  C   C180      1.0  0.8335299999999998  0.64546  0.66604  1.0000
  C   C181      1.0  0.8709199999999998  0.62504  0.65237  1.0000
  C   C182      1.0  0.8690599999999998  0.59703  0.61744  1.0000
  C   C183      1.0  0.8286599999999997  0.55736  0.56099  1.0000
  C   C184      1.0  0.75494  0.65687  0.6614399999999998  1.0000
  C   C185      1.0  0.9175299999999997  0.64564  0.7140099999999998  1.0000
  C   C186      1.0  0.9613499999999998  0.63849  0.7321799999999998  1.0000
  C   C187      1.0  0.9623099999999998  0.62982  0.77612  1.0000
  C   C188      1.0  0.8308599999999998  0.4134  0.4032699999999999  1.0000
  C   C189      1.0  0.79291  0.39482  0.3886199999999999  1.0000
  C   C190      1.0  0.79464  0.3647699999999999  0.3555799999999999  1.0000
  C   C191      1.0  0.8334699999999998  0.35434  0.33606999999999987  1.0000
  C   C192      1.0  0.8710099999999997  0.37516  0.34905999999999987  1.0000
  C   C193      1.0  0.8696199999999997  0.40374  0.38346999999999987  1.0000
  C   C194      1.0  0.83029  0.44439  0.4394699999999999  1.0000
  C   C195      1.0  0.7550499999999998  0.3427199999999999  0.34089999999999987  1.0000
  C   C196      1.0  0.9163  0.35436  0.28717  1.0000
  C   C197      1.0  0.9596699999999998  0.36146  0.26827  1.0000
  C   C198      1.0  0.9597799999999997  0.37008  0.22431999999999994  1.0000
  C   C199      1.0  0.16823999999999995  0.41213  0.5963999999999998  1.0000
  C   C200      1.0  0.20604999999999993  0.39367  0.6113599999999998  1.0000
  C   C201      1.0  0.20403  0.36422  0.6447899999999998  1.0000
  C   C202      1.0  0.16509999999999994  0.35416  0.6642799999999998  1.0000
  C   C203      1.0  0.12769  0.37487  0.6509299999999998  1.0000
  C   C204      1.0  0.12935999999999995  0.40292  0.61622  1.0000
  C   C205      1.0  0.16883  0.44249  0.5597999999999997  1.0000
  C   C206      1.0  0.24350999999999995  0.34242  0.6600399999999997  1.0000
  C   C207      1.0  0.08207999999999997  0.35444  0.71271  1.0000
  C   C208      1.0  0.03872999999999999  0.36156  0.73158  1.0000
  C   C209      1.0  0.03857999999999999  0.37003  0.7755999999999997  1.0000
  C   C210      1.0  0.16926999999999995  0.58648  0.40294999999999986  1.0000
  C   C211      1.0  0.20720999999999995  0.60478  0.38829999999999987  1.0000
  C   C212      1.0  0.20526999999999995  0.63472  0.3552499999999999  1.0000
  C   C213      1.0  0.16635999999999995  0.64537  0.3358199999999999  1.0000
  C   C214      1.0  0.12882999999999994  0.62481  0.34885  1.0000
  C   C215      1.0  0.1304  0.59636  0.3832299999999999  1.0000
  C   C216      1.0  0.16946999999999995  0.55558  0.43908999999999987  1.0000
  C   C217      1.0  0.24478999999999995  0.6563  0.34016  1.0000
  C   C218      1.0  0.0832  0.64567  0.2870299999999999  1.0000
  C   C219      1.0  0.03963999999999999  0.63872  0.2680599999999999  1.0000
  C   C220      1.0  0.039199999999999985  0.63004  0.22406999999999994  1.0000
  C   C221      1.0  0.59683  0.83015  0.5867099999999997  1.0000
  C   C222      1.0  0.612  0.79227  0.6047799999999998  1.0000
  C   C223      1.0  0.6452999999999998  0.7942  0.63453  1.0000
  C   C224      1.0  0.66461  0.83321  0.6451499999999998  1.0000
  C   C225      1.0  0.65131  0.8707  0.62463  1.0000
  C   C226      1.0  0.6165999999999998  0.86912  0.59635  1.0000
  C   C227      1.0  0.56011  0.82926  0.55632  1.0000
  C   C228      1.0  0.6601299999999998  0.75461  0.6562699999999998  1.0000
  C   C229      1.0  0.7136699999999998  0.91617  0.6445599999999998  1.0000
  C   C230      1.0  0.73231  0.95979  0.63783  1.0000
  C   C231      1.0  0.7761999999999998  0.9602099999999998  0.6290799999999998  1.0000
  C   C232      1.0  0.40284  0.83028  0.41155999999999987  1.0000
  C   C233      1.0  0.3877199999999999  0.79248  0.3931  1.0000
  C   C234      1.0  0.3542999999999999  0.79438  0.3634499999999999  1.0000
  C   C235      1.0  0.33487  0.83344  0.3531699999999999  1.0000
  C   C236      1.0  0.34827999999999987  0.8709099999999997  0.3739499999999999  1.0000
  C   C237      1.0  0.38302  0.86921  0.4022199999999999  1.0000
  C   C238      1.0  0.4396499999999999  0.8295  0.44193  1.0000
  C   C239      1.0  0.3395999999999999  0.75461  0.3415899999999999  1.0000
  C   C240      1.0  0.28657  0.91746  0.3540699999999999  1.0000
  C   C241      1.0  0.2683599999999999  0.96123  0.3613599999999999  1.0000
  C   C242      1.0  0.22443999999999995  0.96193  0.37004  1.0000
  C   C243      1.0  0.5966599999999997  0.1687  0.4136199999999999  1.0000
  C   C244      1.0  0.6113799999999999  0.20679  0.3955599999999999  1.0000
  C   C245      1.0  0.6444299999999997  0.20518  0.3656399999999999  1.0000
  C   C246      1.0  0.6639699999999997  0.16629  0.35491  1.0000
  C   C247      1.0  0.65098  0.12866  0.3753899999999999  1.0000
  C   C248      1.0  0.6165499999999998  0.13002  0.40373  1.0000
  C   C249      1.0  0.56031  0.16868  0.44424999999999987  1.0000
  C   C250      1.0  0.65888  0.24502  0.3440499999999999  1.0000
  C   C251      1.0  0.7124099999999998  0.08254  0.3545099999999999  1.0000
  C   C252      1.0  0.73118  0.03905  0.36157  1.0000
  C   C253      1.0  0.7751699999999998  0.03882  0.37014999999999987  1.0000
  C   C254      1.0  0.40339999999999987  0.16841  0.5875799999999998  1.0000
  C   C255      1.0  0.3885899999999999  0.20653  0.6055199999999997  1.0000
  C   C256      1.0  0.35522  0.20508  0.63503  1.0000
  C   C257      1.0  0.3354099999999999  0.16628  0.6455199999999998  1.0000
  C   C258      1.0  0.34863  0.12853  0.6252499999999998  1.0000
  C   C259      1.0  0.3833999999999999  0.12974  0.5972999999999998  1.0000
  C   C260      1.0  0.4401599999999999  0.16851  0.55749  1.0000
  C   C261      1.0  0.3407099999999999  0.24508  0.6564199999999998  1.0000
  C   C262      1.0  0.2871499999999999  0.08231  0.64577  1.0000
  C   C263      1.0  0.2685399999999999  0.03869999999999999  0.6385999999999997  1.0000
  C   C264      1.0  0.22456999999999994  0.03814  0.6299599999999997  1.0000
  C   C265      1.0  0.35745  0.29086  0.00027999999999999987  1.0000
  C   C266      1.0  0.3752799999999999  0.20305  0.0002  1.0000
  C   C267      1.0  0.64214  0.7092  0.99981  1.0000
  C   C268      1.0  0.6247  0.79709  0.9998499999999999  1.0000
  C   C269      1.0  0.6419699999999998  0.29059  0.00015  1.0000
  C   C270      1.0  0.62464  0.20266  0.9999399999999999  1.0000
  C   C271      1.0  0.35824  0.709  0.00044  1.0000
  C   C272      1.0  0.3754  0.79698  0.00093  1.0000
  C   C273      1.0  0.9985899999999998  0.35819  0.2905  1.0000
  C   C274      1.0  0.9980899999999998  0.3755399999999999  0.20261  1.0000
  C   C275      1.0  0.9997999999999999  0.64184  0.7094299999999998  1.0000
  C   C276      1.0  0.0010199999999999992  0.62443  0.7973399999999998  1.0000
  C   C277      1.0  0.0008799999999999998  0.64212  0.29028  1.0000
  C   C278      1.0  0.0007  0.62466  0.20239  1.0000
  C   C279      1.0  0.9998999999999999  0.35827  0.7092599999999998  1.0000
  C   C280      1.0  0.00023999999999999938  0.37535  0.7972699999999998  1.0000
  C   C281      1.0  0.2909199999999999  0.9998999999999999  0.3579299999999999  1.0000
  C   C282      1.0  0.20311999999999994  0.0005299999999999998  0.3753199999999999  1.0000
  C   C283      1.0  0.7100799999999998  0.99856  0.6416399999999998  1.0000
  C   C284      1.0  0.7978499999999997  0.99868  0.6239999999999998  1.0000
  C   C285      1.0  0.29097  2e-05  0.64201  1.0000
  C   C286      1.0  0.20302999999999993  0.9996  0.62469  1.0000
  C   C287      1.0  0.7089599999999999  0.00022  0.35802  1.0000
  C   C288      1.0  0.79691  0.0004299999999999998  0.3752899999999999  1.0000
  N   N1        1.0  0.36882  0.32838  0.08881999999999997  1.0000
  N   N2        1.0  0.63061  0.6715  0.08807999999999998  1.0000
  N   N3        1.0  0.6303699999999998  0.32845  0.9121  1.0000
  N   N4        1.0  0.36895  0.67135  0.9115699999999998  1.0000
  N   N5        1.0  0.08809  0.36964  0.3276699999999999  1.0000
  N   N6        1.0  0.08861999999999999  0.62964  0.6711399999999997  1.0000
  N   N7        1.0  0.9123299999999998  0.63018  0.328  1.0000
  N   N8        1.0  0.9115399999999998  0.36963  0.6711399999999997  1.0000
  N   N9        1.0  0.3290299999999999  0.08891  0.36976  1.0000
  N   N10       1.0  0.6730299999999998  0.08779  0.62994  1.0000
  N   N11       1.0  0.3287899999999999  0.91141  0.6298399999999997  1.0000
  N   N12       1.0  0.6712799999999998  0.91178  0.36928  1.0000
  N   N13       1.0  0.6309799999999998  0.67128  0.91114  1.0000
  N   N14       1.0  0.36952  0.32856  0.9114499999999998  1.0000
  N   N15       1.0  0.3695699999999999  0.67118  0.08922  1.0000
  N   N16       1.0  0.6307999999999998  0.32841  0.08892999999999997  1.0000
  N   N17       1.0  0.9108499999999998  0.63094  0.6726599999999998  1.0000
  N   N18       1.0  0.9106299999999998  0.36928  0.3285299999999999  1.0000
  N   N19       1.0  0.08799999999999997  0.36934  0.6714299999999997  1.0000
  N   N20       1.0  0.08908999999999997  0.6307699999999998  0.3283399999999999  1.0000
  N   N21       1.0  0.6718699999999997  0.91044  0.6307499999999998  1.0000
  N   N22       1.0  0.32806999999999986  0.91089  0.36828999999999995  1.0000
  N   N23       1.0  0.6713099999999999  0.08883  0.3695799999999999  1.0000
  N   N24       1.0  0.32834  0.08866  0.63102  1.0000
  O   O1        1.0  0.4560999999999999  0.45378  0.13313  1.0000
  O   O2        1.0  0.45572  0.45415  0.20583  1.0000
  O   O3        1.0  0.3644  0.3466  0.28051  1.0000
  O   O4        1.0  0.3079  0.32249  0.24239999999999995  1.0000
  O   O5        1.0  0.3356  0.26629  0.11045999999999997  1.0000
  O   O6        1.0  0.5458599999999998  0.5454  0.13212  1.0000
  O   O7        1.0  0.54588  0.54557  0.20499  1.0000
  O   O8        1.0  0.6395699999999997  0.6514899999999998  0.27981  1.0000
  O   O9        1.0  0.6930499999999998  0.67965  0.24014999999999995  1.0000
  O   O10       1.0  0.6625099999999998  0.73393  0.11054999999999997  1.0000
  O   O11       1.0  0.5438399999999998  0.45439  0.86832  1.0000
  O   O12       1.0  0.54409  0.45457  0.79563  1.0000
  O   O13       1.0  0.6375699999999997  0.34852  0.7205499999999998  1.0000
  O   O14       1.0  0.6923799999999998  0.32241  0.75968  1.0000
  O   O15       1.0  0.66242  0.26616  0.88947  1.0000
  O   O16       1.0  0.4540099999999999  0.54569  0.8674999999999998  1.0000
  O   O17       1.0  0.4539399999999999  0.5456  0.7945899999999998  1.0000
  O   O18       1.0  0.3623099999999999  0.65152  0.7190999999999997  1.0000
  O   O19       1.0  0.30812  0.67958  0.75766  1.0000
  O   O20       1.0  0.3393099999999999  0.73468  0.8893699999999998  1.0000
  O   O21       1.0  0.13531  0.45449  0.45301999999999987  1.0000
  O   O22       1.0  0.20799999999999993  0.45238  0.4542199999999999  1.0000
  O   O23       1.0  0.27966  0.35894  0.34612  1.0000
  O   O24       1.0  0.23948999999999995  0.30516  0.3183199999999999  1.0000
  O   O25       1.0  0.10873999999999998  0.33771  0.2645699999999999  1.0000
  O   O26       1.0  0.13509  0.54344  0.54519  1.0000
  O   O27       1.0  0.20781999999999995  0.54528  0.5455599999999998  1.0000
  O   O28       1.0  0.2800699999999999  0.63947  0.6517099999999998  1.0000
  O   O29       1.0  0.23975999999999995  0.69289  0.67968  1.0000
  O   O30       1.0  0.11058  0.6622599999999997  0.73363  1.0000
  O   O31       1.0  0.8668899999999998  0.54555  0.45443  1.0000
  O   O32       1.0  0.7941499999999998  0.54748  0.4546999999999999  1.0000
  O   O33       1.0  0.7207799999999998  0.63856  0.34644  1.0000
  O   O34       1.0  0.76038  0.69338  0.32048  1.0000
  O   O35       1.0  0.88996  0.66231  0.26586  1.0000
  O   O36       1.0  0.8667199999999998  0.45631  0.54595  1.0000
  O   O37       1.0  0.79398  0.45474  0.54519  1.0000
  O   O38       1.0  0.7193899999999998  0.36362  0.6534999999999997  1.0000
  O   O39       1.0  0.7584899999999998  0.3088  0.67948  1.0000
  O   O40       1.0  0.8889499999999998  0.33961  0.7341399999999998  1.0000
  O   O41       1.0  0.4543399999999999  0.13412  0.4566399999999999  1.0000
  O   O42       1.0  0.4541499999999999  0.20692  0.4563099999999999  1.0000
  O   O43       1.0  0.34989  0.28089  0.3616399999999999  1.0000
  O   O44       1.0  0.32283  0.24217  0.30697  1.0000
  O   O45       1.0  0.26658  0.11066  0.33759  1.0000
  O   O46       1.0  0.5463099999999997  0.13454  0.5458199999999997  1.0000
  O   O47       1.0  0.5478399999999998  0.20734  0.5459299999999998  1.0000
  O   O48       1.0  0.6541399999999998  0.27923  0.6426999999999998  1.0000
  O   O49       1.0  0.6830799999999998  0.23808  0.6949199999999998  1.0000
  O   O50       1.0  0.7350799999999997  0.10841  0.6643099999999997  1.0000
  O   O51       1.0  0.4540799999999999  0.86644  0.5435099999999998  1.0000
  O   O52       1.0  0.4539399999999999  0.79379  0.5437399999999998  1.0000
  O   O53       1.0  0.34963  0.71946  0.63874  1.0000
  O   O54       1.0  0.3190899999999999  0.75968  0.6906499999999998  1.0000
  O   O55       1.0  0.26665  0.88938  0.6623499999999998  1.0000
  O   O56       1.0  0.5458999999999998  0.86654  0.4543399999999999  1.0000
  O   O57       1.0  0.54609  0.7939  0.4543399999999999  1.0000
  O   O58       1.0  0.65198  0.72015  0.3597  1.0000
  O   O59       1.0  0.6808699999999998  0.76001  0.30684  1.0000
  O   O60       1.0  0.7336299999999998  0.8895099999999998  0.3376099999999999  1.0000
  O   O61       1.0  0.54383  0.54578  0.8656299999999998  1.0000
  O   O62       1.0  0.54374  0.54714  0.7927899999999998  1.0000
  O   O63       1.0  0.63566  0.6536099999999998  0.7189199999999998  1.0000
  O   O64       1.0  0.69208  0.67752  0.7575599999999998  1.0000
  O   O65       1.0  0.6626  0.73392  0.8892999999999998  1.0000
  O   O66       1.0  0.4543399999999999  0.45447  0.86616  1.0000
  O   O67       1.0  0.4539699999999999  0.45428  0.7934499999999998  1.0000
  O   O68       1.0  0.35987  0.34825  0.71978  1.0000
  O   O69       1.0  0.3061399999999999  0.32041  0.75968  1.0000
  O   O70       1.0  0.3374499999999999  0.26608  0.88947  1.0000
  O   O71       1.0  0.45625  0.5455  0.1342  1.0000
  O   O72       1.0  0.45579999999999987  0.54579  0.20694999999999994  1.0000
  O   O73       1.0  0.36263  0.6514  0.28079  1.0000
  O   O74       1.0  0.30613  0.67526  0.24233999999999994  1.0000
  O   O75       1.0  0.33749  0.73371  0.11105999999999998  1.0000
  O   O76       1.0  0.5458399999999998  0.45434  0.13431  1.0000
  O   O77       1.0  0.5461699999999998  0.45399  0.20711999999999994  1.0000
  O   O78       1.0  0.63767  0.34641  0.28077  1.0000
  O   O79       1.0  0.6939599999999998  0.32228  0.24234999999999995  1.0000
  O   O80       1.0  0.66267  0.26594  0.11072999999999997  1.0000
  O   O81       1.0  0.86475  0.54567  0.5458  1.0000
  O   O82       1.0  0.7920199999999997  0.54535  0.5473399999999998  1.0000
  O   O83       1.0  0.7192399999999998  0.63667  0.65573  1.0000
  O   O84       1.0  0.7581799999999999  0.6939499999999998  0.6776299999999997  1.0000
  O   O85       1.0  0.8894499999999997  0.66223  0.73579  1.0000
  O   O86       1.0  0.86654  0.45641  0.4543099999999999  1.0000
  O   O87       1.0  0.79378  0.45678  0.4527699999999999  1.0000
  O   O88       1.0  0.7191299999999998  0.36163  0.34856  1.0000
  O   O89       1.0  0.75839  0.30674  0.3224999999999999  1.0000
  O   O90       1.0  0.88756  0.33767  0.26612999999999987  1.0000
  O   O91       1.0  0.13251999999999994  0.4544799999999999  0.5452599999999997  1.0000
  O   O92       1.0  0.20521999999999996  0.45446  0.5458  1.0000
  O   O93       1.0  0.27943  0.36104  0.65162  1.0000
  O   O94       1.0  0.23978999999999995  0.30716  0.67956  1.0000
  O   O95       1.0  0.11060999999999997  0.33761  0.73383  1.0000
  O   O96       1.0  0.13296  0.54329  0.45265  1.0000
  O   O97       1.0  0.20568999999999996  0.54352  0.4537199999999999  1.0000
  O   O98       1.0  0.28045  0.63638  0.3466  1.0000
  O   O99       1.0  0.24172999999999994  0.69267  0.3225999999999999  1.0000
  O   O100      1.0  0.11188999999999998  0.66227  0.26607  1.0000
  O   O101      1.0  0.5460299999999998  0.8655  0.54349  1.0000
  O   O102      1.0  0.5455899999999998  0.79266  0.54522  1.0000
  O   O103      1.0  0.65389  0.71882  0.6364  1.0000
  O   O104      1.0  0.6771  0.75763  0.6929899999999998  1.0000
  O   O105      1.0  0.7353599999999998  0.8873899999999998  0.6601299999999998  1.0000
  O   O106      1.0  0.4540299999999999  0.86582  0.4543599999999999  1.0000
  O   O107      1.0  0.4540399999999999  0.7930599999999999  0.4534199999999999  1.0000
  O   O108      1.0  0.3459599999999999  0.71889  0.3614499999999999  1.0000
  O   O109      1.0  0.3226099999999999  0.75763  0.3048899999999999  1.0000
  O   O110      1.0  0.2646799999999999  0.88922  0.3376299999999999  1.0000
  O   O111      1.0  0.5463699999999998  0.13213  0.45640999999999987  1.0000
  O   O112      1.0  0.54596  0.20494  0.4562299999999999  1.0000
  O   O113      1.0  0.6520199999999998  0.28085  0.3635499999999999  1.0000
  O   O114      1.0  0.67638  0.24217  0.3075499999999999  1.0000
  O   O115      1.0  0.7335499999999998  0.11087  0.33756  1.0000
  O   O116      1.0  0.4542799999999999  0.13197  0.5455499999999998  1.0000
  O   O117      1.0  0.45459  0.20482999999999996  0.5457899999999998  1.0000
  O   O118      1.0  0.3478  0.2808  0.63672  1.0000
  O   O119      1.0  0.3230099999999999  0.24249  0.69274  1.0000
  O   O120      1.0  0.26586  0.11071  0.6624899999999998  1.0000
