data_image0
_chemical_formula_structural       Zn32H144C304N32O128
_chemical_formula_sum              "Zn32 H144 C304 N32 O128"
_cell_length_a       25.44829
_cell_length_b       25.46456
_cell_length_c       30.12968
_cell_angle_alpha    115.03532000000001
_cell_angle_beta     114.99151999999998
_cell_angle_gamma    90.13637

_symmetry_space_group_name_H-M    'P 1'
_symmetry_Int_Tables_number       1

loop_
  _symmetry_equiv_pos_as_xyz
  'x,y,z'

loop_
  _atom_site_type_symbol
  _atom_site_label
  _atom_site_symmetry_multiplicity
  _atom_site_fract_x
  _atom_site_fract_y
  _atom_site_fract_z
  _atom_site_occupancy
  Zn  Zn1       1.0  0.35727  0.56837  0.25091  1.0000
  Zn  Zn2       1.0  0.89272  0.18417  0.25142  1.0000
  Zn  Zn3       1.0  0.17716999999999994  0.35418999999999995  0.7478299999999999  1.0000
  Zn  Zn4       1.0  0.57391  0.8995999999999996  0.7547299999999999  1.0000
  Zn  Zn5       1.0  0.64577  0.82279  0.7519999999999999  1.0000
  Zn  Zn6       1.0  0.10042999999999999  0.42607  0.7451  1.0000
  Zn  Zn7       1.0  0.8164500000000001  0.10899  0.24927  1.0000
  Zn  Zn8       1.0  0.43179  0.6425299999999999  0.24959  1.0000
  Zn  Zn9       1.0  0.6427300000000001  0.43162999999999985  0.7490899999999999  1.0000
  Zn  Zn10      1.0  0.10729  0.8158299999999998  0.74859  1.0000
  Zn  Zn11      1.0  0.82283  0.64581  0.25217  1.0000
  Zn  Zn12      1.0  0.4261  0.10040999999999997  0.24528  1.0000
  Zn  Zn13      1.0  0.35423  0.1772199999999999  0.24799999999999997  1.0000
  Zn  Zn14      1.0  0.89958  0.5739399999999999  0.25491  1.0000
  Zn  Zn15      1.0  0.18355000000000002  0.8910099999999999  0.75074  1.0000
  Zn  Zn16      1.0  0.56822  0.35747  0.75041  1.0000
  Zn  Zn17      1.0  0.30105  0.7834599999999999  0.06311  1.0000
  Zn  Zn18      1.0  0.19551000000000004  0.7408899999999999  0.97979  1.0000
  Zn  Zn19      1.0  0.76016  0.7830699999999998  0.06487  1.0000
  Zn  Zn20      1.0  0.7815300000000001  0.7431299999999997  0.9820999999999999  1.0000
  Zn  Zn21      1.0  0.78354  0.30106  0.56313  1.0000
  Zn  Zn22      1.0  0.7409  0.19561999999999996  0.47973999999999994  1.0000
  Zn  Zn23      1.0  0.78281  0.7602  0.5648  1.0000
  Zn  Zn24      1.0  0.74301  0.7815699999999999  0.48196  1.0000
  Zn  Zn25      1.0  0.69896  0.21653999999999998  0.9369  1.0000
  Zn  Zn26      1.0  0.8045  0.25912  0.02021  1.0000
  Zn  Zn27      1.0  0.23984  0.2169299999999999  0.9351299999999999  1.0000
  Zn  Zn28      1.0  0.21848000000000004  0.25687  0.0179  1.0000
  Zn  Zn29      1.0  0.2172  0.2398  0.4352  1.0000
  Zn  Zn30      1.0  0.25699  0.21843  0.51805  1.0000
  Zn  Zn31      1.0  0.21646000000000004  0.6989499999999997  0.43687  1.0000
  Zn  Zn32      1.0  0.25911  0.80438  0.52027  1.0000
  H   H1        1.0  0.2958500000000001  0.67634  0.1351  1.0000
  H   H2        1.0  0.5708  0.6642099999999997  0.3906  1.0000
  H   H3        1.0  0.10723  0.6462099999999997  0.03347  1.0000
  H   H4        1.0  0.17631  0.55394  0.13158  1.0000
  H   H5        1.0  0.6145400000000002  0.58461  0.56959  1.0000
  H   H6        1.0  0.64459  0.62123  0.52495  1.0000
  H   H7        1.0  0.08971  0.48865  0.07077  1.0000
  H   H8        1.0  0.46809  0.5275499999999999  0.38843  1.0000
  H   H9        1.0  0.83669  0.95823  0.13036  1.0000
  H   H10       1.0  0.8205600000000001  0.2274299999999999  0.39296999999999993  1.0000
  H   H11       1.0  0.92338  0.8931099999999997  0.02793  1.0000
  H   H12       1.0  0.95248  0.08231  0.13183  1.0000
  H   H13       1.0  0.95836  0.48436  0.57361  1.0000
  H   H14       1.0  0.8868800000000001  0.4035999999999999  0.52999  1.0000
  H   H15       1.0  0.9837  0.09271  0.07864  1.0000
  H   H16       1.0  0.9213400000000002  0.36173  0.39083  1.0000
  H   H17       1.0  0.9492499999999999  0.28392  0.61905  1.0000
  H   H18       1.0  0.2180600000000001  0.5664999999999999  0.88289  1.0000
  H   H19       1.0  0.89026  0.09363  0.51939  1.0000
  H   H20       1.0  0.07783999999999996  0.17481  0.62886  1.0000
  H   H21       1.0  0.47551  0.6168899999999999  0.06729  1.0000
  H   H22       1.0  0.39468  0.64679  0.01833  1.0000
  H   H23       1.0  0.09089000000000001  0.08916999999999996  0.57457  1.0000
  H   H24       1.0  0.35564000000000007  0.46743999999999997  0.88759  1.0000
  H   H25       1.0  0.67663  0.8400199999999998  0.63238  1.0000
  H   H26       1.0  0.66473  0.8219999999999997  0.8899199999999999  1.0000
  H   H27       1.0  0.64186  0.9247399999999998  0.5287  1.0000
  H   H28       1.0  0.556  0.95756  0.63261  1.0000
  H   H29       1.0  0.59131  0.9575999999999998  0.07276  1.0000
  H   H30       1.0  0.62467  0.8823099999999998  0.025979999999999996  1.0000
  H   H31       1.0  0.48823  0.98222  0.57057  1.0000
  H   H32       1.0  0.53158  0.92579  0.89222  1.0000
  H   H33       1.0  0.7159000000000001  0.050559999999999966  0.88011  1.0000
  H   H34       1.0  0.43318  0.7818399999999998  0.61738  1.0000
  H   H35       1.0  0.9061499999999999  0.10960999999999996  0.9806099999999999  1.0000
  H   H36       1.0  0.82521  0.9221399999999998  0.87065  1.0000
  H   H37       1.0  0.38321  0.5244499999999997  0.43271999999999994  1.0000
  H   H38       1.0  0.35326  0.6053899999999999  0.48151  1.0000
  H   H39       1.0  0.9107  0.9092199999999998  0.9255  1.0000
  H   H40       1.0  0.53233  0.6443899999999999  0.6127  1.0000
  H   H41       1.0  0.15989999999999996  0.3224299999999999  0.8670399999999999  1.0000
  H   H42       1.0  0.17871  0.33567  0.61028  1.0000
  H   H43       1.0  0.07564000000000001  0.35838  0.97132  1.0000
  H   H44       1.0  0.042380000000000036  0.44318  0.86666  1.0000
  H   H45       1.0  0.04248  0.4082499999999999  0.42733  1.0000
  H   H46       1.0  0.11776999999999997  0.37505999999999984  0.4739199999999999  1.0000
  H   H47       1.0  0.01799  0.5113899999999998  0.92907  1.0000
  H   H48       1.0  0.07464000000000001  0.46856  0.608  1.0000
  H   H49       1.0  0.04288999999999999  0.16323  0.37003  1.0000
  H   H50       1.0  0.77304  0.17981999999999995  0.10726  1.0000
  H   H51       1.0  0.10699  0.07658999999999998  0.47244  1.0000
  H   H52       1.0  0.9179400000000001  0.04759999999999999  0.36779  1.0000
  H   H53       1.0  0.51623  0.04183  0.92656  1.0000
  H   H54       1.0  0.59686  0.11317000000000002  0.97019  1.0000
  H   H55       1.0  0.9072600000000001  0.01638999999999999  0.4213  1.0000
  H   H56       1.0  0.63877  0.0789  0.10937  1.0000
  H   H57       1.0  0.32357  0.7041699999999997  0.36496  1.0000
  H   H58       1.0  0.33592  0.4290899999999999  0.10963999999999999  1.0000
  H   H59       1.0  0.35382  0.89274  0.46672999999999987  1.0000
  H   H60       1.0  0.44607  0.82357  0.36844  1.0000
  H   H61       1.0  0.41536  0.38547999999999993  0.9304  1.0000
  H   H62       1.0  0.37877999999999995  0.3553099999999999  0.9751399999999999  1.0000
  H   H63       1.0  0.51141  0.9099999999999998  0.42926999999999993  1.0000
  H   H64       1.0  0.47237  0.53189  0.11157999999999998  1.0000
  H   H65       1.0  0.70416  0.32366  0.8649  1.0000
  H   H66       1.0  0.42921  0.33579999999999993  0.6094  1.0000
  H   H67       1.0  0.89277  0.3537899999999999  0.96654  1.0000
  H   H68       1.0  0.8236999999999999  0.44606999999999986  0.8684199999999999  1.0000
  H   H69       1.0  0.38547000000000003  0.4153999999999999  0.43041  1.0000
  H   H70       1.0  0.35542  0.37878  0.47506  1.0000
  H   H71       1.0  0.9102899999999999  0.5113499999999999  0.9292399999999998  1.0000
  H   H72       1.0  0.53192  0.47246  0.61157  1.0000
  H   H73       1.0  0.16331999999999988  0.041769999999999946  0.8696399999999999  1.0000
  H   H74       1.0  0.17944999999999997  0.7725699999999998  0.60704  1.0000
  H   H75       1.0  0.07661999999999995  0.10688999999999996  0.9720699999999999  1.0000
  H   H76       1.0  0.04753000000000003  0.9176899999999998  0.86817  1.0000
  H   H77       1.0  0.04164999999999998  0.5156399999999999  0.42638999999999994  1.0000
  H   H78       1.0  0.11313  0.5964  0.47001  1.0000
  H   H79       1.0  0.01630999999999998  0.9072899999999999  0.92137  1.0000
  H   H80       1.0  0.07866000000000002  0.6382699999999998  0.60918  1.0000
  H   H81       1.0  0.05074999999999995  0.71608  0.38095999999999997  1.0000
  H   H82       1.0  0.78195  0.43350999999999995  0.11712  1.0000
  H   H83       1.0  0.10974000000000003  0.9063699999999999  0.48062  1.0000
  H   H84       1.0  0.9221700000000002  0.8251899999999998  0.37113999999999997  1.0000
  H   H85       1.0  0.52449  0.38310999999999995  0.93271  1.0000
  H   H86       1.0  0.60532  0.35320999999999997  0.98168  1.0000
  H   H87       1.0  0.90911  0.9108299999999998  0.42543  1.0000
  H   H88       1.0  0.64437  0.53257  0.11241  1.0000
  H   H89       1.0  0.32338  0.15997999999999998  0.36763  1.0000
  H   H90       1.0  0.33527000000000007  0.17799999999999994  0.11009  1.0000
  H   H91       1.0  0.35815  0.07525999999999997  0.47131  1.0000
  H   H92       1.0  0.444  0.04243999999999995  0.36739999999999995  1.0000
  H   H93       1.0  0.4087  0.042400000000000014  0.92724  1.0000
  H   H94       1.0  0.37534  0.11769  0.97402  1.0000
  H   H95       1.0  0.51178  0.01778000000000002  0.42943  1.0000
  H   H96       1.0  0.46843  0.07421  0.10778  1.0000
  H   H97       1.0  0.2841  0.9494399999999998  0.11988999999999998  1.0000
  H   H98       1.0  0.56682  0.21816  0.38262  1.0000
  H   H99       1.0  0.09386  0.8903999999999999  0.0194  1.0000
  H   H100      1.0  0.1748  0.07786  0.12935  1.0000
  H   H101      1.0  0.6167899999999997  0.47554999999999986  0.56729  1.0000
  H   H102      1.0  0.64675  0.39461  0.51849  1.0000
  H   H103      1.0  0.08931  0.09078  0.0745  1.0000
  H   H104      1.0  0.46767999999999993  0.35560999999999987  0.38730999999999993  1.0000
  H   H105      1.0  0.84011  0.6775699999999998  0.13296  1.0000
  H   H106      1.0  0.8213  0.66433  0.38972  1.0000
  H   H107      1.0  0.9243600000000001  0.64162  0.028689999999999997  1.0000
  H   H108      1.0  0.95763  0.5568199999999999  0.13334  1.0000
  H   H109      1.0  0.95753  0.59175  0.57267  1.0000
  H   H110      1.0  0.88224  0.62495  0.52608  1.0000
  H   H111      1.0  0.98201  0.48861  0.07094  1.0000
  H   H112      1.0  0.92537  0.5314399999999999  0.39201  1.0000
  H   H113      1.0  0.95712  0.8367699999999998  0.62998  1.0000
  H   H114      1.0  0.22695999999999994  0.8201899999999998  0.89274  1.0000
  H   H115      1.0  0.89301  0.92341  0.52756  1.0000
  H   H116      1.0  0.08207000000000007  0.9524000000000001  0.63221  1.0000
  H   H117      1.0  0.48377  0.95817  0.07345  1.0000
  H   H118      1.0  0.40315  0.88683  0.02981  1.0000
  H   H119      1.0  0.09275000000000003  0.9836100000000001  0.5787  1.0000
  H   H120      1.0  0.36124  0.9211  0.89063  1.0000
  H   H121      1.0  0.67644  0.29584  0.63505  1.0000
  H   H122      1.0  0.66408  0.57091  0.89036  1.0000
  H   H123      1.0  0.64618  0.10726  0.53328  1.0000
  H   H124      1.0  0.55394  0.17643000000000006  0.63157  1.0000
  H   H125      1.0  0.58464  0.61452  0.0696  1.0000
  H   H126      1.0  0.62122  0.6446899999999999  0.02486  1.0000
  H   H127      1.0  0.4886  0.09000999999999997  0.57073  1.0000
  H   H128      1.0  0.5276399999999999  0.4681099999999999  0.8884299999999999  1.0000
  H   H129      1.0  0.51018  0.44994  0.40469  1.0000
  H   H130      1.0  0.89965  0.4552199999999999  0.40991  1.0000
  H   H131      1.0  0.44998  0.51016  0.90471  1.0000
  H   H132      1.0  0.45503000000000005  0.89982  0.90988  1.0000
  H   H133      1.0  0.48982  0.5500599999999999  0.59532  1.0000
  H   H134      1.0  0.10036  0.54478  0.5901  1.0000
  H   H135      1.0  0.54498  0.10017999999999996  0.09011999999999999  1.0000
  H   H136      1.0  0.55002  0.4898399999999999  0.09529  1.0000
  H   H137      1.0  0.03307999999999999  0.6432099999999997  0.06475  1.0000
  H   H138      1.0  0.027149999999999997  0.92701  0.05985999999999999  1.0000
  H   H139      1.0  0.9269600000000001  0.027049999999999977  0.55986  1.0000
  H   H140      1.0  0.64314  0.03314999999999994  0.56461  1.0000
  H   H141      1.0  0.97286  0.07298999999999994  0.94014  1.0000
  H   H142      1.0  0.9669299999999998  0.35678999999999983  0.9352599999999999  1.0000
  H   H143      1.0  0.07305  0.9729499999999998  0.44014  1.0000
  H   H144      1.0  0.35687  0.96686  0.4354  1.0000
  C   C1        1.0  0.2162  0.70777  0.06419  1.0000
  C   C2        1.0  0.20293  0.6654399999999999  0.08246  1.0000
  C   C3        1.0  0.25081  0.65353  0.11904999999999999  1.0000
  C   C4        1.0  0.51415  0.59579  0.38484  1.0000
  C   C5        1.0  0.4652800000000001  0.5877699999999999  0.33105  1.0000
  C   C6        1.0  0.29195  0.6031699999999999  0.17739  1.0000
  C   C7        1.0  0.5661500000000003  0.6387499999999999  0.4104  1.0000
  C   C8        1.0  0.14416999999999994  0.63673  0.06216  1.0000
  C   C9        1.0  0.24075000000000002  0.6122799999999999  0.13573  1.0000
  C   C10       1.0  0.13468  0.5956399999999998  0.07945  1.0000
  C   C11       1.0  0.18287  0.58329  0.11579  1.0000
  C   C12       1.0  0.59225  0.5406  0.53519  1.0000
  C   C13       1.0  0.60702  0.6148  0.48661  1.0000
  C   C14       1.0  0.06215  0.5207799999999999  0.06997  1.0000
  C   C15       1.0  0.61273  0.6482  0.46148  1.0000
  C   C16       1.0  0.50847  0.5611599999999998  0.40911  1.0000
  C   C17       1.0  0.5555899999999999  0.57059  0.46018  1.0000
  C   C18       1.0  0.6699  0.69091  0.48728  1.0000
  C   C19       1.0  0.84573  0.8579699999999999  0.05634  1.0000
  C   C20       1.0  0.87659  0.9197799999999998  0.07677  1.0000
  C   C21       1.0  0.86548  0.9669499999999998  0.11491999999999998  1.0000
  C   C22       1.0  0.87154  0.28987999999999997  0.38715  1.0000
  C   C23       1.0  0.86488  0.24432999999999996  0.33243  1.0000
  C   C24       1.0  0.8837100000000001  0.07607999999999995  0.17658999999999997  1.0000
  C   C25       1.0  0.8459499999999999  0.2724599999999999  0.41321  1.0000
  C   C26       1.0  0.91507  0.93029  0.05749  1.0000
  C   C27       1.0  0.89235  0.025739999999999985  0.13371  1.0000
  C   C28       1.0  0.94216  0.98938  0.07718  1.0000
  C   C29       1.0  0.9302  0.036679999999999977  0.11457999999999999  1.0000
  C   C30       1.0  0.9475399999999998  0.4942399999999999  0.53962  1.0000
  C   C31       1.0  0.88469  0.37192  0.49093999999999993  1.0000
  C   C32       1.0  0.00826  0.05794  0.07385  1.0000
  C   C33       1.0  0.85273  0.3138199999999999  0.46540999999999993  1.0000
  C   C34       1.0  0.9026100000000001  0.34858  0.41195  1.0000
  C   C35       1.0  0.90862  0.38975999999999994  0.46401999999999993  1.0000
  C   C36       1.0  0.82238  0.29761  0.49209  1.0000
  C   C37       1.0  0.85141  0.1973199999999999  0.54382  1.0000
  C   C38       1.0  0.91392  0.18945999999999988  0.56623  1.0000
  C   C39       1.0  0.9596499999999999  0.24034999999999995  0.60514  1.0000
  C   C40       1.0  0.28254999999999997  0.5119999999999999  0.88041  1.0000
  C   C41       1.0  0.23751  0.4621199999999999  0.82706  1.0000
  C   C42       1.0  0.06841999999999998  0.28737  0.67053  1.0000
  C   C43       1.0  0.26371000000000006  0.5635199999999998  0.9038999999999999  1.0000
  C   C44       1.0  0.9264100000000001  0.13261999999999993  0.5491  1.0000
  C   C45       1.0  0.019119999999999988  0.23453999999999992  0.62663  1.0000
  C   C46       1.0  0.98607  0.12740999999999997  0.57155  1.0000
  C   C47       1.0  0.031969999999999985  0.17829999999999993  0.60949  1.0000
  C   C48       1.0  0.48651  0.5936199999999999  0.03402  1.0000
  C   C49       1.0  0.36338  0.6079599999999998  0.98074  1.0000
  C   C50       1.0  0.05697000000000002  0.06035000000000002  0.57155  1.0000
  C   C51       1.0  0.30412999999999996  0.6117099999999999  0.9542  1.0000
  C   C52       1.0  0.34171  0.5077799999999999  0.90642  1.0000
  C   C53       1.0  0.3822400000000001  0.5564  0.95689  1.0000
  C   C54       1.0  0.28497  0.6677699999999999  0.97814  1.0000
  C   C55       1.0  0.70354  0.8461299999999998  0.55823  1.0000
  C   C56       1.0  0.66278  0.8788  0.57827  1.0000
  C   C57       1.0  0.65323  0.8688799999999999  0.61669  1.0000
  C   C58       1.0  0.59801  0.8744599999999998  0.88644  1.0000
  C   C59       1.0  0.5902299999999999  0.8704999999999999  0.8331299999999999  1.0000
  C   C60       1.0  0.60698  0.8888699999999998  0.67902  1.0000
  C   C61       1.0  0.64028  0.84687  0.91068  1.0000
  C   C62       1.0  0.63386  0.9172700000000001  0.55848  1.0000
  C   C63       1.0  0.61374  0.8967499999999998  0.63552  1.0000
  C   C64       1.0  0.59473  0.9453299999999998  0.578  1.0000
  C   C65       1.0  0.58424  0.9344099999999997  0.6157  1.0000
  C   C66       1.0  0.54713  0.9470799999999998  0.03915  1.0000
  C   C67       1.0  0.6180799999999999  0.8821799999999997  0.9878899999999999  1.0000
  C   C68       1.0  0.52048  0.008940000000000014  0.56972  1.0000
  C   C69       1.0  0.65025  0.85086  0.96163  1.0000
  C   C70       1.0  0.56465  0.90513  0.91189  1.0000
  C   C71       1.0  0.57478  0.9084699999999998  0.96284  1.0000
  C   C72       1.0  0.6921499999999999  0.8186599999999997  0.9862699999999999  1.0000
  C   C73       1.0  0.80258  0.14850999999999998  0.95584  1.0000
  C   C74       1.0  0.81036  0.08598999999999994  0.93341  1.0000
  C   C75       1.0  0.7595200000000001  0.040279999999999906  0.8942399999999999  1.0000
  C   C76       1.0  0.48769000000000007  0.7173899999999998  0.61993  1.0000
  C   C77       1.0  0.53758  0.7625  0.67323  1.0000
  C   C78       1.0  0.7126200000000001  0.9317399999999998  0.82834  1.0000
  C   C79       1.0  0.43622  0.73621  0.59636  1.0000
  C   C80       1.0  0.8671800000000001  0.07346999999999995  0.9507299999999999  1.0000
  C   C81       1.0  0.76539  0.9808599999999997  0.8726199999999998  1.0000
  C   C82       1.0  0.87243  0.013850000000000001  0.92828  1.0000
  C   C83       1.0  0.82161  0.9679599999999998  0.89002  1.0000
  C   C84       1.0  0.40644  0.5134999999999998  0.46601  1.0000
  C   C85       1.0  0.39199  0.63665  0.51926  1.0000
  C   C86       1.0  0.93956  0.9430999999999998  0.92852  1.0000
  C   C87       1.0  0.38818  0.69586  0.54589  1.0000
  C   C88       1.0  0.49198  0.6582699999999998  0.59385  1.0000
  C   C89       1.0  0.4435  0.61778  0.54322  1.0000
  C   C90       1.0  0.33220000000000005  0.7151  0.52192  1.0000
  C   C91       1.0  0.15385999999999994  0.2962599999999999  0.94171  1.0000
  C   C92       1.0  0.12138000000000002  0.3369499999999999  0.9215  1.0000
  C   C93       1.0  0.13113  0.34604999999999997  0.88279  1.0000
  C   C94       1.0  0.12622  0.4023199999999999  0.6138  1.0000
  C   C95       1.0  0.13056  0.41026  0.66727  1.0000
  C   C96       1.0  0.11084999999999996  0.39197999999999994  0.8201599999999999  1.0000
  C   C97       1.0  0.15370000000000006  0.3599999999999999  0.58948  1.0000
  C   C98       1.0  0.08297999999999998  0.36606999999999995  0.94134  1.0000
  C   C99       1.0  0.10316000000000004  0.3853799999999999  0.86379  1.0000
  C   C100      1.0  0.05478000000000001  0.40494  0.9216  1.0000
  C   C101      1.0  0.06555999999999998  0.41506999999999994  0.88369  1.0000
  C   C102      1.0  0.05294999999999998  0.45248999999999995  0.46084  1.0000
  C   C103      1.0  0.11800999999999996  0.3817999999999999  0.5121  1.0000
  C   C104      1.0  0.99126  0.47926999999999986  0.93002  1.0000
  C   C105      1.0  0.14945999999999998  0.34976  0.53841  1.0000
  C   C106      1.0  0.09528999999999999  0.4354799999999999  0.58828  1.0000
  C   C107      1.0  0.09175000000000001  0.4251199999999999  0.53721  1.0000
  C   C108      1.0  0.1815  0.3076999999999999  0.5137  1.0000
  C   C109      1.0  0.14300000000000004  0.15383  0.44433  1.0000
  C   C110      1.0  0.08096999999999999  0.12322999999999996  0.42358999999999997  1.0000
  C   C111      1.0  0.034059999999999986  0.13443  0.38538  1.0000
  C   C112      1.0  0.71064  0.12882  0.11312  1.0000
  C   C113      1.0  0.75613  0.13553999999999997  0.16793  1.0000
  C   C114      1.0  0.92533  0.11700999999999996  0.32355  1.0000
  C   C115      1.0  0.72802  0.15437  0.08702  1.0000
  C   C116      1.0  0.06998999999999994  0.08485999999999994  0.44272999999999996  1.0000
  C   C117      1.0  0.9751200000000001  0.10770999999999997  0.36631  1.0000
  C   C118      1.0  0.010759999999999988  0.05782000000000001  0.42275  1.0000
  C   C119      1.0  0.96367  0.06979999999999997  0.38519999999999993  1.0000
  C   C120      1.0  0.50624  0.05255999999999996  0.9605  1.0000
  C   C121      1.0  0.62853  0.11542999999999998  0.00926  1.0000
  C   C122      1.0  0.94202  0.9918099999999997  0.42607  1.0000
  C   C123      1.0  0.68662  0.14746999999999996  0.03479  1.0000
  C   C124      1.0  0.65192  0.09764999999999997  0.08826  1.0000
  C   C125      1.0  0.6107  0.09154  0.03618  1.0000
  C   C126      1.0  0.7026800000000001  0.17772999999999994  0.00799  1.0000
  C   C127      1.0  0.2921  0.7838099999999998  0.43584  1.0000
  C   C128      1.0  0.33449  0.7970599999999998  0.41761  1.0000
  C   C129      1.0  0.34644  0.7491799999999997  0.38105  1.0000
  C   C130      1.0  0.40426  0.4858099999999999  0.11535  1.0000
  C   C131      1.0  0.41222000000000003  0.53473  0.16915999999999998  1.0000
  C   C132      1.0  0.3971  0.70813  0.32292  1.0000
  C   C133      1.0  0.36132  0.43378  0.08979  1.0000
  C   C134      1.0  0.36326  0.8557999999999999  0.43796  1.0000
  C   C135      1.0  0.38779  0.7592299999999997  0.36443  1.0000
  C   C136      1.0  0.40438  0.8652299999999997  0.4206599999999999  1.0000
  C   C137      1.0  0.41677  0.8170599999999999  0.38433  1.0000
  C   C138      1.0  0.45936999999999995  0.40773  0.9648099999999998  1.0000
  C   C139      1.0  0.38521  0.3929099999999999  0.01349  1.0000
  C   C140      1.0  0.47932  0.9376200000000001  0.43011  1.0000
  C   C141      1.0  0.35179999999999995  0.38722  0.03864  1.0000
  C   C142      1.0  0.43881  0.49148999999999987  0.09097999999999999  1.0000
  C   C143      1.0  0.4294  0.44433999999999996  0.03989  1.0000
  C   C144      1.0  0.30896  0.3300899999999999  0.01267  1.0000
  C   C145      1.0  0.78381  0.29223  0.93582  1.0000
  C   C146      1.0  0.79707  0.33457  0.91755  1.0000
  C   C147      1.0  0.7492  0.34646999999999994  0.8809599999999999  1.0000
  C   C148      1.0  0.48586  0.4042099999999999  0.61517  1.0000
  C   C149      1.0  0.53472  0.41223  0.66896  1.0000
  C   C150      1.0  0.70806  0.39683  0.82262  1.0000
  C   C151      1.0  0.43386  0.3612499999999999  0.58961  1.0000
  C   C152      1.0  0.85584  0.3632699999999998  0.9378499999999999  1.0000
  C   C153      1.0  0.7592499999999999  0.38771999999999995  0.8642699999999999  1.0000
  C   C154      1.0  0.8653300000000002  0.4043599999999998  0.92056  1.0000
  C   C155      1.0  0.81713  0.41671999999999987  0.8842199999999999  1.0000
  C   C156      1.0  0.40775  0.4593999999999998  0.46481999999999996  1.0000
  C   C157      1.0  0.39299  0.3851999999999999  0.51339  1.0000
  C   C158      1.0  0.93785  0.47922  0.93003  1.0000
  C   C159      1.0  0.38727000000000006  0.3518  0.53853  1.0000
  C   C160      1.0  0.49154  0.4388399999999999  0.59089  1.0000
  C   C161      1.0  0.44441  0.42942  0.53982  1.0000
  C   C162      1.0  0.33011  0.30909  0.51272  1.0000
  C   C163      1.0  0.15427000000000002  0.14204  0.94366  1.0000
  C   C164      1.0  0.12341  0.08022000000000006  0.92324  1.0000
  C   C165      1.0  0.13452999999999998  0.03305000000000001  0.88508  1.0000
  C   C166      1.0  0.12847  0.7101199999999999  0.61285  1.0000
  C   C167      1.0  0.13511999999999993  0.75567  0.66757  1.0000
  C   C168      1.0  0.11630000000000001  0.9239199999999999  0.82342  1.0000
  C   C169      1.0  0.15406000000000006  0.72754  0.5868  1.0000
  C   C170      1.0  0.08493999999999989  0.06970999999999988  0.9425199999999999  1.0000
  C   C171      1.0  0.10765  0.9742599999999998  0.86629  1.0000
  C   C172      1.0  0.05783999999999997  0.010620000000000032  0.92282  1.0000
  C   C173      1.0  0.06979999999999997  0.9633299999999999  0.88543  1.0000
  C   C174      1.0  0.052469999999999996  0.50576  0.46038  1.0000
  C   C175      1.0  0.11531000000000001  0.6280799999999999  0.50907  1.0000
  C   C176      1.0  0.99175  0.94206  0.92615  1.0000
  C   C177      1.0  0.14728  0.6861799999999999  0.5346  1.0000
  C   C178      1.0  0.0974  0.6514299999999997  0.58805  1.0000
  C   C179      1.0  0.09139000000000001  0.6102399999999999  0.53599  1.0000
  C   C180      1.0  0.17763  0.7023899999999997  0.50792  1.0000
  C   C181      1.0  0.14859999999999998  0.80268  0.4561799999999999  1.0000
  C   C182      1.0  0.08609  0.8105399999999999  0.43378  1.0000
  C   C183      1.0  0.04036000000000001  0.7596599999999999  0.39486  1.0000
  C   C184      1.0  0.71745  0.488  0.1196  1.0000
  C   C185      1.0  0.76249  0.53788  0.17294  1.0000
  C   C186      1.0  0.9315800000000001  0.7126399999999998  0.32948  1.0000
  C   C187      1.0  0.73629  0.4364799999999999  0.0961  1.0000
  C   C188      1.0  0.07358999999999997  0.8673799999999998  0.4509  1.0000
  C   C189      1.0  0.98088  0.7654599999999998  0.37338  1.0000
  C   C190      1.0  0.013929999999999956  0.8725899999999998  0.42844999999999994  1.0000
  C   C191      1.0  0.96804  0.8216999999999999  0.39051  1.0000
  C   C192      1.0  0.51349  0.4063899999999999  0.96599  1.0000
  C   C193      1.0  0.63663  0.39204  0.01927  1.0000
  C   C194      1.0  0.94304  0.9396599999999998  0.42844999999999994  1.0000
  C   C195      1.0  0.69588  0.38829  0.0458  1.0000
  C   C196      1.0  0.6583  0.49222999999999995  0.09359  1.0000
  C   C197      1.0  0.61777  0.4435999999999999  0.04311000000000001  1.0000
  C   C198      1.0  0.71504  0.3322299999999999  0.021859999999999997  1.0000
  C   C199      1.0  0.29647  0.15388  0.44178  1.0000
  C   C200      1.0  0.33723  0.12119999999999995  0.42173  1.0000
  C   C201      1.0  0.34677  0.13111999999999993  0.38332  1.0000
  C   C202      1.0  0.40199  0.12553999999999998  0.11356  1.0000
  C   C203      1.0  0.40978000000000003  0.12949999999999998  0.16687  1.0000
  C   C204      1.0  0.39303  0.11113999999999996  0.32098  1.0000
  C   C205      1.0  0.35973  0.15313  0.08932  1.0000
  C   C206      1.0  0.36615  0.08272999999999994  0.44152  1.0000
  C   C207      1.0  0.38626999999999995  0.10324999999999993  0.3644899999999999  1.0000
  C   C208      1.0  0.4052700000000001  0.05467  0.422  1.0000
  C   C209      1.0  0.41577  0.06558999999999995  0.38431  1.0000
  C   C210      1.0  0.45287999999999995  0.05292  0.9608599999999999  1.0000
  C   C211      1.0  0.38192  0.11782  0.01211  1.0000
  C   C212      1.0  0.47952  0.9910599999999998  0.43029  1.0000
  C   C213      1.0  0.34976  0.14913999999999997  0.03838  1.0000
  C   C214      1.0  0.43536  0.09486999999999997  0.08810999999999998  1.0000
  C   C215      1.0  0.42523  0.09154  0.03716  1.0000
  C   C216      1.0  0.30786  0.18133999999999992  0.01373  1.0000
  C   C217      1.0  0.19743  0.8514899999999997  0.04415999999999999  1.0000
  C   C218      1.0  0.18965  0.91402  0.0666  1.0000
  C   C219      1.0  0.24049  0.9597299999999997  0.10577  1.0000
  C   C220      1.0  0.51231  0.2826099999999999  0.38007  1.0000
  C   C221      1.0  0.46243  0.2375  0.32678  1.0000
  C   C222      1.0  0.28738  0.06827000000000001  0.17167000000000002  1.0000
  C   C223      1.0  0.56379  0.26378999999999997  0.40363999999999994  1.0000
  C   C224      1.0  0.13283  0.9265299999999999  0.04928  1.0000
  C   C225      1.0  0.23461000000000004  0.01913999999999999  0.12739  1.0000
  C   C226      1.0  0.12757  0.9861499999999999  0.07172  1.0000
  C   C227      1.0  0.1784  0.03203999999999999  0.10998  1.0000
  C   C228      1.0  0.59357  0.4865  0.534  1.0000
  C   C229      1.0  0.60801  0.36334999999999995  0.48074  1.0000
  C   C230      1.0  0.06045  0.0569  0.07148  1.0000
  C   C231      1.0  0.6118299999999999  0.30413999999999997  0.45410999999999996  1.0000
  C   C232      1.0  0.50803  0.3417299999999999  0.40615  1.0000
  C   C233      1.0  0.55651  0.38221999999999995  0.4567899999999999  1.0000
  C   C234      1.0  0.66781  0.28490999999999994  0.47808  1.0000
  C   C235      1.0  0.84615  0.7037499999999998  0.05829  1.0000
  C   C236      1.0  0.8786299999999999  0.66306  0.07851  1.0000
  C   C237      1.0  0.8688700000000003  0.65395  0.11721  1.0000
  C   C238      1.0  0.87379  0.5976799999999998  0.3862  1.0000
  C   C239      1.0  0.86945  0.58975  0.33274  1.0000
  C   C240      1.0  0.8891600000000001  0.60802  0.17984999999999998  1.0000
  C   C241      1.0  0.8463099999999999  0.6399999999999999  0.41053  1.0000
  C   C242      1.0  0.91702  0.63393  0.05866  1.0000
  C   C243      1.0  0.89685  0.61462  0.13622  1.0000
  C   C244      1.0  0.94523  0.5950599999999999  0.0784  1.0000
  C   C245      1.0  0.93445  0.58493  0.11632  1.0000
  C   C246      1.0  0.9470600000000001  0.5475199999999999  0.53916  1.0000
  C   C247      1.0  0.88199  0.6181999999999997  0.4879  1.0000
  C   C248      1.0  0.008749999999999999  0.52074  0.06998  1.0000
  C   C249      1.0  0.85055  0.6502399999999998  0.4616  1.0000
  C   C250      1.0  0.9047200000000001  0.5645199999999998  0.41173  1.0000
  C   C251      1.0  0.90825  0.57488  0.46279  1.0000
  C   C252      1.0  0.81851  0.6923  0.4863  1.0000
  C   C253      1.0  0.85701  0.84617  0.55568  1.0000
  C   C254      1.0  0.91903  0.8767699999999999  0.57641  1.0000
  C   C255      1.0  0.9659500000000001  0.86558  0.61463  1.0000
  C   C256      1.0  0.28936  0.8711899999999999  0.8868899999999998  1.0000
  C   C257      1.0  0.24387  0.8644599999999998  0.83208  1.0000
  C   C258      1.0  0.07467999999999989  0.8829899999999998  0.6764599999999998  1.0000
  C   C259      1.0  0.2719899999999999  0.8456299999999998  0.91298  1.0000
  C   C260      1.0  0.93002  0.91515  0.55727  1.0000
  C   C261      1.0  0.024890000000000013  0.8923  0.6337  1.0000
  C   C262      1.0  0.98924  0.9421799999999998  0.57725  1.0000
  C   C263      1.0  0.036330000000000015  0.9301999999999999  0.6148  1.0000
  C   C264      1.0  0.49376  0.9474399999999998  0.0395  1.0000
  C   C265      1.0  0.3714700000000001  0.8845699999999999  0.99074  1.0000
  C   C266      1.0  0.057990000000000014  0.008199999999999976  0.57394  1.0000
  C   C267      1.0  0.31337999999999994  0.85253  0.96522  1.0000
  C   C268      1.0  0.34809  0.90235  0.91174  1.0000
  C   C269      1.0  0.38931000000000004  0.9084699999999998  0.96382  1.0000
  C   C270      1.0  0.29732  0.8222699999999996  0.9920199999999999  1.0000
  C   C271      1.0  0.7079  0.21619999999999998  0.56417  1.0000
  C   C272      1.0  0.66552  0.20293999999999998  0.5824  1.0000
  C   C273      1.0  0.65356  0.25081999999999993  0.61895  1.0000
  C   C274      1.0  0.59575  0.5142  0.88465  1.0000
  C   C275      1.0  0.58779  0.46527  0.83084  1.0000
  C   C276      1.0  0.60291  0.29188  0.67708  1.0000
  C   C277      1.0  0.63869  0.5662199999999998  0.91021  1.0000
  C   C278      1.0  0.63675  0.14419999999999994  0.56204  1.0000
  C   C279      1.0  0.61221  0.24076999999999998  0.63557  1.0000
  C   C280      1.0  0.59563  0.13477000000000003  0.57935  1.0000
  C   C281      1.0  0.58323  0.18294  0.61567  1.0000
  C   C282      1.0  0.54064  0.59228  0.03519  1.0000
  C   C283      1.0  0.61479  0.60709  0.98652  1.0000
  C   C284      1.0  0.52069  0.06237999999999998  0.56989  1.0000
  C   C285      1.0  0.6482  0.6127799999999999  0.96136  1.0000
  C   C286      1.0  0.5612  0.50851  0.90903  1.0000
  C   C287      1.0  0.57061  0.5556599999999999  0.96012  1.0000
  C   C288      1.0  0.69104  0.6699099999999999  0.98733  1.0000
  C   C289      1.0  0.52542  0.4713699999999999  0.44899  1.0000
  C   C290      1.0  0.9299900000000002  0.47758999999999985  0.45402999999999993  1.0000
  C   C291      1.0  0.47143  0.52542  0.94901  1.0000
  C   C292      1.0  0.47734000000000004  0.93004  0.95402  1.0000
  C   C293      1.0  0.47459  0.52863  0.55102  1.0000
  C   C294      1.0  0.07002  0.52242  0.54598  1.0000
  C   C295      1.0  0.52267  0.06995999999999998  0.04598  1.0000
  C   C296      1.0  0.52858  0.4745799999999999  0.050989999999999994  1.0000
  C   C297      1.0  0.02858  0.59719  0.05596  1.0000
  C   C298      1.0  0.022379999999999997  0.96414  0.050809999999999994  1.0000
  C   C299      1.0  0.9641600000000001  0.022309999999999976  0.55088  1.0000
  C   C300      1.0  0.59709  0.028729999999999995  0.5558  1.0000
  C   C301      1.0  0.9776299999999998  0.035869999999999916  0.9491899999999999  1.0000
  C   C302      1.0  0.97143  0.40280999999999995  0.94404  1.0000
  C   C303      1.0  0.03584999999999996  0.9776999999999998  0.4491299999999999  1.0000
  C   C304      1.0  0.40292  0.9712699999999999  0.4442  1.0000
  N   N1        1.0  0.07687999999999999  0.57024  0.06529  1.0000
  N   N2        1.0  0.55439  0.5315099999999999  0.48179999999999995  1.0000
  N   N3        1.0  0.9862600000000001  0.0022499999999999994  0.06448  1.0000
  N   N4        1.0  0.93212  0.45026  0.4863  1.0000
  N   N5        1.0  0.0005800000000000029  0.07172999999999997  0.56136  1.0000
  N   N6        1.0  0.44329  0.55573  0.98035  1.0000
  N   N7        1.0  0.56981  0.9895099999999998  0.5648  1.0000
  N   N8        1.0  0.53706  0.93193  0.98578  1.0000
  N   N9        1.0  0.9282  0.99946  0.93873  1.0000
  N   N10       1.0  0.44428  0.5567499999999999  0.5197  1.0000
  N   N11       1.0  0.010609999999999987  0.42993999999999993  0.93488  1.0000
  N   N12       1.0  0.06811999999999997  0.4627  0.51422  1.0000
  N   N13       1.0  0.99774  0.013779999999999987  0.43543  1.0000
  N   N14       1.0  0.55015  0.06791  0.01382  1.0000
  N   N15       1.0  0.4298  0.9229499999999999  0.43476  1.0000
  N   N16       1.0  0.46844  0.44558999999999993  0.01821  1.0000
  N   N17       1.0  0.92313  0.4297599999999999  0.93472  1.0000
  N   N18       1.0  0.44561000000000006  0.46849  0.51821  1.0000
  N   N19       1.0  0.013739999999999959  0.9977499999999998  0.93552  1.0000
  N   N20       1.0  0.06789000000000002  0.5497399999999999  0.51371  1.0000
  N   N21       1.0  0.99943  0.9282699999999998  0.43865  1.0000
  N   N22       1.0  0.55671  0.4442799999999999  0.01965  1.0000
  N   N23       1.0  0.4302  0.01049  0.4352  1.0000
  N   N24       1.0  0.46295000000000003  0.06807  0.01422  1.0000
  N   N25       1.0  0.07181  0.000549999999999999  0.06127  1.0000
  N   N26       1.0  0.55572  0.44324999999999987  0.48031  1.0000
  N   N27       1.0  0.9894  0.57006  0.06513  1.0000
  N   N28       1.0  0.93188  0.5372999999999999  0.48578  1.0000
  N   N29       1.0  0.0022699999999999843  0.9862199999999995  0.56457  1.0000
  N   N30       1.0  0.4498599999999998  0.93209  0.9861899999999998  1.0000
  N   N31       1.0  0.57021  0.07705  0.56524  1.0000
  N   N32       1.0  0.53157  0.55441  0.9818  1.0000
  O   O1        1.0  0.41391  0.55518  0.31159  1.0000
  O   O2        1.0  0.28131999999999996  0.5677899999999999  0.1949  1.0000
  O   O3        1.0  0.47713  0.61437  0.30786  1.0000
  O   O4        1.0  0.17394  0.7089499999999999  0.02229  1.0000
  O   O5        1.0  0.26972999999999997  0.7386699999999999  0.09113999999999998  1.0000
  O   O6        1.0  0.67473  0.7169199999999998  0.46042999999999995  1.0000
  O   O7        1.0  0.34333  0.6314999999999998  0.19385  1.0000
  O   O8        1.0  0.7105600000000001  0.6983399999999997  0.53439  1.0000
  O   O9        1.0  0.89669  0.25722999999999996  0.31284  1.0000
  O   O10       1.0  0.9124300000000001  0.12919999999999995  0.19509999999999997  1.0000
  O   O11       1.0  0.82873  0.19495  0.30874  1.0000
  O   O12       1.0  0.84296  0.8165899999999999  0.01171  1.0000
  O   O13       1.0  0.82294  0.85109  0.08469  1.0000
  O   O14       1.0  0.78629  0.24695  0.46358  1.0000
  O   O15       1.0  0.8490199999999998  0.06384999999999999  0.19296999999999997  1.0000
  O   O16       1.0  0.83357  0.3356199999999999  0.5417  1.0000
  O   O17       1.0  0.2514  0.41117  0.80857  1.0000
  O   O18       1.0  0.12189000000000003  0.27845999999999976  0.6895499999999999  1.0000
  O   O19       1.0  0.1872799999999999  0.4729299999999999  0.8033199999999999  1.0000
  O   O20       1.0  0.81162  0.1569  0.49636  1.0000
  O   O21       1.0  0.84141  0.24539999999999998  0.57362  1.0000
  O   O22       1.0  0.22999000000000006  0.6689099999999999  0.95303  1.0000
  O   O23       1.0  0.05507000000000002  0.33782999999999996  0.68714  1.0000
  O   O24       1.0  0.32526  0.7110299999999998  0.02247  1.0000
  O   O25       1.0  0.5584099999999999  0.9030299999999998  0.8143599999999999  1.0000
  O   O26       1.0  0.57321  0.9182199999999997  0.6981099999999999  1.0000
  O   O27       1.0  0.6168  0.8356699999999999  0.80975  1.0000
  O   O28       1.0  0.70078  0.8420199999999998  0.51335  1.0000
  O   O29       1.0  0.7376000000000001  0.8232499999999998  0.5871  1.0000
  O   O30       1.0  0.71815  0.7878099999999998  0.95902  1.0000
  O   O31       1.0  0.6353599999999998  0.85408  0.6953499999999999  1.0000
  O   O32       1.0  0.69894  0.82373  0.03274  1.0000
  O   O33       1.0  0.58861  0.74867  0.69159  1.0000
  O   O34       1.0  0.72165  0.87839  0.80866  1.0000
  O   O35       1.0  0.52678  0.81271  0.69702  1.0000
  O   O36       1.0  0.84308  0.18826  0.00328  1.0000
  O   O37       1.0  0.7545300000000001  0.15856999999999993  0.9261  1.0000
  O   O38       1.0  0.33111  0.77008  0.5471  1.0000
  O   O39       1.0  0.6621200000000002  0.94509  0.81216  1.0000
  O   O40       1.0  0.2889399999999999  0.67486  0.47753999999999996  1.0000
  O   O41       1.0  0.09749999999999999  0.4415599999999999  0.68574  1.0000
  O   O42       1.0  0.0819299999999999  0.4262699999999998  0.8015799999999998  1.0000
  O   O43       1.0  0.16605999999999996  0.38438999999999984  0.6909799999999999  1.0000
  O   O44       1.0  0.15787999999999996  0.2992199999999999  0.98663  1.0000
  O   O45       1.0  0.17664  0.26189000000000007  0.91285  1.0000
  O   O46       1.0  0.21202000000000001  0.28143  0.54078  1.0000
  O   O47       1.0  0.14507999999999993  0.36299  0.80328  1.0000
  O   O48       1.0  0.17657000000000003  0.30099  0.46731  1.0000
  O   O49       1.0  0.74298  0.10368999999999998  0.18737  1.0000
  O   O50       1.0  0.87198  0.08885999999999994  0.30496  1.0000
  O   O51       1.0  0.80562  0.17163999999999993  0.19187999999999997  1.0000
  O   O52       1.0  0.18411000000000002  0.15644999999999998  0.48896999999999996  1.0000
  O   O53       1.0  0.15048  0.17665999999999996  0.41624  1.0000
  O   O54       1.0  0.75334  0.21382  0.03638  1.0000
  O   O55       1.0  0.9383399999999998  0.15176999999999993  0.30758  1.0000
  O   O56       1.0  0.66458  0.16647999999999988  0.95841  1.0000
  O   O57       1.0  0.4449400000000001  0.5860399999999998  0.18868999999999997  1.0000
  O   O58       1.0  0.43271  0.7186999999999999  0.30559  1.0000
  O   O59       1.0  0.38541  0.52305  0.19229  1.0000
  O   O60       1.0  0.29091  0.8260499999999997  0.47776  1.0000
  O   O61       1.0  0.26121  0.7302799999999999  0.40885  1.0000
  O   O62       1.0  0.28294  0.32518999999999987  0.0395  1.0000
  O   O63       1.0  0.36873  0.65675  0.3064  1.0000
  O   O64       1.0  0.30146  0.2895  0.96549  1.0000
  O   O65       1.0  0.5861  0.44483  0.68842  1.0000
  O   O66       1.0  0.71868  0.43221  0.80511  1.0000
  O   O67       1.0  0.52288  0.3856399999999998  0.6921399999999999  1.0000
  O   O68       1.0  0.8260699999999999  0.2910499999999998  0.9777199999999998  1.0000
  O   O69       1.0  0.73028  0.26133  0.90886  1.0000
  O   O70       1.0  0.32528  0.2830799999999999  0.53957  1.0000
  O   O71       1.0  0.65668  0.36850999999999984  0.8061499999999999  1.0000
  O   O72       1.0  0.28945  0.3016699999999999  0.46562  1.0000
  O   O73       1.0  0.10332000000000005  0.7427699999999998  0.68716  1.0000
  O   O74       1.0  0.08758000000000002  0.8707999999999999  0.80491  1.0000
  O   O75       1.0  0.1712799999999999  0.80505  0.69127  1.0000
  O   O76       1.0  0.15705000000000002  0.18342000000000006  0.98829  1.0000
  O   O77       1.0  0.17707000000000003  0.14890999999999988  0.9153099999999998  1.0000
  O   O78       1.0  0.21371  0.7530499999999999  0.53642  1.0000
  O   O79       1.0  0.15099  0.93615  0.80704  1.0000
  O   O80       1.0  0.16643  0.6643799999999999  0.45830999999999994  1.0000
  O   O81       1.0  0.74861  0.58883  0.19144  1.0000
  O   O82       1.0  0.8781100000000001  0.72154  0.31045  1.0000
  O   O83       1.0  0.81273  0.5270699999999999  0.19669  1.0000
  O   O84       1.0  0.18839000000000003  0.8430999999999997  0.50364  1.0000
  O   O85       1.0  0.15859999999999996  0.7545999999999998  0.4263799999999999  1.0000
  O   O86       1.0  0.77002  0.3310899999999999  0.04698  1.0000
  O   O87       1.0  0.94494  0.66217  0.31286  1.0000
  O   O88       1.0  0.67474  0.28896999999999995  0.9775399999999999  1.0000
  O   O89       1.0  0.4416  0.09696999999999997  0.18564  1.0000
  O   O90       1.0  0.42679  0.08177999999999998  0.30189  1.0000
  O   O91       1.0  0.38321  0.16433999999999999  0.19025  1.0000
  O   O92       1.0  0.29923  0.15797999999999995  0.4866599999999999  1.0000
  O   O93       1.0  0.2624099999999999  0.17675999999999997  0.41290999999999994  1.0000
  O   O94       1.0  0.28186  0.21219999999999994  0.04099  1.0000
  O   O95       1.0  0.36464  0.14592  0.30466  1.0000
  O   O96       1.0  0.30107  0.17627000000000007  0.96727  1.0000
  O   O97       1.0  0.4114  0.25134  0.30841  1.0000
  O   O98       1.0  0.2783500000000001  0.12160999999999998  0.19135  1.0000
  O   O99       1.0  0.47322000000000003  0.18728999999999996  0.30299  1.0000
  O   O100      1.0  0.15693  0.81174  0.99672  1.0000
  O   O101      1.0  0.24548000000000003  0.84143  0.07391  1.0000
  O   O102      1.0  0.66889  0.22992  0.4529  1.0000
  O   O103      1.0  0.33789  0.05490999999999999  0.18785  1.0000
  O   O104      1.0  0.71106  0.32514  0.52246  1.0000
  O   O105      1.0  0.90251  0.55845  0.31427  1.0000
  O   O106      1.0  0.91808  0.57374  0.19843  1.0000
  O   O107      1.0  0.8339500000000001  0.6156199999999998  0.30902  1.0000
  O   O108      1.0  0.84213  0.7007799999999997  0.013369999999999998  1.0000
  O   O109      1.0  0.82337  0.7381099999999998  0.08715  1.0000
  O   O110      1.0  0.78799  0.7185799999999998  0.45922  1.0000
  O   O111      1.0  0.85492  0.6370199999999998  0.19672  1.0000
  O   O112      1.0  0.8234400000000001  0.69902  0.5327  1.0000
  O   O113      1.0  0.2570300000000001  0.8963099999999998  0.81264  1.0000
  O   O114      1.0  0.12802999999999995  0.9111399999999997  0.6950499999999998  1.0000
  O   O115      1.0  0.19437999999999994  0.8283599999999998  0.80812  1.0000
  O   O116      1.0  0.8159  0.8435499999999998  0.51103  1.0000
  O   O117      1.0  0.84952  0.82334  0.58376  1.0000
  O   O118      1.0  0.24666999999999994  0.7861799999999999  0.9636199999999999  1.0000
  O   O119      1.0  0.061660000000000006  0.8482299999999997  0.6924199999999999  1.0000
  O   O120      1.0  0.33543  0.8335199999999998  0.041589999999999995  1.0000
  O   O121      1.0  0.5550700000000002  0.41395999999999994  0.81132  1.0000
  O   O122      1.0  0.5673  0.28131  0.69442  1.0000
  O   O123      1.0  0.61459  0.4769499999999999  0.80772  1.0000
  O   O124      1.0  0.70909  0.17395999999999995  0.52225  1.0000
  O   O125      1.0  0.7388000000000001  0.26971999999999996  0.59115  1.0000
  O   O126      1.0  0.7170700000000001  0.67481  0.9605  1.0000
  O   O127      1.0  0.6312800000000001  0.34324999999999983  0.6935999999999999  1.0000
  O   O128      1.0  0.69854  0.7104999999999998  0.03452  1.0000
