data_image0
_chemical_formula_structural       Zn16H208C320N32O80
_chemical_formula_sum              "Zn16 H208 C320 N32 O80"
_cell_length_a       20.1862
_cell_length_b       28.11296
_cell_length_c       28.057109999999998
_cell_angle_alpha    90.0
_cell_angle_beta     94.28989
_cell_angle_gamma    90.0

_space_group_name_H-M_alt    "P 1"
_space_group_IT_number       1

loop_
  _space_group_symop_operation_xyz
  'x, y, z'

loop_
  _atom_site_type_symbol
  _atom_site_label
  _atom_site_symmetry_multiplicity
  _atom_site_fract_x
  _atom_site_fract_y
  _atom_site_fract_z
  _atom_site_occupancy
  Zn  Zn1       1.0  0.38823  0.25403  0.65873  1.0000
  Zn  Zn2       1.0  0.38823  0.24597  0.15873  1.0000
  Zn  Zn3       1.0  0.8905  0.7465  0.65153  1.0000
  Zn  Zn4       1.0  0.8872100000000002  0.74872  0.05105000000000001  1.0000
  Zn  Zn5       1.0  0.3924  0.25053  0.55833  1.0000
  Zn  Zn6       1.0  0.39239  0.24947  0.05833  1.0000
  Zn  Zn7       1.0  0.8905  0.7535  0.15153  1.0000
  Zn  Zn8       1.0  0.8872100000000002  0.75127  0.55105  1.0000
  Zn  Zn9       1.0  0.61177  0.74597  0.3412800000000001  1.0000
  Zn  Zn10      1.0  0.60761  0.74947  0.4416700000000001  1.0000
  Zn  Zn11      1.0  0.11278999999999999  0.24873  0.44895000000000007  1.0000
  Zn  Zn12      1.0  0.1095  0.2535  0.34848  1.0000
  Zn  Zn13      1.0  0.1095  0.24649999999999997  0.84848  1.0000
  Zn  Zn14      1.0  0.11279000000000002  0.25127  0.9489600000000001  1.0000
  Zn  Zn15      1.0  0.60761  0.75053  0.9416700000000002  1.0000
  Zn  Zn16      1.0  0.61177  0.75403  0.8412800000000002  1.0000
  H   H1        1.0  0.23479  0.1408  0.17337000000000002  1.0000
  H   H2        1.0  0.28371  0.25274  0.7304100000000002  1.0000
  H   H3        1.0  0.76503  0.6175  0.02604  1.0000
  H   H4        1.0  0.64099  0.08289  0.56427  1.0000
  H   H5        1.0  0.30909  0.10785  0.53283  1.0000
  H   H6        1.0  0.12733  0.012119999999999997  0.1352  1.0000
  H   H7        1.0  0.10468000000000001  0.56304  0.054140000000000015  1.0000
  H   H8        1.0  0.20752  0.17009  0.023030000000000002  1.0000
  H   H9        1.0  0.1836  0.5227  0.07062  1.0000
  H   H10       1.0  0.79802  0.7893  0.46953  1.0000
  H   H11       1.0  0.7008  0.54201  0.0322  1.0000
  H   H12       1.0  0.9728400000000001  0.7116099999999999  0.4794800000000001  1.0000
  H   H13       1.0  0.14574000000000004  0.89787  0.7019200000000002  1.0000
  H   H14       1.0  0.06788  0.67171  0.18922000000000005  1.0000
  H   H15       1.0  0.14796  0.42205  0.6650500000000003  1.0000
  H   H16       1.0  0.9764900000000002  0.79091  0.8906200000000002  1.0000
  H   H17       1.0  0.52493  0.031199999999999995  0.03424  1.0000
  H   H18       1.0  0.51106  0.38039  0.6868400000000002  1.0000
  H   H19       1.0  0.02949  0.96747  0.030080000000000006  1.0000
  H   H20       1.0  0.92798  0.67944  0.3187000000000001  1.0000
  H   H21       1.0  0.7008  0.95798  0.5322  1.0000
  H   H22       1.0  0.12008000000000003  0.39261  0.5141000000000001  1.0000
  H   H23       1.0  0.47290999999999994  0.29405  0.4856600000000001  1.0000
  H   H24       1.0  0.07703  0.54785  0.6818800000000003  1.0000
  H   H25       1.0  0.30141  0.29398  0.88842  1.0000
  H   H26       1.0  0.52406  0.35332  0.20023  1.0000
  H   H27       1.0  0.61566  0.60555  0.51188  1.0000
  H   H28       1.0  0.10468000000000001  0.93695  0.55414  1.0000
  H   H29       1.0  0.9777200000000001  0.88813  0.027890000000000005  1.0000
  H   H30       1.0  0.61666  0.51854  0.6393200000000002  1.0000
  H   H31       1.0  0.65174  0.01261  0.57912  1.0000
  H   H32       1.0  0.20423  0.44677999999999995  0.17802  1.0000
  H   H33       1.0  0.93001  0.81477  0.7295100000000002  1.0000
  H   H34       1.0  0.70465  0.6673099999999998  0.51689  1.0000
  H   H35       1.0  0.79197  0.78803  0.38050000000000006  1.0000
  H   H36       1.0  0.78669  0.6274799999999999  0.17852000000000007  1.0000
  H   H37       1.0  0.12008000000000002  0.10739  0.0141  1.0000
  H   H38       1.0  0.30649  0.29265  0.97739  1.0000
  H   H39       1.0  0.64099  0.41711  0.06426  1.0000
  H   H40       1.0  0.2519  0.4711099999999999  0.03315  1.0000
  H   H41       1.0  0.30141  0.20601999999999998  0.3884100000000001  1.0000
  H   H42       1.0  0.73189  0.64624  0.6686900000000001  1.0000
  H   H43       1.0  0.64326  0.9149799999999999  0.16423  1.0000
  H   H44       1.0  0.12733  0.48788  0.6352  1.0000
  H   H45       1.0  0.20423  0.05320999999999999  0.6780200000000001  1.0000
  H   H46       1.0  0.61566  0.89445  0.011880000000000003  1.0000
  H   H47       1.0  0.61666  0.98145  0.13932  1.0000
  H   H48       1.0  0.14574000000000004  0.60213  0.20191000000000006  1.0000
  H   H49       1.0  0.02949  0.53252  0.5300800000000001  1.0000
  H   H50       1.0  0.48915000000000003  0.24841  0.24009000000000005  1.0000
  H   H51       1.0  0.56504  0.15222  0.5526600000000002  1.0000
  H   H52       1.0  0.49485999999999997  0.25011  0.82958  1.0000
  H   H53       1.0  0.30649  0.20734  0.4773900000000001  1.0000
  H   H54       1.0  0.93001  0.68523  0.22951000000000005  1.0000
  H   H55       1.0  0.9777200000000001  0.61187  0.52789  1.0000
  H   H56       1.0  0.92798  0.82056  0.8187  1.0000
  H   H57       1.0  0.27974  0.25115  0.3195  1.0000
  H   H58       1.0  0.56504  0.34777  0.05266000000000001  1.0000
  H   H59       1.0  0.65174  0.48739  0.07911000000000003  1.0000
  H   H60       1.0  0.97649  0.70909  0.3906200000000001  1.0000
  H   H61       1.0  0.84062  0.68009  0.81618  1.0000
  H   H62       1.0  0.2608  0.3676  0.17650000000000005  1.0000
  H   H63       1.0  0.76503  0.8825  0.52604  1.0000
  H   H64       1.0  0.7866900000000001  0.87251  0.6785200000000002  1.0000
  H   H65       1.0  0.47290999999999994  0.20595  0.9856600000000002  1.0000
  H   H66       1.0  0.70465  0.83269  0.01688  1.0000
  H   H67       1.0  0.06788000000000001  0.82828  0.6892200000000003  1.0000
  H   H68       1.0  0.20752  0.32991  0.52303  1.0000
  H   H69       1.0  0.47481  0.29687  0.39669  1.0000
  H   H70       1.0  0.020780000000000014  0.62692  0.6793900000000003  1.0000
  H   H71       1.0  0.03020000000000002  0.8673299999999998  0.5422200000000001  1.0000
  H   H72       1.0  0.47766  0.38800999999999997  0.5341200000000002  1.0000
  H   H73       1.0  0.79197  0.71196  0.8805  1.0000
  H   H74       1.0  0.0302  0.63267  0.042220000000000014  1.0000
  H   H75       1.0  0.79802  0.7107  0.9695300000000002  1.0000
  H   H76       1.0  0.52493  0.46879  0.5342400000000002  1.0000
  H   H77       1.0  0.84427  0.68122  0.7270500000000002  1.0000
  H   H78       1.0  0.28371  0.24726  0.23041000000000006  1.0000
  H   H79       1.0  0.30909  0.39215  0.03283  1.0000
  H   H80       1.0  0.2348  0.3592  0.6733700000000001  1.0000
  H   H81       1.0  0.9728400000000001  0.78839  0.97948  1.0000
  H   H82       1.0  0.47481999999999996  0.20313  0.8966900000000001  1.0000
  H   H83       1.0  0.07703  0.9521399999999998  0.18188000000000004  1.0000
  H   H84       1.0  0.84427  0.8187799999999998  0.22705000000000006  1.0000
  H   H85       1.0  0.02078  0.87307  0.17939000000000002  1.0000
  H   H86       1.0  0.51106  0.11961  0.18684000000000003  1.0000
  H   H87       1.0  0.60041  0.07599  0.7125000000000002  1.0000
  H   H88       1.0  0.14796  0.07795  0.16505000000000006  1.0000
  H   H89       1.0  0.8406100000000001  0.8199  0.31618  1.0000
  H   H90       1.0  0.64326  0.58501  0.66423  1.0000
  H   H91       1.0  0.73189  0.85376  0.16869  1.0000
  H   H92       1.0  0.49485999999999997  0.24989  0.32957  1.0000
  H   H93       1.0  0.2519  0.02889  0.53315  1.0000
  H   H94       1.0  0.4891499999999999  0.25159  0.74009  1.0000
  H   H95       1.0  0.60041  0.42401  0.21249  1.0000
  H   H96       1.0  0.72595  0.94969  0.68557  1.0000
  H   H97       1.0  0.2608  0.1324  0.6765000000000002  1.0000
  H   H98       1.0  0.27974  0.24885  0.8195000000000001  1.0000
  H   H99       1.0  0.18359999999999999  0.97729  0.57062  1.0000
  H   H100      1.0  0.47766  0.11199  0.03412  1.0000
  H   H101      1.0  0.5627  0.46109  0.68753  1.0000
  H   H102      1.0  0.52406  0.14668  0.70023  1.0000
  H   H103      1.0  0.56269  0.03891  0.18753000000000006  1.0000
  H   H104      1.0  0.72595  0.55031  0.18557  1.0000
  H   H105      1.0  0.8726700000000001  0.51212  0.3648000000000001  1.0000
  H   H106      1.0  0.52709  0.79405  0.014340000000000004  1.0000
  H   H107      1.0  0.20198  0.2893  0.03047  1.0000
  H   H108      1.0  0.02716  0.28839  0.52052  1.0000
  H   H109      1.0  0.07202  0.17944  0.18130000000000004  1.0000
  H   H110      1.0  0.35674  0.08501  0.83577  1.0000
  H   H111      1.0  0.07202  0.32055999999999996  0.6813  1.0000
  H   H112      1.0  0.26811  0.35375999999999996  0.33132  1.0000
  H   H113      1.0  0.7924800000000002  0.8298999999999997  0.9769800000000001  1.0000
  H   H114      1.0  0.69351  0.70734  0.02261  1.0000
  H   H115      1.0  0.15939  0.18009  0.68382  1.0000
  H   H116      1.0  0.15939  0.3199  0.18382  1.0000
  H   H117      1.0  0.85204  0.57794  0.3349500000000001  1.0000
  H   H118      1.0  0.23496999999999998  0.3825  0.97396  1.0000
  H   H119      1.0  0.72026  0.75115  0.18050000000000005  1.0000
  H   H120      1.0  0.15573  0.18122  0.7729600000000001  1.0000
  H   H121      1.0  0.92297  0.04785999999999999  0.81813  1.0000
  H   H122      1.0  0.7481  0.52888  0.96685  1.0000
  H   H123      1.0  0.89532  0.43696  0.9458600000000001  1.0000
  H   H124      1.0  0.52234  0.61199  0.46588  1.0000
  H   H125      1.0  0.15573  0.31878  0.27296  1.0000
  H   H126      1.0  0.52519  0.70313  0.60331  1.0000
  H   H127      1.0  0.6986  0.7939799999999998  0.61159  1.0000
  H   H128      1.0  0.20198  0.2107  0.5304700000000001  1.0000
  H   H129      1.0  0.38334  0.48146  0.36069  1.0000
  H   H130      1.0  0.39958999999999995  0.57599  0.78751  1.0000
  H   H131      1.0  0.7392  0.6323999999999999  0.8235000000000002  1.0000
  H   H132      1.0  0.21331  0.37250999999999995  0.82149  1.0000
  H   H133      1.0  0.8164  0.0227  0.4293800000000001  1.0000
  H   H134      1.0  0.21331  0.12748  0.32148000000000004  1.0000
  H   H135      1.0  0.43731  0.96109  0.81247  1.0000
  H   H136      1.0  0.02352000000000002  0.29090999999999995  0.6093800000000003  1.0000
  H   H137      1.0  0.97051  0.03252  0.96992  1.0000
  H   H138      1.0  0.87992  0.60738  0.4859  1.0000
  H   H139      1.0  0.022280000000000015  0.38813  0.4721200000000001  1.0000
  H   H140      1.0  0.50514  0.74989  0.17043000000000005  1.0000
  H   H141      1.0  0.93212  0.17172  0.31079  1.0000
  H   H142      1.0  0.2992  0.45798  0.9678  1.0000
  H   H143      1.0  0.29536  0.16731  0.98312  1.0000
  H   H144      1.0  0.51085  0.7515899999999998  0.75991  1.0000
  H   H145      1.0  0.7481  0.97111  0.4668500000000001  1.0000
  H   H146      1.0  0.02228000000000001  0.11187  0.9721200000000002  1.0000
  H   H147      1.0  0.50514  0.75011  0.67043  1.0000
  H   H148      1.0  0.71629  0.74726  0.2696  1.0000
  H   H149      1.0  0.35901  0.91711  0.43574  1.0000
  H   H150      1.0  0.38334  0.01854  0.8606900000000001  1.0000
  H   H151      1.0  0.35674  0.41498  0.33577  1.0000
  H   H152      1.0  0.76521  0.8592  0.8266400000000002  1.0000
  H   H153      1.0  0.85204  0.92205  0.83496  1.0000
  H   H154      1.0  0.39958999999999995  0.92401  0.28751  1.0000
  H   H155      1.0  0.06999000000000004  0.31477  0.7704900000000002  1.0000
  H   H156      1.0  0.79577  0.94678  0.32198  1.0000
  H   H157      1.0  0.87992  0.89261  0.9859000000000002  1.0000
  H   H158      1.0  0.69351  0.79265  0.52261  1.0000
  H   H159      1.0  0.85426  0.10213  0.2980900000000001  1.0000
  H   H160      1.0  0.47506999999999994  0.5312  0.46576  1.0000
  H   H161      1.0  0.92297  0.45214  0.31813  1.0000
  H   H162      1.0  0.2992  0.04201  0.4678  1.0000
  H   H163      1.0  0.34826  0.9873899999999999  0.42089  1.0000
  H   H164      1.0  0.47594000000000003  0.6466799999999999  0.79977  1.0000
  H   H165      1.0  0.48893999999999993  0.88038  0.8131600000000002  1.0000
  H   H166      1.0  0.43495999999999996  0.65222  0.9473400000000002  1.0000
  H   H167      1.0  0.96981  0.36733  0.9577800000000002  1.0000
  H   H168      1.0  0.79577  0.55321  0.8219800000000003  1.0000
  H   H169      1.0  0.23496999999999998  0.11749999999999997  0.47396  1.0000
  H   H170      1.0  0.52234  0.88801  0.96588  1.0000
  H   H171      1.0  0.38434  0.10555  0.9881300000000001  1.0000
  H   H172      1.0  0.29535  0.33269  0.48312  1.0000
  H   H173      1.0  0.06999  0.18522999999999995  0.27049  1.0000
  H   H174      1.0  0.52709  0.7059399999999999  0.51434  1.0000
  H   H175      1.0  0.97051  0.46747  0.46992  1.0000
  H   H176      1.0  0.47594000000000003  0.85331  0.29977  1.0000
  H   H177      1.0  0.9697999999999999  0.13267  0.45778  1.0000
  H   H178      1.0  0.51085  0.74841  0.25991  1.0000
  H   H179      1.0  0.85426  0.39787  0.79809  1.0000
  H   H180      1.0  0.27405  0.44968999999999987  0.81443  1.0000
  H   H181      1.0  0.79248  0.6700899999999999  0.4769700000000001  1.0000
  H   H182      1.0  0.20803  0.28803  0.11950000000000001  1.0000
  H   H183      1.0  0.69091  0.89215  0.4671700000000001  1.0000
  H   H184      1.0  0.69091  0.60785  0.9671700000000002  1.0000
  H   H185      1.0  0.02716  0.21160999999999996  0.02052  1.0000
  H   H186      1.0  0.72026  0.7488499999999999  0.6805000000000002  1.0000
  H   H187      1.0  0.02351  0.20909  0.10938  1.0000
  H   H188      1.0  0.8726700000000001  0.98787  0.8648  1.0000
  H   H189      1.0  0.7392  0.8675899999999998  0.32350000000000007  1.0000
  H   H190      1.0  0.43495999999999996  0.84777  0.44734  1.0000
  H   H191      1.0  0.93212  0.32828  0.81079  1.0000
  H   H192      1.0  0.71629  0.75274  0.7696  1.0000
  H   H193      1.0  0.8164  0.4773  0.9293800000000002  1.0000
  H   H194      1.0  0.38434  0.39445  0.4881300000000001  1.0000
  H   H195      1.0  0.52518  0.7968699999999997  0.10331  1.0000
  H   H196      1.0  0.97922  0.12692  0.8206100000000002  1.0000
  H   H197      1.0  0.69859  0.70602  0.11159000000000001  1.0000
  H   H198      1.0  0.34826  0.51261  0.9208900000000002  1.0000
  H   H199      1.0  0.47506999999999994  0.9687899999999999  0.9657600000000002  1.0000
  H   H200      1.0  0.35901000000000005  0.58289  0.9357400000000002  1.0000
  H   H201      1.0  0.97922  0.37307  0.32061  1.0000
  H   H202      1.0  0.43731  0.53891  0.3124700000000001  1.0000
  H   H203      1.0  0.48893999999999993  0.61961  0.3131600000000001  1.0000
  H   H204      1.0  0.7652  0.64079  0.3266300000000001  1.0000
  H   H205      1.0  0.20803  0.21196  0.6195  1.0000
  H   H206      1.0  0.89532  0.06304  0.44586  1.0000
  H   H207      1.0  0.27405  0.05031  0.31443  1.0000
  H   H208      1.0  0.26811  0.14624  0.8313200000000002  1.0000
  C   C1        1.0  0.054930000000000014  0.9379799999999999  0.14821000000000006  1.0000
  C   C2        1.0  0.8848199999999999  0.7493799999999999  0.37784000000000006  1.0000
  C   C3        1.0  0.343  0.22636  0.45805  1.0000
  C   C4        1.0  0.78111  0.69482  0.5963200000000001  1.0000
  C   C5        1.0  0.62395  0.07396  0.63936  1.0000
  C   C6        1.0  0.054930000000000014  0.56201  0.6482100000000002  1.0000
  C   C7        1.0  0.64167  0.61453  0.54602  1.0000
  C   C8        1.0  0.20944999999999997  0.13282  0.13874  1.0000
  C   C9        1.0  0.72502  0.84028  0.09314  1.0000
  C   C10       1.0  0.3273  0.25041  0.8035000000000002  1.0000
  C   C11       1.0  0.86227  0.7111  0.7490700000000002  1.0000
  C   C12       1.0  0.7099  0.54116  0.10943000000000001  1.0000
  C   C13       1.0  0.38846  0.25088  0.38485  1.0000
  C   C14       1.0  0.38847  0.24912  0.88485  1.0000
  C   C15       1.0  0.51525  0.10015  0.15372  1.0000
  C   C16       1.0  0.9920099999999998  0.80588  0.6092400000000002  1.0000
  C   C17       1.0  0.83666  0.72767  0.9505100000000001  1.0000
  C   C18       1.0  0.9104199999999999  0.78612  0.7505  1.0000
  C   C19       1.0  0.9951300000000001  0.8754099999999999  0.10359000000000003  1.0000
  C   C20       1.0  0.25376  0.44826  0.06456  1.0000
  C   C21       1.0  0.19461  0.35039  0.5538900000000001  1.0000
  C   C22       1.0  0.16115000000000002  0.40258999999999995  0.6335300000000001  1.0000
  C   C23       1.0  0.22648999999999997  0.06556  0.6463  1.0000
  C   C24       1.0  0.07744  0.64779  0.16005000000000003  1.0000
  C   C25       1.0  0.056229999999999995  0.62579  0.07688000000000002  1.0000
  C   C26       1.0  0.66608  0.46917  0.14994  1.0000
  C   C27       1.0  0.52266  0.44968  0.56764  1.0000
  C   C28       1.0  0.54377  0.05505  0.15396000000000007  1.0000
  C   C29       1.0  0.77981  0.6270999999999999  0.10191000000000003  1.0000
  C   C30       1.0  0.66608  0.030829999999999993  0.64994  1.0000
  C   C31       1.0  0.9590899999999999  0.82901  0.10276000000000003  1.0000
  C   C32       1.0  0.09905  0.91297  0.58404  1.0000
  C   C33       1.0  0.57405  0.55125  0.5795  1.0000
  C   C34       1.0  0.61465  0.09574  0.59423  1.0000
  C   C35       1.0  0.73416  0.56545  0.151  1.0000
  C   C36       1.0  0.44439  0.24874  0.25948  1.0000
  C   C37       1.0  0.38749  0.25043  0.33215  1.0000
  C   C38       1.0  0.69159  0.85124  0.04889000000000002  1.0000
  C   C39       1.0  0.43674  0.22539999999999996  0.9624500000000002  1.0000
  C   C40       1.0  0.38749  0.24957  0.83215  1.0000
  C   C41       1.0  0.32059  0.17293  0.6038900000000003  1.0000
  C   C42       1.0  0.62489  0.58999  0.5870100000000003  1.0000
  C   C43       1.0  0.43673000000000006  0.2746  0.46245000000000014  1.0000
  C   C44       1.0  0.75542  0.60278  0.06067  1.0000
  C   C45       1.0  0.43744  0.27571  0.41297  1.0000
  C   C46       1.0  0.9987499999999999  0.59778  0.56175  1.0000
  C   C47       1.0  0.51525  0.39985  0.65372  1.0000
  C   C48       1.0  0.28718  0.12549  0.6042300000000002  1.0000
  C   C49       1.0  0.05679  0.96504  0.10615000000000002  1.0000
  C   C50       1.0  0.22754  0.15840999999999997  0.09879  1.0000
  C   C51       1.0  0.43744  0.22428  0.91297  1.0000
  C   C52       1.0  0.34033  0.27399  0.90842  1.0000
  C   C53       1.0  0.7682  0.60807  0.14675  1.0000
  C   C54       1.0  0.81732  0.82738  0.5986400000000002  1.0000
  C   C55       1.0  0.05679000000000002  0.53495  0.6061500000000002  1.0000
  C   C56       1.0  0.22409  0.03614  0.60559  1.0000
  C   C57       1.0  0.52266  0.05032  0.06763  1.0000
  C   C58       1.0  0.32903  0.25187  0.75405  1.0000
  C   C59       1.0  0.05623000000000002  0.8742  0.5768800000000002  1.0000
  C   C60       1.0  0.13113  0.92195  0.62937  1.0000
  C   C61       1.0  0.54015  0.34651  0.12576  1.0000
  C   C62       1.0  0.28499  0.4042  0.06401000000000001  1.0000
  C   C63       1.0  0.7099  0.95884  0.60943  1.0000
  C   C64       1.0  0.02376  0.8938199999999998  0.14694000000000004  1.0000
  C   C65       1.0  0.8848199999999999  0.75061  0.8778500000000002  1.0000
  C   C66       1.0  0.7682  0.89193  0.64675  1.0000
  C   C67       1.0  0.9357499999999999  0.77294  0.90643  1.0000
  C   C68       1.0  0.59194  0.09305  0.67779  1.0000
  C   C69       1.0  0.70646  0.86324  0.1345  1.0000
  C   C70       1.0  0.54015  0.15349  0.62576  1.0000
  C   C71       1.0  0.62489  0.91001  0.08701  1.0000
  C   C72       1.0  0.14563  0.11476  0.04882  1.0000
  C   C73       1.0  0.59194  0.40695  0.17779000000000003  1.0000
  C   C74       1.0  0.17275  0.96494  0.6418800000000002  1.0000
  C   C75       1.0  0.12963  0.41254  0.58825  1.0000
  C   C76       1.0  0.32059  0.32707  0.10389000000000001  1.0000
  C   C77       1.0  0.65699  0.60206  0.63153  1.0000
  C   C78       1.0  0.73416  0.93455  0.6510000000000002  1.0000
  C   C79       1.0  0.04404  0.6558499999999999  0.11508  1.0000
  C   C80       1.0  0.9987499999999999  0.90222  0.06175  1.0000
  C   C81       1.0  0.44691  0.2501  0.30911  1.0000
  C   C82       1.0  0.57302  0.1352  0.5874500000000002  1.0000
  C   C83       1.0  0.25376  0.051739999999999994  0.56456  1.0000
  C   C84       1.0  0.55029  0.13223  0.6710100000000002  1.0000
  C   C85       1.0  0.81732  0.67262  0.09864000000000002  1.0000
  C   C86       1.0  0.12064000000000001  0.6095  0.16705  1.0000
  C   C87       1.0  0.57301  0.3648  0.08745000000000003  1.0000
  C   C88       1.0  0.9951300000000001  0.62459  0.6035900000000002  1.0000
  C   C89       1.0  0.22648999999999997  0.43444  0.14630000000000004  1.0000
  C   C90       1.0  0.14563  0.38524  0.54882  1.0000
  C   C91       1.0  0.8342399999999999  0.72789  0.90088  1.0000
  C   C92       1.0  0.62395  0.42604  0.13936  1.0000
  C   C93       1.0  0.08063  0.45207  0.57862  1.0000
  C   C94       1.0  0.44439  0.25126  0.75949  1.0000
  C   C95       1.0  0.17275  0.53505  0.14188  1.0000
  C   C96       1.0  0.28322  0.19376999999999997  0.10447000000000002  1.0000
  C   C97       1.0  0.28322  0.30622  0.6044700000000001  1.0000
  C   C98       1.0  0.49099999999999994  0.37878  0.61051  1.0000
  C   C99       1.0  0.49553  0.09582  0.06782  1.0000
  C   C100      1.0  0.20944999999999997  0.36718  0.63874  1.0000
  C   C101      1.0  0.13113  0.57804  0.12937  1.0000
  C   C102      1.0  0.25789  0.39044  0.14514  1.0000
  C   C103      1.0  0.28499  0.09579999999999998  0.5640100000000001  1.0000
  C   C104      1.0  0.44691  0.24989999999999996  0.80911  1.0000
  C   C105      1.0  0.9590899999999999  0.6709899999999999  0.60276  1.0000
  C   C106      1.0  0.88461  0.75037  0.82517  1.0000
  C   C107      1.0  0.86227  0.7889  0.24907  1.0000
  C   C108      1.0  0.49193999999999993  0.30586  0.11883000000000002  1.0000
  C   C109      1.0  0.9357499999999999  0.72705  0.4064300000000001  1.0000
  C   C110      1.0  0.93473  0.7287  0.4558700000000001  1.0000
  C   C111      1.0  0.8846000000000002  0.74963  0.32517  1.0000
  C   C112      1.0  0.45913  0.33079  0.60997  1.0000
  C   C113      1.0  0.5476  0.02983999999999999  0.11093  1.0000
  C   C114      1.0  0.04404  0.84415  0.61508  1.0000
  C   C115      1.0  0.78111  0.80517  0.09632000000000003  1.0000
  C   C116      1.0  0.91041  0.71388  0.25050000000000006  1.0000
  C   C117      1.0  0.8342399999999999  0.7721099999999999  0.40088  1.0000
  C   C118      1.0  0.90985  0.78869  0.79998  1.0000
  C   C119      1.0  0.49195  0.19414  0.61883  1.0000
  C   C120      1.0  0.69159  0.6487499999999999  0.5488900000000001  1.0000
  C   C121      1.0  0.65699  0.89793  0.13153  1.0000
  C   C122      1.0  0.45913  0.16921  0.10997  1.0000
  C   C123      1.0  0.5476000000000001  0.47016  0.6109300000000002  1.0000
  C   C124      1.0  0.55029  0.36777  0.17101000000000005  1.0000
  C   C125      1.0  0.343  0.27364  0.9580500000000002  1.0000
  C   C126      1.0  0.16115  0.09741  0.13353000000000004  1.0000
  C   C127      1.0  0.25789000000000006  0.10955  0.6451400000000003  1.0000
  C   C128      1.0  0.9347300000000001  0.77129  0.95587  1.0000
  C   C129      1.0  0.90985  0.7113099999999999  0.29998  1.0000
  C   C130      1.0  0.32903  0.24813  0.25404  1.0000
  C   C131      1.0  0.4909900000000001  0.12122  0.11051000000000002  1.0000
  C   C132      1.0  0.75542  0.89721  0.56067  1.0000
  C   C133      1.0  0.19461  0.14961  0.05388  1.0000
  C   C134      1.0  0.7202800000000001  0.93942  0.56431  1.0000
  C   C135      1.0  0.07745000000000003  0.8522  0.6600600000000002  1.0000
  C   C136      1.0  0.3273  0.24958999999999995  0.3035  1.0000
  C   C137      1.0  0.02375999999999999  0.6061699999999999  0.64694  1.0000
  C   C138      1.0  0.64166  0.88546  0.04602  1.0000
  C   C139      1.0  0.9920099999999998  0.69411  0.10924000000000003  1.0000
  C   C140      1.0  0.61465  0.40426  0.09423  1.0000
  C   C141      1.0  0.34032  0.226  0.40841  1.0000
  C   C142      1.0  0.57405  0.94874  0.0795  1.0000
  C   C143      1.0  0.02843  0.94694  0.0627  1.0000
  C   C144      1.0  0.83666  0.77232  0.45051000000000013  1.0000
  C   C145      1.0  0.54377  0.44493999999999995  0.65396  1.0000
  C   C146      1.0  0.72502  0.65971  0.59314  1.0000
  C   C147      1.0  0.22754  0.34159  0.59879  1.0000
  C   C148      1.0  0.08063  0.04792  0.07862  1.0000
  C   C149      1.0  0.49553  0.40418  0.56783  1.0000
  C   C150      1.0  0.028430000000000025  0.55305  0.5627000000000001  1.0000
  C   C151      1.0  0.12963  0.08746  0.08825000000000002  1.0000
  C   C152      1.0  0.22409  0.46385999999999994  0.10559000000000003  1.0000
  C   C153      1.0  0.12064000000000001  0.89049  0.66705  1.0000
  C   C154      1.0  0.70646  0.63675  0.6345000000000002  1.0000
  C   C155      1.0  0.77981  0.87289  0.6019100000000001  1.0000
  C   C156      1.0  0.09905  0.58703  0.08404000000000003  1.0000
  C   C157      1.0  0.72028  0.56057  0.06431  1.0000
  C   C158      1.0  0.86001  0.71102  0.7984800000000002  1.0000
  C   C159      1.0  0.86001  0.78898  0.29848  1.0000
  C   C160      1.0  0.28718  0.37451  0.10423000000000003  1.0000
  C   C161      1.0  0.11518  0.24939  0.12216000000000002  1.0000
  C   C162      1.0  0.71678  0.80622  0.8955400000000002  1.0000
  C   C163      1.0  0.22019  0.1271  0.39809  1.0000
  C   C164      1.0  0.74624  0.55173  0.9354400000000003  1.0000
  C   C165      1.0  0.16334  0.22767  0.54949  1.0000
  C   C166      1.0  0.0012500000000000124  0.09778  0.9382500000000001  1.0000
  C   C167      1.0  0.6727  0.74959  0.1965  1.0000
  C   C168      1.0  0.27498  0.34028  0.40686  1.0000
  C   C169      1.0  0.4598499999999999  0.8465099999999998  0.37424  1.0000
  C   C170      1.0  0.9715699999999999  0.05305  0.9373000000000002  1.0000
  C   C171      1.0  0.35834  0.11454  0.95398  1.0000
  C   C172      1.0  0.26584  0.43455  0.84901  1.0000
  C   C173      1.0  0.7128200000000001  0.62549  0.8957700000000002  1.0000
  C   C174      1.0  0.65968  0.7739899999999998  0.59159  1.0000
  C   C175      1.0  0.001249999999999996  0.40222  0.43825  1.0000
  C   C176      1.0  0.27972  0.43942  0.9356900000000001  1.0000
  C   C177      1.0  0.657  0.77364  0.54196  1.0000
  C   C178      1.0  0.74624  0.94826  0.4354400000000001  1.0000
  C   C179      1.0  0.56256  0.72428  0.58703  1.0000
  C   C180      1.0  0.04091  0.17099  0.89724  1.0000
  C   C181      1.0  0.77246  0.8415899999999998  0.90121  1.0000
  C   C182      1.0  0.27498  0.15971  0.9068600000000001  1.0000
  C   C183      1.0  0.657  0.72635  0.04196  1.0000
  C   C184      1.0  0.50447  0.59582  0.43218000000000006  1.0000
  C   C185      1.0  0.37605  0.92604  0.36064  1.0000
  C   C186      1.0  0.8053900000000002  0.6496  0.4461200000000001  1.0000
  C   C187      1.0  0.18268000000000004  0.17262  0.4013600000000001  1.0000
  C   C188      1.0  0.55309  0.7500899999999998  0.19089000000000003  1.0000
  C   C189      1.0  0.47733999999999993  0.55032  0.43237  1.0000
  C   C190      1.0  0.95596  0.34415  0.8849200000000003  1.0000
  C   C191      1.0  0.13999  0.28898  0.20152  1.0000
  C   C192      1.0  0.48475000000000007  0.60015  0.3462800000000001  1.0000
  C   C193      1.0  0.45623  0.94494  0.8460400000000001  1.0000
  C   C194      1.0  0.61154  0.74912  0.61516  1.0000
  C   C195      1.0  0.08959  0.21388  0.24951  1.0000
  C   C196      1.0  0.85437  0.88523  0.9511800000000001  1.0000
  C   C197      1.0  0.16334  0.27232  0.04949000000000001  1.0000
  C   C198      1.0  0.06527  0.22871  0.04413  1.0000
  C   C199      1.0  0.004870000000000015  0.37541  0.3964100000000001  1.0000
  C   C200      1.0  0.44971  0.86777  0.32899000000000006  1.0000
  C   C201      1.0  0.8703700000000001  0.9125399999999999  0.91175  1.0000
  C   C202      1.0  0.11539  0.24963  0.17483  1.0000
  C   C203      1.0  0.13999000000000006  0.21102  0.7015200000000003  1.0000
  C   C204      1.0  0.30841  0.14875  0.9511100000000002  1.0000
  C   C205      1.0  0.87936  0.39048999999999995  0.83295  1.0000
  C   C206      1.0  0.8053900000000002  0.85039  0.9461200000000002  1.0000
  C   C207      1.0  0.97624  0.39382  0.35307000000000005  1.0000
  C   C208      1.0  0.4524  0.52984  0.38907000000000014  1.0000
  C   C209      1.0  0.71501  0.5957999999999999  0.9359900000000002  1.0000
  C   C210      1.0  0.86887  0.42195  0.87063  1.0000
  C   C211      1.0  0.22019000000000005  0.37289  0.8980900000000003  1.0000
  C   C212      1.0  0.4598499999999999  0.65349  0.8742500000000002  1.0000
  C   C213      1.0  0.92256  0.35219999999999996  0.83995  1.0000
  C   C214      1.0  0.56327  0.7746  0.03755  1.0000
  C   C215      1.0  0.42698  0.8648  0.41255  1.0000
  C   C216      1.0  0.77591  0.53614  0.89441  1.0000
  C   C217      1.0  0.06426  0.27294  0.59357  1.0000
  C   C218      1.0  0.34301  0.39792999999999995  0.36847  1.0000
  C   C219      1.0  0.50447  0.90418  0.9321800000000002  1.0000
  C   C220      1.0  0.24458  0.10277999999999998  0.43934  1.0000
  C   C221      1.0  0.9193699999999999  0.54792  0.4213800000000001  1.0000
  C   C222      1.0  0.16576  0.27211  0.09913  1.0000
  C   C223      1.0  0.9715699999999999  0.44694999999999996  0.4373  1.0000
  C   C224      1.0  0.67941  0.67293  0.8961100000000002  1.0000
  C   C225      1.0  0.9009500000000001  0.08702999999999997  0.4159600000000001  1.0000
  C   C226      1.0  0.2901  0.45884  0.89057  1.0000
  C   C227      1.0  0.61251  0.74956  0.66786  1.0000
  C   C228      1.0  0.007989999999999999  0.30588  0.89077  1.0000
  C   C229      1.0  0.77246  0.65841  0.4012100000000001  1.0000
  C   C230      1.0  0.71678  0.69377  0.39554  1.0000
  C   C231      1.0  0.9193699999999999  0.95207  0.92138  1.0000
  C   C232      1.0  0.37511  0.08999  0.9129900000000001  1.0000
  C   C233      1.0  0.9437699999999999  0.37421  0.9231200000000003  1.0000
  C   C234      1.0  0.74211  0.60955  0.85487  1.0000
  C   C235      1.0  0.4080599999999999  0.59304  0.82221  1.0000
  C   C236      1.0  0.08959000000000003  0.28611999999999993  0.7495100000000002  1.0000
  C   C237      1.0  0.54087  0.66921  0.3900300000000001  1.0000
  C   C238      1.0  0.2901  0.04116  0.3905700000000001  1.0000
  C   C239      1.0  0.9009500000000001  0.41297  0.91596  1.0000
  C   C240      1.0  0.56256  0.77571  0.08703000000000001  1.0000
  C   C241      1.0  0.77591  0.96386  0.39441000000000004  1.0000
  C   C242      1.0  0.21888999999999997  0.19483  0.9036800000000003  1.0000
  C   C243      1.0  0.47733999999999993  0.94968  0.93237  1.0000
  C   C244      1.0  0.38535  0.59574  0.9057700000000002  1.0000
  C   C245      1.0  0.82725  0.03506  0.3581200000000001  1.0000
  C   C246      1.0  0.33392  0.53082  0.85006  1.0000
  C   C247      1.0  0.42699  0.6352  0.9125500000000002  1.0000
  C   C248      1.0  0.38535  0.90426  0.40577000000000013  1.0000
  C   C249      1.0  0.09015  0.28869  0.70002  1.0000
  C   C250      1.0  0.42595  0.05125  0.9205000000000001  1.0000
  C   C251      1.0  0.55561  0.74874  0.24052000000000007  1.0000
  C   C252      1.0  0.1154  0.25037  0.67483  1.0000
  C   C253      1.0  0.45623  0.55505  0.34604  1.0000
  C   C254      1.0  0.97624  0.10617  0.8530700000000002  1.0000
  C   C255      1.0  0.23179999999999998  0.39193  0.8532500000000001  1.0000
  C   C256      1.0  0.34301000000000004  0.10206999999999997  0.8684700000000001  1.0000
  C   C257      1.0  0.4524  0.97015  0.8890700000000002  1.0000
  C   C258      1.0  0.11519  0.25061  0.62216  1.0000
  C   C259      1.0  0.9437699999999999  0.12579  0.42312000000000005  1.0000
  C   C260      1.0  0.23179999999999998  0.10807  0.3532500000000001  1.0000
  C   C261      1.0  0.09015  0.21131  0.20002  1.0000
  C   C262      1.0  0.004870000000000021  0.12459  0.8964100000000003  1.0000
  C   C263      1.0  0.86887  0.07805  0.3706300000000001  1.0000
  C   C264      1.0  0.26584  0.06545  0.3490100000000001  1.0000
  C   C265      1.0  0.77351  0.93444  0.3537  1.0000
  C   C266      1.0  0.85437  0.61476  0.45118  1.0000
  C   C267      1.0  0.79055  0.86717  0.8612600000000001  1.0000
  C   C268      1.0  0.29354000000000013  0.13675  0.8655000000000003  1.0000
  C   C269      1.0  0.13773000000000002  0.2111  0.7509300000000002  1.0000
  C   C270      1.0  0.61153  0.7508799999999999  0.11515000000000003  1.0000
  C   C271      1.0  0.94507  0.06200999999999999  0.8517900000000003  1.0000
  C   C272      1.0  0.27972  0.060579999999999995  0.43569  1.0000
  C   C273      1.0  0.16576  0.22788999999999998  0.59913  1.0000
  C   C274      1.0  0.50805  0.8058499999999997  0.3811700000000001  1.0000
  C   C275      1.0  0.82725  0.46494  0.8581200000000002  1.0000
  C   C276      1.0  0.5556100000000002  0.7512599999999999  0.7405200000000002  1.0000
  C   C277      1.0  0.06425  0.22706  0.09357  1.0000
  C   C278      1.0  0.42595  0.44875  0.4205  1.0000
  C   C279      1.0  0.71501  0.9042  0.43599  1.0000
  C   C280      1.0  0.04091000000000001  0.32901  0.39724000000000004  1.0000
  C   C281      1.0  0.95596  0.15585  0.38492  1.0000
  C   C282      1.0  0.77351  0.56556  0.8537  1.0000
  C   C283      1.0  0.50806  0.6941399999999999  0.88117  1.0000
  C   C284      1.0  0.9432099999999999  0.03495  0.8938500000000003  1.0000
  C   C285      1.0  0.18268000000000004  0.32737999999999995  0.9013600000000003  1.0000
  C   C286      1.0  0.67941  0.82707  0.3961100000000001  1.0000
  C   C287      1.0  0.61251  0.7504299999999999  0.16785  1.0000
  C   C288      1.0  0.24458  0.39721  0.93934  1.0000
  C   C289      1.0  0.74211  0.8904399999999999  0.35487000000000013  1.0000
  C   C290      1.0  0.65968  0.726  0.09159  1.0000
  C   C291      1.0  0.83885  0.59741  0.36647000000000013  1.0000
  C   C292      1.0  0.54087  0.83078  0.89003  1.0000
  C   C293      1.0  0.509  0.62122  0.3894900000000001  1.0000
  C   C294      1.0  0.4080599999999999  0.90695  0.32221  1.0000
  C   C295      1.0  0.9432099999999999  0.46505  0.3938500000000001  1.0000
  C   C296      1.0  0.30841  0.35123999999999994  0.45111  1.0000
  C   C297      1.0  0.06527  0.27129  0.54413  1.0000
  C   C298      1.0  0.67097  0.75187  0.74596  1.0000
  C   C299      1.0  0.83885  0.90259  0.8664700000000002  1.0000
  C   C300      1.0  0.79055  0.63282  0.36126  1.0000
  C   C301      1.0  0.50901  0.87878  0.88949  1.0000
  C   C302      1.0  0.007989999999999999  0.19411  0.39076  1.0000
  C   C303      1.0  0.33392  0.96917  0.35006  1.0000
  C   C304      1.0  0.87936  0.10951  0.33295  1.0000
  C   C305      1.0  0.7128200000000001  0.8745099999999999  0.3957700000000001  1.0000
  C   C306      1.0  0.56327  0.7254  0.53755  1.0000
  C   C307      1.0  0.37605000000000005  0.57396  0.8606500000000002  1.0000
  C   C308      1.0  0.67097  0.74813  0.24596000000000007  1.0000
  C   C309      1.0  0.13773  0.28889999999999993  0.25093000000000004  1.0000
  C   C310      1.0  0.48475000000000007  0.89985  0.84628  1.0000
  C   C311      1.0  0.94507  0.43799  0.35179000000000005  1.0000
  C   C312      1.0  0.44971  0.63222  0.8289900000000002  1.0000
  C   C313      1.0  0.55309  0.7499  0.69089  1.0000
  C   C314      1.0  0.92256  0.1478  0.3399500000000001  1.0000
  C   C315      1.0  0.6727  0.75041  0.6965000000000002  1.0000
  C   C316      1.0  0.29354  0.36325  0.3655  1.0000
  C   C317      1.0  0.21888999999999997  0.3051699999999999  0.40368  1.0000
  C   C318      1.0  0.35833000000000004  0.38546  0.4539800000000001  1.0000
  C   C319      1.0  0.8703700000000001  0.58746  0.4117500000000001  1.0000
  C   C320      1.0  0.37511  0.41000999999999993  0.41299  1.0000
  N   N1        1.0  0.6747900000000001  0.00192  0.6107200000000003  1.0000
  N   N2        1.0  0.39061  0.25003  0.48476000000000014  1.0000
  N   N3        1.0  0.58014  0.51476  0.61267  1.0000
  N   N4        1.0  0.58014  0.98523  0.11267000000000003  1.0000
  N   N5        1.0  0.08998  0.49066  0.60902  1.0000
  N   N6        1.0  0.38645  0.25234  0.73232  1.0000
  N   N7        1.0  0.08998  0.00934  0.10902000000000003  1.0000
  N   N8        1.0  0.19149  0.99193  0.60363  1.0000
  N   N9        1.0  0.88719  0.7479499999999999  0.72534  1.0000
  N   N10       1.0  0.39061  0.24996  0.9847600000000001  1.0000
  N   N11       1.0  0.19149  0.50806  0.10363  1.0000
  N   N12       1.0  0.8862699999999999  0.75127  0.4776400000000001  1.0000
  N   N13       1.0  0.38645  0.24766  0.23232000000000005  1.0000
  N   N14       1.0  0.67479  0.49808  0.11072  1.0000
  N   N15       1.0  0.8862699999999999  0.74872  0.9776400000000002  1.0000
  N   N16       1.0  0.88719  0.75205  0.22533  1.0000
  N   N17       1.0  0.91002  0.50933  0.39098  1.0000
  N   N18       1.0  0.8085199999999999  0.49193  0.89637  1.0000
  N   N19       1.0  0.32521  0.50191  0.8892800000000002  1.0000
  N   N20       1.0  0.41986000000000007  0.01476  0.8873300000000001  1.0000
  N   N21       1.0  0.60939  0.74996  0.51524  1.0000
  N   N22       1.0  0.91002  0.9906599999999999  0.89098  1.0000
  N   N23       1.0  0.11280999999999998  0.25205  0.27467  1.0000
  N   N24       1.0  0.80851  0.00807  0.39637  1.0000
  N   N25       1.0  0.32521  0.99808  0.38928  1.0000
  N   N26       1.0  0.11373  0.24873  0.52236  1.0000
  N   N27       1.0  0.61355  0.7476499999999999  0.26768  1.0000
  N   N28       1.0  0.60939  0.75003  0.015240000000000004  1.0000
  N   N29       1.0  0.11281000000000001  0.24795  0.7746700000000002  1.0000
  N   N30       1.0  0.61355  0.75234  0.76768  1.0000
  N   N31       1.0  0.41986000000000007  0.48523999999999995  0.38733  1.0000
  N   N32       1.0  0.11373  0.25127  0.02236  1.0000
  O   O1        1.0  0.18821  0.52394  0.18381000000000003  1.0000
  O   O2        1.0  0.96951  0.70479  0.06697  1.0000
  O   O3        1.0  0.03719  0.049839999999999995  0.04529  1.0000
  O   O4        1.0  0.97341  0.78833  0.64796  1.0000
  O   O5        1.0  0.68968  0.02153  0.69072  1.0000
  O   O6        1.0  0.82827  0.68821  0.05723000000000002  1.0000
  O   O7        1.0  0.30344  0.2882  0.56649  1.0000
  O   O8        1.0  0.9458999999999999  0.6878299999999999  0.64328  1.0000
  O   O9        1.0  0.46774999999999994  0.20925  0.6568300000000002  1.0000
  O   O10       1.0  0.32639  0.30458999999999997  0.14346  1.0000
  O   O11       1.0  0.82828  0.81178  0.55723  1.0000
  O   O12       1.0  0.3264  0.19541  0.64347  1.0000
  O   O13       1.0  0.47792000000000007  0.20927999999999997  0.57655  1.0000
  O   O14       1.0  0.30344  0.2118  0.06648  1.0000
  O   O15       1.0  0.94297  0.80971  0.062200000000000005  1.0000
  O   O16       1.0  0.80167  0.70966  0.5572  1.0000
  O   O17       1.0  0.33996  0.31228  0.06418  1.0000
  O   O18       1.0  0.44415  0.18797  0.06892  1.0000
  O   O19       1.0  0.44415  0.31203  0.56892  1.0000
  O   O20       1.0  0.53199  0.94798  0.04522  1.0000
  O   O21       1.0  0.30636  0.29738  0.64716  1.0000
  O   O22       1.0  0.96952  0.7952  0.56697  1.0000
  O   O23       1.0  0.8043099999999999  0.79311  0.13827  1.0000
  O   O24       1.0  0.03718999999999999  0.45015  0.54529  1.0000
  O   O25       1.0  0.80167  0.79033  0.05719000000000001  1.0000
  O   O26       1.0  0.33996  0.18771999999999997  0.5641800000000001  1.0000
  O   O27       1.0  0.53199  0.55201  0.54522  1.0000
  O   O28       1.0  0.8348299999999998  0.69288  0.13834  1.0000
  O   O29       1.0  0.8043200000000001  0.70688  0.6382700000000002  1.0000
  O   O30       1.0  0.18821000000000002  0.97605  0.6838100000000001  1.0000
  O   O31       1.0  0.94297  0.69028  0.5622  1.0000
  O   O32       1.0  0.47792000000000007  0.29072  0.07655  1.0000
  O   O33       1.0  0.44802999999999993  0.3121  0.65004  1.0000
  O   O34       1.0  0.30636  0.20262  0.14716  1.0000
  O   O35       1.0  0.9458999999999999  0.81217  0.14328  1.0000
  O   O36       1.0  0.68968  0.47847  0.19072000000000006  1.0000
  O   O37       1.0  0.46774999999999994  0.29075  0.15683  1.0000
  O   O38       1.0  0.8348299999999998  0.80711  0.6383400000000002  1.0000
  O   O39       1.0  0.44802999999999993  0.1879  0.15004  1.0000
  O   O40       1.0  0.97341  0.71167  0.14796  1.0000
  O   O41       1.0  0.026590000000000013  0.21167  0.35204000000000013  1.0000
  O   O42       1.0  0.52208  0.79072  0.4234500000000001  1.0000
  O   O43       1.0  0.53225  0.7907499999999998  0.34317000000000003  1.0000
  O   O44       1.0  0.16517  0.30711  0.86167  1.0000
  O   O45       1.0  0.026590000000000006  0.28833  0.85204  1.0000
  O   O46       1.0  0.05409999999999999  0.18783  0.85672  1.0000
  O   O47       1.0  0.17173  0.31178  0.94278  1.0000
  O   O48       1.0  0.31032  0.97847  0.30928  1.0000
  O   O49       1.0  0.67361  0.80458  0.35654  1.0000
  O   O50       1.0  0.31032  0.52153  0.8092900000000002  1.0000
  O   O51       1.0  0.96281  0.9501499999999998  0.9547100000000002  1.0000
  O   O52       1.0  0.81179  0.47604999999999986  0.8162000000000001  1.0000
  O   O53       1.0  0.55585  0.81203  0.93108  1.0000
  O   O54       1.0  0.03049000000000001  0.2952  0.9330300000000001  1.0000
  O   O55       1.0  0.69656  0.7117999999999999  0.4335200000000001  1.0000
  O   O56       1.0  0.05410000000000001  0.31217  0.3567200000000001  1.0000
  O   O57       1.0  0.6736100000000003  0.69541  0.8565400000000002  1.0000
  O   O58       1.0  0.96281  0.54984  0.45471000000000006  1.0000
  O   O59       1.0  0.17173  0.18822  0.44278  1.0000
  O   O60       1.0  0.69364  0.70262  0.3528500000000001  1.0000
  O   O61       1.0  0.69657  0.7881899999999997  0.9335200000000002  1.0000
  O   O62       1.0  0.55197  0.8121  0.84996  1.0000
  O   O63       1.0  0.66004  0.81227  0.43582  1.0000
  O   O64       1.0  0.55197  0.68789  0.34996  1.0000
  O   O65       1.0  0.53226  0.70925  0.8431700000000002  1.0000
  O   O66       1.0  0.55585  0.68796  0.43108000000000013  1.0000
  O   O67       1.0  0.16517000000000004  0.19289  0.36166000000000004  1.0000
  O   O68       1.0  0.52208  0.70928  0.9234500000000002  1.0000
  O   O69       1.0  0.05703000000000003  0.19029  0.9378000000000002  1.0000
  O   O70       1.0  0.69364  0.79737  0.85285  1.0000
  O   O71       1.0  0.19569000000000006  0.20688  0.8617300000000002  1.0000
  O   O72       1.0  0.03049000000000002  0.20478999999999997  0.43303000000000014  1.0000
  O   O73       1.0  0.05703000000000002  0.30971  0.43780000000000013  1.0000
  O   O74       1.0  0.19832999999999998  0.29034  0.44281  1.0000
  O   O75       1.0  0.46801  0.44798  0.45478  1.0000
  O   O76       1.0  0.19569  0.29311  0.36173  1.0000
  O   O77       1.0  0.66004  0.68772  0.93583  1.0000
  O   O78       1.0  0.46801  0.052009999999999994  0.9547800000000002  1.0000
  O   O79       1.0  0.81179  0.023949999999999996  0.3162  1.0000
  O   O80       1.0  0.19832999999999998  0.20966  0.94281  1.0000
