data_image0
_chemical_formula_structural       Al24H188C336N16O104
_chemical_formula_sum              "Al24 H188 C336 N16 O104"
_cell_length_a       15.78311
_cell_length_b       30.29939
_cell_length_c       40.59922
_cell_angle_alpha    90.0
_cell_angle_beta     90.0
_cell_angle_gamma    90.0

_symmetry_space_group_name_H-M    'P 1'
_symmetry_Int_Tables_number       1

loop_
  _symmetry_equiv_pos_as_xyz
  'x,y,z'

loop_
  _atom_site_type_symbol
  _atom_site_label
  _atom_site_symmetry_multiplicity
  _atom_site_fract_x
  _atom_site_fract_y
  _atom_site_fract_z
  _atom_site_occupancy
  Al  Al1       1.0  0.45873000000000014  0.549  0.41309  1.0000
  Al  Al2       1.0  0.5261  0.52218  0.34626999999999997  1.0000
  Al  Al3       1.0  0.3887700000000001  0.46867  0.37869  1.0000
  Al  Al4       1.0  0.10516000000000003  0.7158300000000002  0.61998  1.0000
  Al  Al5       1.0  0.97274  0.77029  0.6544699999999999  1.0000
  Al  Al6       1.0  0.03219  0.7961800000000001  0.58644  1.0000
  Al  Al7       1.0  0.54127  0.451  0.91309  1.0000
  Al  Al8       1.0  0.4739  0.47782000000000013  0.8462799999999999  1.0000
  Al  Al9       1.0  0.6112300000000003  0.53134  0.87869  1.0000
  Al  Al10      1.0  0.89484  0.2841700000000001  0.11997999999999999  1.0000
  Al  Al11      1.0  0.02726  0.22971000000000005  0.15447  1.0000
  Al  Al12      1.0  0.96781  0.20382000000000006  0.08644  1.0000
  Al  Al13      1.0  0.54127  0.049  0.41309  1.0000
  Al  Al14      1.0  0.4739  0.02218  0.34626999999999997  1.0000
  Al  Al15      1.0  0.6112300000000003  0.9686700000000003  0.37869  1.0000
  Al  Al16      1.0  0.89484  0.21583  0.61998  1.0000
  Al  Al17      1.0  0.02726  0.2702900000000001  0.6544699999999999  1.0000
  Al  Al18      1.0  0.96781  0.29618  0.58644  1.0000
  Al  Al19      1.0  0.45873000000000014  0.9510000000000002  0.91309  1.0000
  Al  Al20      1.0  0.5261  0.97783  0.8462799999999999  1.0000
  Al  Al21      1.0  0.3887700000000001  0.03134000000000001  0.87869  1.0000
  Al  Al22      1.0  0.10516000000000003  0.7841700000000003  0.11997999999999999  1.0000
  Al  Al23      1.0  0.97274  0.72971  0.15447  1.0000
  Al  Al24      1.0  0.03219  0.70382  0.08644  1.0000
  H   H1        1.0  0.4300200000000001  0.4903800000000001  0.50978  1.0000
  H   H2        1.0  0.43819000000000013  0.4411100000000001  0.55942  1.0000
  H   H3        1.0  0.4975400000000001  0.3308800000000001  0.49683999999999995  1.0000
  H   H4        1.0  0.47899  0.37891000000000014  0.44703999999999994  1.0000
  H   H5        1.0  0.29047  0.3058400000000001  0.64177  1.0000
  H   H6        1.0  0.43151  0.32904  0.62138  1.0000
  H   H7        1.0  0.3263700000000001  0.34792  0.52428  1.0000
  H   H8        1.0  0.186  0.32558  0.54497  1.0000
  H   H9        1.0  0.6351  0.24054000000000003  0.59827  1.0000
  H   H10       1.0  0.4950200000000001  0.27344  0.58621  1.0000
  H   H11       1.0  0.61864  0.39127  0.55041  1.0000
  H   H12       1.0  0.75815  0.35718  0.56153  1.0000
  H   H13       1.0  0.02357  0.5958300000000002  0.64217  1.0000
  H   H14       1.0  0.9619200000000002  0.5245900000000001  0.65956  1.0000
  H   H15       1.0  0.81078  0.66501  0.68358  1.0000
  H   H16       1.0  0.94901  0.38008  0.70389  1.0000
  H   H17       1.0  0.8827800000000002  0.4481100000000001  0.72714  1.0000
  H   H18       1.0  0.81321  0.4896500000000001  0.6295099999999999  1.0000
  H   H19       1.0  0.8754200000000002  0.42032  0.60645  1.0000
  H   H20       1.0  0.58849  0.46619  0.75389  1.0000
  H   H21       1.0  0.6744400000000003  0.4681500000000001  0.7022  1.0000
  H   H22       1.0  0.8499  0.55765  0.74797  1.0000
  H   H23       1.0  0.76895  0.55221  0.80066  1.0000
  H   H24       1.0  0.6769200000000002  0.5771800000000002  0.46015999999999996  1.0000
  H   H25       1.0  0.8187600000000003  0.59887  0.4806599999999999  1.0000
  H   H26       1.0  0.92269  0.57715  0.38367  1.0000
  H   H27       1.0  0.78073  0.55467  0.36359  1.0000
  H   H28       1.0  0.07549  0.6273700000000002  0.54721  1.0000
  H   H29       1.0  0.04248000000000001  0.5789100000000003  0.49905999999999995  1.0000
  H   H30       1.0  0.89889  0.68398  0.45478999999999997  1.0000
  H   H31       1.0  0.9350200000000002  0.73308  0.5023999999999998  1.0000
  H   H32       1.0  0.13066000000000005  0.48928  0.4062799999999999  1.0000
  H   H33       1.0  0.98991  0.51906  0.42227999999999993  1.0000
  H   H34       1.0  0.10233  0.6469100000000002  0.43844  1.0000
  H   H35       1.0  0.24338  0.6165500000000003  0.42386999999999997  1.0000
  H   H36       1.0  0.38994  0.67453  0.39186  1.0000
  H   H37       1.0  0.32592  0.74331  0.36879  1.0000
  H   H38       1.0  0.38612000000000013  0.6992000000000003  0.27073  1.0000
  H   H39       1.0  0.45206000000000013  0.63112  0.29391999999999996  1.0000
  H   H40       1.0  0.53323  0.84886  0.35219  1.0000
  H   H41       1.0  0.4726100000000001  0.7777100000000001  0.3338  1.0000
  H   H42       1.0  0.24472  0.8448200000000002  0.30344999999999994  1.0000
  H   H43       1.0  0.3070400000000001  0.91634  0.32127999999999995  1.0000
  H   H44       1.0  0.26457  0.80844  0.1987  1.0000
  H   H45       1.0  0.3496700000000001  0.81208  0.25031  1.0000
  H   H46       1.0  0.18430000000000005  0.7167600000000002  0.29537  1.0000
  H   H47       1.0  0.09624000000000003  0.7149200000000002  0.24430999999999997  1.0000
  H   H48       1.0  0.5699800000000003  0.50962  0.00978  1.0000
  H   H49       1.0  0.5618100000000003  0.5589  0.05942  1.0000
  H   H50       1.0  0.50247  0.6691200000000003  0.99684  1.0000
  H   H51       1.0  0.5210100000000002  0.6210900000000001  0.9470399999999999  1.0000
  H   H52       1.0  0.7095300000000002  0.69416  0.14177  1.0000
  H   H53       1.0  0.56849  0.67097  0.12138  1.0000
  H   H54       1.0  0.6736300000000002  0.6520800000000002  0.02428  1.0000
  H   H55       1.0  0.81401  0.6744200000000002  0.04497  1.0000
  H   H56       1.0  0.3649  0.75947  0.09827  1.0000
  H   H57       1.0  0.50498  0.72656  0.08621  1.0000
  H   H58       1.0  0.38136  0.60873  0.05041  1.0000
  H   H59       1.0  0.24185  0.64282  0.06153  1.0000
  H   H60       1.0  0.97643  0.4041800000000001  0.14217  1.0000
  H   H61       1.0  0.03808  0.47541  0.15954999999999997  1.0000
  H   H62       1.0  0.18922  0.3349900000000001  0.18357  1.0000
  H   H63       1.0  0.05099  0.61992  0.20389  1.0000
  H   H64       1.0  0.11722  0.55189  0.22713999999999998  1.0000
  H   H65       1.0  0.18679  0.51036  0.12951  1.0000
  H   H66       1.0  0.12458000000000002  0.5796800000000002  0.10643999999999998  1.0000
  H   H67       1.0  0.41151  0.53381  0.25389  1.0000
  H   H68       1.0  0.3255600000000001  0.53185  0.20218999999999998  1.0000
  H   H69       1.0  0.1501  0.44235000000000013  0.24796999999999997  1.0000
  H   H70       1.0  0.23105  0.44779000000000013  0.30066  1.0000
  H   H71       1.0  0.32308  0.4228200000000001  0.96016  1.0000
  H   H72       1.0  0.18124000000000007  0.4011300000000001  0.9806599999999999  1.0000
  H   H73       1.0  0.07731000000000002  0.42285  0.8836699999999998  1.0000
  H   H74       1.0  0.21927000000000005  0.4453300000000001  0.8635899999999999  1.0000
  H   H75       1.0  0.9245100000000003  0.37263  0.04721  1.0000
  H   H76       1.0  0.9575200000000003  0.4211000000000001  0.9990599999999998  1.0000
  H   H77       1.0  0.10111  0.31603  0.9547899999999999  1.0000
  H   H78       1.0  0.06498000000000002  0.2669300000000001  0.0024  1.0000
  H   H79       1.0  0.8693400000000002  0.5107200000000002  0.9062799999999999  1.0000
  H   H80       1.0  0.01009  0.4809500000000001  0.92229  1.0000
  H   H81       1.0  0.89767  0.35309  0.93844  1.0000
  H   H82       1.0  0.75662  0.38346  0.9238699999999999  1.0000
  H   H83       1.0  0.61006  0.3254700000000001  0.89186  1.0000
  H   H84       1.0  0.67408  0.25669  0.8687899999999998  1.0000
  H   H85       1.0  0.61388  0.30081  0.77073  1.0000
  H   H86       1.0  0.5479400000000002  0.3688900000000001  0.79392  1.0000
  H   H87       1.0  0.46677  0.15114  0.85219  1.0000
  H   H88       1.0  0.5274  0.2223  0.8337999999999999  1.0000
  H   H89       1.0  0.75528  0.15518000000000007  0.80345  1.0000
  H   H90       1.0  0.69296  0.08367  0.8212799999999999  1.0000
  H   H91       1.0  0.73543  0.19156  0.6987  1.0000
  H   H92       1.0  0.6503300000000002  0.18792  0.7503099999999999  1.0000
  H   H93       1.0  0.8157  0.28325000000000006  0.79537  1.0000
  H   H94       1.0  0.90376  0.28509  0.7443099999999999  1.0000
  H   H95       1.0  0.5699800000000003  0.9903900000000002  0.50978  1.0000
  H   H96       1.0  0.5618100000000003  0.9411100000000002  0.55942  1.0000
  H   H97       1.0  0.50247  0.8308800000000002  0.49683999999999995  1.0000
  H   H98       1.0  0.5210100000000002  0.87892  0.44703999999999994  1.0000
  H   H99       1.0  0.7095300000000002  0.80584  0.64177  1.0000
  H   H100      1.0  0.56849  0.8290400000000002  0.62138  1.0000
  H   H101      1.0  0.6736300000000002  0.84793  0.52428  1.0000
  H   H102      1.0  0.81401  0.8255800000000002  0.54497  1.0000
  H   H103      1.0  0.3649  0.7405400000000002  0.59827  1.0000
  H   H104      1.0  0.50498  0.77344  0.58621  1.0000
  H   H105      1.0  0.38136  0.89127  0.55041  1.0000
  H   H106      1.0  0.24185  0.85718  0.56153  1.0000
  H   H107      1.0  0.97643  0.09583000000000003  0.64217  1.0000
  H   H108      1.0  0.03808  0.024590000000000008  0.65956  1.0000
  H   H109      1.0  0.18922  0.16501  0.68358  1.0000
  H   H110      1.0  0.05099  0.8800800000000002  0.70389  1.0000
  H   H111      1.0  0.11722  0.94811  0.72714  1.0000
  H   H112      1.0  0.18679  0.98965  0.6295099999999999  1.0000
  H   H113      1.0  0.12458000000000002  0.9203200000000002  0.60645  1.0000
  H   H114      1.0  0.41151  0.9661900000000002  0.75389  1.0000
  H   H115      1.0  0.3255600000000001  0.9681500000000001  0.7022  1.0000
  H   H116      1.0  0.1501  0.05765  0.74797  1.0000
  H   H117      1.0  0.23105  0.05221  0.80066  1.0000
  H   H118      1.0  0.32308  0.07718000000000003  0.46015999999999996  1.0000
  H   H119      1.0  0.18124000000000007  0.09887000000000003  0.4806599999999999  1.0000
  H   H120      1.0  0.07731000000000002  0.07715  0.38367  1.0000
  H   H121      1.0  0.21927000000000005  0.05467000000000002  0.36359  1.0000
  H   H122      1.0  0.9245100000000003  0.12737  0.54721  1.0000
  H   H123      1.0  0.9575200000000003  0.07890000000000003  0.49905999999999995  1.0000
  H   H124      1.0  0.10111  0.18397  0.45478999999999997  1.0000
  H   H125      1.0  0.06498000000000002  0.23307000000000003  0.5023999999999998  1.0000
  H   H126      1.0  0.8693400000000002  0.9892800000000003  0.4062799999999999  1.0000
  H   H127      1.0  0.01009  0.01905  0.42227999999999993  1.0000
  H   H128      1.0  0.89767  0.14691  0.43844  1.0000
  H   H129      1.0  0.75662  0.11655  0.42386999999999997  1.0000
  H   H130      1.0  0.61006  0.17453  0.39186  1.0000
  H   H131      1.0  0.67408  0.24331000000000005  0.36879  1.0000
  H   H132      1.0  0.61388  0.19919  0.27073  1.0000
  H   H133      1.0  0.5479400000000002  0.13111  0.29391999999999996  1.0000
  H   H134      1.0  0.46677  0.3488600000000001  0.35219  1.0000
  H   H135      1.0  0.5274  0.2777  0.3338  1.0000
  H   H136      1.0  0.75528  0.3448200000000001  0.30344999999999994  1.0000
  H   H137      1.0  0.69296  0.4163400000000001  0.32127999999999995  1.0000
  H   H138      1.0  0.73543  0.30844  0.1987  1.0000
  H   H139      1.0  0.6503300000000002  0.31208000000000014  0.25031  1.0000
  H   H140      1.0  0.8157  0.21675000000000005  0.29537  1.0000
  H   H141      1.0  0.90376  0.21491  0.24430999999999997  1.0000
  H   H142      1.0  0.4300200000000001  0.00962  0.00978  1.0000
  H   H143      1.0  0.43819000000000013  0.0589  0.05942  1.0000
  H   H144      1.0  0.4975400000000001  0.16912  0.99684  1.0000
  H   H145      1.0  0.47899  0.12109  0.9470399999999999  1.0000
  H   H146      1.0  0.29047  0.19416000000000003  0.14177  1.0000
  H   H147      1.0  0.43151  0.17096  0.12138  1.0000
  H   H148      1.0  0.3263700000000001  0.15208  0.02428  1.0000
  H   H149      1.0  0.186  0.17442000000000005  0.04497  1.0000
  H   H150      1.0  0.6351  0.25947  0.09827  1.0000
  H   H151      1.0  0.4950200000000001  0.22656000000000007  0.08621  1.0000
  H   H152      1.0  0.61864  0.10873  0.05041  1.0000
  H   H153      1.0  0.75815  0.14282000000000006  0.06153  1.0000
  H   H154      1.0  0.02357  0.90418  0.14217  1.0000
  H   H155      1.0  0.9619200000000002  0.9754100000000002  0.15954999999999997  1.0000
  H   H156      1.0  0.81078  0.83499  0.18357  1.0000
  H   H157      1.0  0.94901  0.11992  0.20389  1.0000
  H   H158      1.0  0.8827800000000002  0.05189000000000001  0.22713999999999998  1.0000
  H   H159      1.0  0.81321  0.010350000000000003  0.12951  1.0000
  H   H160      1.0  0.8754200000000002  0.07968000000000003  0.10643999999999998  1.0000
  H   H161      1.0  0.58849  0.03381  0.25389  1.0000
  H   H162      1.0  0.6744400000000003  0.03185  0.20218999999999998  1.0000
  H   H163      1.0  0.8499  0.94235  0.24796999999999997  1.0000
  H   H164      1.0  0.76895  0.94779  0.30066  1.0000
  H   H165      1.0  0.6769200000000002  0.9228200000000002  0.96016  1.0000
  H   H166      1.0  0.8187600000000003  0.90113  0.9806599999999999  1.0000
  H   H167      1.0  0.92269  0.9228500000000002  0.8836699999999998  1.0000
  H   H168      1.0  0.78073  0.9453300000000001  0.8635899999999999  1.0000
  H   H169      1.0  0.07549  0.8726300000000002  0.04721  1.0000
  H   H170      1.0  0.04248000000000001  0.9211  0.9990599999999998  1.0000
  H   H171      1.0  0.89889  0.8160300000000003  0.9547899999999999  1.0000
  H   H172      1.0  0.9350200000000002  0.7669300000000002  0.0024  1.0000
  H   H173      1.0  0.13066000000000005  0.010720000000000004  0.9062799999999999  1.0000
  H   H174      1.0  0.98991  0.98095  0.92229  1.0000
  H   H175      1.0  0.10233  0.8530900000000002  0.93844  1.0000
  H   H176      1.0  0.24338  0.88346  0.9238699999999999  1.0000
  H   H177      1.0  0.38994  0.82547  0.89186  1.0000
  H   H178      1.0  0.32592  0.7566900000000001  0.8687899999999998  1.0000
  H   H179      1.0  0.38612000000000013  0.80081  0.77073  1.0000
  H   H180      1.0  0.45206000000000013  0.8688900000000003  0.79392  1.0000
  H   H181      1.0  0.53323  0.65114  0.85219  1.0000
  H   H182      1.0  0.4726100000000001  0.7223000000000002  0.8337999999999999  1.0000
  H   H183      1.0  0.24472  0.6551800000000002  0.80345  1.0000
  H   H184      1.0  0.3070400000000001  0.5836700000000002  0.8212799999999999  1.0000
  H   H185      1.0  0.26457  0.6915700000000002  0.6987  1.0000
  H   H186      1.0  0.3496700000000001  0.6879300000000003  0.7503099999999999  1.0000
  H   H187      1.0  0.18430000000000005  0.78325  0.79537  1.0000
  H   H188      1.0  0.09624000000000003  0.7850900000000001  0.7443099999999999  1.0000
  C   C1        1.0  0.4391  0.4649200000000001  0.44590999999999986  1.0000
  C   C2        1.0  0.4522200000000001  0.4374400000000001  0.47545  1.0000
  C   C3        1.0  0.44335  0.45535  0.50721  1.0000
  C   C4        1.0  0.4485900000000001  0.42804  0.53479  1.0000
  C   C5        1.0  0.46725  0.38312  0.53083  1.0000
  C   C6        1.0  0.48146  0.36564  0.4993  1.0000
  C   C7        1.0  0.47177000000000013  0.3923500000000001  0.4717199999999999  1.0000
  C   C8        1.0  0.14232  0.30291  0.60601  1.0000
  C   C9        1.0  0.22779  0.3146200000000001  0.5949  1.0000
  C   C10       1.0  0.2986800000000001  0.31501  0.61606  1.0000
  C   C11       1.0  0.3779800000000001  0.32781  0.60457  1.0000
  C   C12       1.0  0.38936  0.3401  0.57128  1.0000
  C   C13       1.0  0.31863000000000014  0.33911  0.55003  1.0000
  C   C14       1.0  0.23975  0.32668000000000014  0.56166  1.0000
  C   C15       1.0  0.7898800000000002  0.27744000000000013  0.58643  1.0000
  C   C16       1.0  0.70631  0.29635  0.58022  1.0000
  C   C17       1.0  0.63098  0.27350000000000013  0.58779  1.0000
  C   C18       1.0  0.55238  0.2921  0.58126  1.0000
  C   C19       1.0  0.54662  0.33477  0.56737  1.0000
  C   C20       1.0  0.62212  0.35817  0.56061  1.0000
  C   C21       1.0  0.70019  0.33911  0.56669  1.0000
  C   C22       1.0  0.9620400000000002  0.67639  0.6526  1.0000
  C   C23       1.0  0.9209  0.63511  0.66177  1.0000
  C   C24       1.0  0.96267  0.5950100000000003  0.65459  1.0000
  C   C25       1.0  0.9277200000000002  0.55512  0.6642299999999999  1.0000
  C   C26       1.0  0.84929  0.55506  0.68115  1.0000
  C   C27       1.0  0.8053600000000002  0.59399  0.68846  1.0000
  C   C28       1.0  0.8421000000000002  0.63349  0.67873  1.0000
  C   C29       1.0  0.9579500000000002  0.3565600000000001  0.63992  1.0000
  C   C30       1.0  0.91781  0.39619  0.65363  1.0000
  C   C31       1.0  0.91804  0.4038500000000001  0.68786  1.0000
  C   C32       1.0  0.8812000000000002  0.44169000000000014  0.70079  1.0000
  C   C33       1.0  0.84502  0.4734700000000001  0.67969  1.0000
  C   C34       1.0  0.84267  0.46532000000000007  0.64553  1.0000
  C   C35       1.0  0.8779400000000003  0.42703  0.6327299999999999  1.0000
  C   C36       1.0  0.62361  0.50841  0.8112799999999999  1.0000
  C   C37       1.0  0.67222  0.50963  0.78057  1.0000
  C   C38       1.0  0.6462700000000002  0.48566  0.7526  1.0000
  C   C39       1.0  0.69392  0.4868400000000001  0.7237799999999999  1.0000
  C   C40       1.0  0.76676  0.5135900000000001  0.72177  1.0000
  C   C41       1.0  0.7927000000000002  0.53783  0.7496099999999999  1.0000
  C   C42       1.0  0.74733  0.53499  0.7787599999999999  1.0000
  C   C43       1.0  0.6343900000000002  0.55278  0.3988  1.0000
  C   C44       1.0  0.7188500000000002  0.56467  0.41043  1.0000
  C   C45       1.0  0.73086  0.57753  0.44352  1.0000
  C   C46       1.0  0.81013  0.5896600000000002  0.45499999999999996  1.0000
  C   C47       1.0  0.88057  0.58962  0.43356  1.0000
  C   C48       1.0  0.8689200000000002  0.5768  0.40039  1.0000
  C   C49       1.0  0.78952  0.56435  0.38915  1.0000
  C   C50       1.0  0.03541  0.7125000000000002  0.5545599999999999  1.0000
  C   C51       1.0  0.00945  0.68362  0.52731  1.0000
  C   C52       1.0  0.037870000000000015  0.63955  0.52673  1.0000
  C   C53       1.0  0.01879  0.61256  0.5002  1.0000
  C   C54       1.0  0.9702100000000002  0.6288300000000002  0.47385999999999995  1.0000
  C   C55       1.0  0.9374700000000002  0.67193  0.47508  1.0000
  C   C56       1.0  0.95761  0.6992000000000003  0.50155  1.0000
  C   C57       1.0  0.28187  0.53298  0.40962  1.0000
  C   C58       1.0  0.1971  0.5505100000000003  0.41512999999999994  1.0000
  C   C59       1.0  0.12406000000000003  0.52373  0.4133299999999999  1.0000
  C   C60       1.0  0.04523  0.54041  0.42207999999999996  1.0000
  C   C61       1.0  0.03717  0.5847600000000002  0.43217  1.0000
  C   C62       1.0  0.1091  0.6123900000000002  0.43166999999999994  1.0000
  C   C63       1.0  0.18774  0.5954400000000002  0.42371999999999993  1.0000
  C   C64       1.0  0.46458  0.60882  0.35834  1.0000
  C   C65       1.0  0.42682  0.6488900000000002  0.34447  1.0000
  C   C66       1.0  0.38968  0.68056  0.36547  1.0000
  C   C67       1.0  0.3535500000000001  0.71859  0.35262999999999994  1.0000
  C   C68       1.0  0.35297  0.72574  0.31836  1.0000
  C   C69       1.0  0.3872000000000001  0.69356  0.29718  1.0000
  C   C70       1.0  0.4241000000000001  0.65571  0.31011  1.0000
  C   C71       1.0  0.46472  0.9291300000000002  0.34732  1.0000
  C   C72       1.0  0.4248  0.8875400000000002  0.33764999999999995  1.0000
  C   C73       1.0  0.4700100000000001  0.84773  0.34164  1.0000
  C   C74       1.0  0.43607  0.8079000000000002  0.3314  1.0000
  C   C75       1.0  0.3548  0.8064000000000002  0.31696  1.0000
  C   C76       1.0  0.3080700000000001  0.84595  0.31391  1.0000
  C   C77       1.0  0.3429200000000001  0.8858800000000002  0.32381  1.0000
  C   C78       1.0  0.12293  0.7606700000000002  0.18777  1.0000
  C   C79       1.0  0.17398  0.76184  0.21814999999999998  1.0000
  C   C80       1.0  0.24634  0.78904  0.22007  1.0000
  C   C81       1.0  0.29412  0.7909600000000002  0.24876  1.0000
  C   C82       1.0  0.27183  0.7649500000000002  0.27616  1.0000
  C   C83       1.0  0.20082000000000005  0.73699  0.27419  1.0000
  C   C84       1.0  0.15204  0.73586  0.24568  1.0000
  C   C85       1.0  0.5609  0.5350900000000002  0.94591  1.0000
  C   C86       1.0  0.54778  0.5625600000000002  0.97545  1.0000
  C   C87       1.0  0.55665  0.5446600000000001  0.007209999999999999  1.0000
  C   C88       1.0  0.55141  0.5719600000000002  0.03477999999999999  1.0000
  C   C89       1.0  0.53276  0.61688  0.030829999999999996  1.0000
  C   C90       1.0  0.51854  0.6343600000000003  0.9993  1.0000
  C   C91       1.0  0.52823  0.60766  0.97172  1.0000
  C   C92       1.0  0.85768  0.69709  0.10601  1.0000
  C   C93       1.0  0.77221  0.6853800000000002  0.0949  1.0000
  C   C94       1.0  0.7013200000000003  0.6849900000000002  0.11606  1.0000
  C   C95       1.0  0.62202  0.6721900000000002  0.10457  1.0000
  C   C96       1.0  0.61064  0.6599  0.07128  1.0000
  C   C97       1.0  0.6813700000000003  0.66089  0.05003  1.0000
  C   C98       1.0  0.76025  0.6733300000000002  0.06165999999999999  1.0000
  C   C99       1.0  0.21012000000000006  0.72256  0.08643  1.0000
  C   C100      1.0  0.29369  0.70366  0.08022  1.0000
  C   C101      1.0  0.3690200000000001  0.7265100000000002  0.08779  1.0000
  C   C102      1.0  0.44762  0.7079000000000002  0.08126  1.0000
  C   C103      1.0  0.45338  0.66523  0.06737  1.0000
  C   C104      1.0  0.37788  0.6418300000000002  0.06060999999999999  1.0000
  C   C105      1.0  0.29981  0.66089  0.06669  1.0000
  C   C106      1.0  0.03796  0.32362  0.1526  1.0000
  C   C107      1.0  0.07910000000000003  0.36489  0.16177  1.0000
  C   C108      1.0  0.037330000000000016  0.4049900000000001  0.15459  1.0000
  C   C109      1.0  0.07229  0.44488000000000005  0.16422999999999996  1.0000
  C   C110      1.0  0.15071  0.44495  0.18115  1.0000
  C   C111      1.0  0.19464  0.40602  0.18845999999999996  1.0000
  C   C112      1.0  0.15790000000000007  0.3665200000000001  0.17872999999999997  1.0000
  C   C113      1.0  0.04205000000000001  0.6434500000000002  0.13991  1.0000
  C   C114      1.0  0.08219  0.60381  0.15363  1.0000
  C   C115      1.0  0.08196000000000003  0.5961500000000002  0.18786  1.0000
  C   C116      1.0  0.1188  0.55831  0.20079  1.0000
  C   C117      1.0  0.15499  0.52653  0.17969  1.0000
  C   C118      1.0  0.15733  0.5346800000000003  0.14553  1.0000
  C   C119      1.0  0.12206  0.57297  0.13273  1.0000
  C   C120      1.0  0.3763900000000001  0.4915900000000001  0.31127  1.0000
  C   C121      1.0  0.32778  0.4903800000000001  0.28056999999999993  1.0000
  C   C122      1.0  0.3537300000000001  0.51435  0.2526  1.0000
  C   C123      1.0  0.30608  0.51316  0.22377999999999998  1.0000
  C   C124      1.0  0.23325000000000007  0.48641  0.22177  1.0000
  C   C125      1.0  0.2073  0.46217  0.24959999999999993  1.0000
  C   C126      1.0  0.25267  0.4650100000000001  0.27876  1.0000
  C   C127      1.0  0.36561  0.4472200000000001  0.8988  1.0000
  C   C128      1.0  0.28116  0.43534  0.91043  1.0000
  C   C129      1.0  0.26914  0.42247000000000007  0.94352  1.0000
  C   C130      1.0  0.18987  0.4103400000000001  0.955  1.0000
  C   C131      1.0  0.11943000000000002  0.41039  0.93356  1.0000
  C   C132      1.0  0.13108000000000006  0.4232  0.9003899999999999  1.0000
  C   C133      1.0  0.21048  0.43566  0.8891499999999999  1.0000
  C   C134      1.0  0.9646  0.28751  0.054549999999999994  1.0000
  C   C135      1.0  0.9905500000000003  0.31638  0.02731  1.0000
  C   C136      1.0  0.96213  0.36046  0.02673  1.0000
  C   C137      1.0  0.9812100000000002  0.3874400000000001  0.0002  1.0000
  C   C138      1.0  0.02979  0.3711700000000001  0.9738599999999998  1.0000
  C   C139      1.0  0.06253  0.3280700000000001  0.97508  1.0000
  C   C140      1.0  0.04239  0.3008  0.00154  1.0000
  C   C141      1.0  0.71813  0.46702  0.9096199999999999  1.0000
  C   C142      1.0  0.8029000000000002  0.4495000000000001  0.91513  1.0000
  C   C143      1.0  0.8759400000000003  0.47627000000000014  0.9133299999999999  1.0000
  C   C144      1.0  0.95477  0.4595900000000001  0.92208  1.0000
  C   C145      1.0  0.9628300000000002  0.41524  0.93217  1.0000
  C   C146      1.0  0.8909  0.3876100000000001  0.93167  1.0000
  C   C147      1.0  0.8122600000000002  0.40456  0.92372  1.0000
  C   C148      1.0  0.53542  0.39119  0.8583399999999999  1.0000
  C   C149      1.0  0.57318  0.35112  0.84447  1.0000
  C   C150      1.0  0.6103200000000001  0.31944  0.86547  1.0000
  C   C151      1.0  0.64645  0.28142  0.85263  1.0000
  C   C152      1.0  0.6470300000000002  0.27426  0.81836  1.0000
  C   C153      1.0  0.6128100000000002  0.30644  0.79719  1.0000
  C   C154      1.0  0.5759  0.34429  0.8101099999999999  1.0000
  C   C155      1.0  0.5352800000000001  0.07087  0.84732  1.0000
  C   C156      1.0  0.5752  0.11246000000000003  0.83766  1.0000
  C   C157      1.0  0.5299900000000002  0.15227  0.8416399999999999  1.0000
  C   C158      1.0  0.5639300000000003  0.1921  0.8314  1.0000
  C   C159      1.0  0.6452  0.19360000000000005  0.8169599999999999  1.0000
  C   C160      1.0  0.6919300000000003  0.15406000000000003  0.81391  1.0000
  C   C161      1.0  0.65708  0.11412000000000003  0.82381  1.0000
  C   C162      1.0  0.8770700000000002  0.23933000000000004  0.68778  1.0000
  C   C163      1.0  0.82602  0.23817000000000005  0.71815  1.0000
  C   C164      1.0  0.75366  0.21096000000000006  0.72008  1.0000
  C   C165      1.0  0.7058800000000002  0.20905  0.74876  1.0000
  C   C166      1.0  0.72817  0.23505000000000006  0.77616  1.0000
  C   C167      1.0  0.7991800000000002  0.26302  0.77419  1.0000
  C   C168      1.0  0.84796  0.26415  0.74568  1.0000
  C   C169      1.0  0.5609  0.96492  0.44590999999999986  1.0000
  C   C170      1.0  0.54778  0.9374500000000001  0.47545  1.0000
  C   C171      1.0  0.55665  0.9553500000000001  0.50721  1.0000
  C   C172      1.0  0.55141  0.92805  0.53479  1.0000
  C   C173      1.0  0.53276  0.88312  0.53083  1.0000
  C   C174      1.0  0.51854  0.86565  0.4993  1.0000
  C   C175      1.0  0.52823  0.8923500000000002  0.4717199999999999  1.0000
  C   C176      1.0  0.85768  0.80291  0.60601  1.0000
  C   C177      1.0  0.77221  0.81463  0.5949  1.0000
  C   C178      1.0  0.7013200000000003  0.8150100000000002  0.61606  1.0000
  C   C179      1.0  0.62202  0.8278100000000003  0.60457  1.0000
  C   C180      1.0  0.61064  0.8401  0.57128  1.0000
  C   C181      1.0  0.6813700000000003  0.8391100000000001  0.55003  1.0000
  C   C182      1.0  0.76025  0.82668  0.56166  1.0000
  C   C183      1.0  0.21012000000000006  0.77744  0.58643  1.0000
  C   C184      1.0  0.29369  0.79635  0.58022  1.0000
  C   C185      1.0  0.3690200000000001  0.7735  0.58779  1.0000
  C   C186      1.0  0.44762  0.7921000000000002  0.58126  1.0000
  C   C187      1.0  0.45338  0.83477  0.56737  1.0000
  C   C188      1.0  0.37788  0.8581700000000002  0.56061  1.0000
  C   C189      1.0  0.29981  0.8391100000000001  0.56669  1.0000
  C   C190      1.0  0.03796  0.17639000000000005  0.6526  1.0000
  C   C191      1.0  0.07910000000000003  0.13511000000000006  0.66177  1.0000
  C   C192      1.0  0.037330000000000016  0.09501000000000002  0.65459  1.0000
  C   C193      1.0  0.07229  0.055120000000000016  0.6642299999999999  1.0000
  C   C194      1.0  0.15071  0.05506000000000001  0.68115  1.0000
  C   C195      1.0  0.19464  0.09399000000000003  0.68846  1.0000
  C   C196      1.0  0.15790000000000007  0.13348  0.67873  1.0000
  C   C197      1.0  0.04205000000000001  0.85656  0.63992  1.0000
  C   C198      1.0  0.08219  0.89619  0.65363  1.0000
  C   C199      1.0  0.08196000000000003  0.90386  0.68786  1.0000
  C   C200      1.0  0.1188  0.9417000000000002  0.70079  1.0000
  C   C201      1.0  0.15499  0.9734700000000002  0.67969  1.0000
  C   C202      1.0  0.15733  0.9653200000000002  0.64553  1.0000
  C   C203      1.0  0.12206  0.9270300000000002  0.6327299999999999  1.0000
  C   C204      1.0  0.3763900000000001  0.00841  0.8112799999999999  1.0000
  C   C205      1.0  0.32778  0.00963  0.78057  1.0000
  C   C206      1.0  0.3537300000000001  0.9856600000000002  0.7526  1.0000
  C   C207      1.0  0.30608  0.9868400000000003  0.7237799999999999  1.0000
  C   C208      1.0  0.23325000000000007  0.013590000000000003  0.72177  1.0000
  C   C209      1.0  0.2073  0.037830000000000016  0.7496099999999999  1.0000
  C   C210      1.0  0.25267  0.03499  0.7787599999999999  1.0000
  C   C211      1.0  0.36561  0.052780000000000014  0.3988  1.0000
  C   C212      1.0  0.28116  0.06467  0.41043  1.0000
  C   C213      1.0  0.26914  0.07753000000000003  0.44352  1.0000
  C   C214      1.0  0.18987  0.08966000000000003  0.45499999999999996  1.0000
  C   C215      1.0  0.11943000000000002  0.08961000000000001  0.43356  1.0000
  C   C216      1.0  0.13108000000000006  0.0768  0.40039  1.0000
  C   C217      1.0  0.21048  0.06435  0.38915  1.0000
  C   C218      1.0  0.9646  0.2125  0.5545599999999999  1.0000
  C   C219      1.0  0.9905500000000003  0.18362000000000006  0.52731  1.0000
  C   C220      1.0  0.96213  0.13955  0.52673  1.0000
  C   C221      1.0  0.9812100000000002  0.11256000000000002  0.5002  1.0000
  C   C222      1.0  0.02979  0.12883000000000006  0.47385999999999995  1.0000
  C   C223      1.0  0.06253  0.17193000000000006  0.47508  1.0000
  C   C224      1.0  0.04239  0.1992  0.50155  1.0000
  C   C225      1.0  0.71813  0.03298  0.40962  1.0000
  C   C226      1.0  0.8029000000000002  0.05050000000000001  0.41512999999999994  1.0000
  C   C227      1.0  0.8759400000000003  0.02373  0.4133299999999999  1.0000
  C   C228      1.0  0.95477  0.04041  0.42207999999999996  1.0000
  C   C229      1.0  0.9628300000000002  0.08476  0.43217  1.0000
  C   C230      1.0  0.8909  0.11239000000000002  0.43166999999999994  1.0000
  C   C231      1.0  0.8122600000000002  0.09544000000000002  0.42371999999999993  1.0000
  C   C232      1.0  0.53542  0.10881  0.35834  1.0000
  C   C233      1.0  0.57318  0.14889000000000005  0.34447  1.0000
  C   C234      1.0  0.6103200000000001  0.18056  0.36547  1.0000
  C   C235      1.0  0.64645  0.21858  0.35262999999999994  1.0000
  C   C236      1.0  0.6470300000000002  0.22574000000000005  0.31836  1.0000
  C   C237      1.0  0.6128100000000002  0.19356000000000007  0.29718  1.0000
  C   C238      1.0  0.5759  0.15571000000000004  0.31011  1.0000
  C   C239      1.0  0.5352800000000001  0.4291300000000001  0.34732  1.0000
  C   C240      1.0  0.5752  0.38754  0.33764999999999995  1.0000
  C   C241      1.0  0.5299900000000002  0.34773  0.34164  1.0000
  C   C242      1.0  0.5639300000000003  0.3079000000000001  0.3314  1.0000
  C   C243      1.0  0.6452  0.3064000000000001  0.31696  1.0000
  C   C244      1.0  0.6919300000000003  0.34595  0.31391  1.0000
  C   C245      1.0  0.65708  0.3858800000000001  0.32381  1.0000
  C   C246      1.0  0.8770700000000002  0.26067  0.18777  1.0000
  C   C247      1.0  0.82602  0.26183  0.21814999999999998  1.0000
  C   C248      1.0  0.75366  0.28904  0.22007  1.0000
  C   C249      1.0  0.7058800000000002  0.29095  0.24876  1.0000
  C   C250      1.0  0.72817  0.26495000000000013  0.27616  1.0000
  C   C251      1.0  0.7991800000000002  0.23699000000000006  0.27419  1.0000
  C   C252      1.0  0.84796  0.23586000000000001  0.24568  1.0000
  C   C253      1.0  0.4391  0.035080000000000014  0.94591  1.0000
  C   C254      1.0  0.4522200000000001  0.06256  0.97545  1.0000
  C   C255      1.0  0.44335  0.04465  0.007209999999999999  1.0000
  C   C256      1.0  0.4485900000000001  0.07196  0.03477999999999999  1.0000
  C   C257      1.0  0.46725  0.11688  0.030829999999999996  1.0000
  C   C258      1.0  0.48146  0.13436000000000003  0.9993  1.0000
  C   C259      1.0  0.47177000000000013  0.10765000000000002  0.97172  1.0000
  C   C260      1.0  0.14232  0.19709000000000004  0.10601  1.0000
  C   C261      1.0  0.22779  0.18538000000000004  0.0949  1.0000
  C   C262      1.0  0.2986800000000001  0.18499  0.11606  1.0000
  C   C263      1.0  0.3779800000000001  0.17219  0.10457  1.0000
  C   C264      1.0  0.38936  0.15990000000000004  0.07128  1.0000
  C   C265      1.0  0.31863000000000014  0.16089  0.05003  1.0000
  C   C266      1.0  0.23975  0.17332000000000006  0.06165999999999999  1.0000
  C   C267      1.0  0.7898800000000002  0.22256  0.08643  1.0000
  C   C268      1.0  0.70631  0.20365000000000005  0.08022  1.0000
  C   C269      1.0  0.63098  0.2265  0.08779  1.0000
  C   C270      1.0  0.55238  0.2079  0.08126  1.0000
  C   C271      1.0  0.54662  0.16523000000000004  0.06737  1.0000
  C   C272      1.0  0.62212  0.14183000000000004  0.06060999999999999  1.0000
  C   C273      1.0  0.70019  0.16089  0.06669  1.0000
  C   C274      1.0  0.9620400000000002  0.8236200000000002  0.1526  1.0000
  C   C275      1.0  0.9209  0.8648900000000002  0.16177  1.0000
  C   C276      1.0  0.96267  0.9049900000000002  0.15459  1.0000
  C   C277      1.0  0.9277200000000002  0.94488  0.16422999999999996  1.0000
  C   C278      1.0  0.84929  0.94495  0.18115  1.0000
  C   C279      1.0  0.8053600000000002  0.9060200000000002  0.18845999999999996  1.0000
  C   C280      1.0  0.8421000000000002  0.8665200000000002  0.17872999999999997  1.0000
  C   C281      1.0  0.9579500000000002  0.14344000000000007  0.13991  1.0000
  C   C282      1.0  0.91781  0.10381  0.15363  1.0000
  C   C283      1.0  0.91804  0.09615  0.18786  1.0000
  C   C284      1.0  0.8812000000000002  0.058310000000000015  0.20079  1.0000
  C   C285      1.0  0.84502  0.02653000000000001  0.17969  1.0000
  C   C286      1.0  0.84267  0.034680000000000016  0.14553  1.0000
  C   C287      1.0  0.8779400000000003  0.07297000000000002  0.13273  1.0000
  C   C288      1.0  0.62361  0.99159  0.31127  1.0000
  C   C289      1.0  0.67222  0.99038  0.28056999999999993  1.0000
  C   C290      1.0  0.6462700000000002  0.014350000000000003  0.2526  1.0000
  C   C291      1.0  0.69392  0.01316  0.22377999999999998  1.0000
  C   C292      1.0  0.76676  0.98642  0.22177  1.0000
  C   C293      1.0  0.7927000000000002  0.96217  0.24959999999999993  1.0000
  C   C294      1.0  0.74733  0.9650200000000002  0.27876  1.0000
  C   C295      1.0  0.6343900000000002  0.9472200000000001  0.8988  1.0000
  C   C296      1.0  0.7188500000000002  0.93534  0.91043  1.0000
  C   C297      1.0  0.73086  0.92247  0.94352  1.0000
  C   C298      1.0  0.81013  0.91035  0.955  1.0000
  C   C299      1.0  0.88057  0.9103900000000003  0.93356  1.0000
  C   C300      1.0  0.8689200000000002  0.9232  0.9003899999999999  1.0000
  C   C301      1.0  0.78952  0.93566  0.8891499999999999  1.0000
  C   C302      1.0  0.03541  0.78751  0.054549999999999994  1.0000
  C   C303      1.0  0.00945  0.8163800000000002  0.02731  1.0000
  C   C304      1.0  0.037870000000000015  0.86046  0.02673  1.0000
  C   C305      1.0  0.01879  0.88744  0.0002  1.0000
  C   C306      1.0  0.9702100000000002  0.8711700000000002  0.9738599999999998  1.0000
  C   C307      1.0  0.9374700000000002  0.82807  0.97508  1.0000
  C   C308      1.0  0.95761  0.8008000000000002  0.00154  1.0000
  C   C309      1.0  0.28187  0.96702  0.9096199999999999  1.0000
  C   C310      1.0  0.1971  0.9495  0.91513  1.0000
  C   C311      1.0  0.12406000000000003  0.9762700000000002  0.9133299999999999  1.0000
  C   C312      1.0  0.04523  0.9596000000000002  0.92208  1.0000
  C   C313      1.0  0.03717  0.9152400000000003  0.93217  1.0000
  C   C314      1.0  0.1091  0.8876200000000001  0.93167  1.0000
  C   C315      1.0  0.18774  0.9045600000000003  0.92372  1.0000
  C   C316      1.0  0.46458  0.8911900000000003  0.8583399999999999  1.0000
  C   C317      1.0  0.42682  0.85112  0.84447  1.0000
  C   C318      1.0  0.38968  0.81944  0.86547  1.0000
  C   C319      1.0  0.3535500000000001  0.7814200000000002  0.85263  1.0000
  C   C320      1.0  0.35297  0.77426  0.81836  1.0000
  C   C321      1.0  0.3872000000000001  0.80644  0.79719  1.0000
  C   C322      1.0  0.4241000000000001  0.84429  0.8101099999999999  1.0000
  C   C323      1.0  0.46472  0.5708700000000002  0.84732  1.0000
  C   C324      1.0  0.4248  0.61246  0.83766  1.0000
  C   C325      1.0  0.4700100000000001  0.65227  0.8416399999999999  1.0000
  C   C326      1.0  0.43607  0.6921000000000003  0.8314  1.0000
  C   C327      1.0  0.3548  0.6936000000000002  0.8169599999999999  1.0000
  C   C328      1.0  0.3080700000000001  0.6540600000000002  0.81391  1.0000
  C   C329      1.0  0.3429200000000001  0.6141200000000002  0.82381  1.0000
  C   C330      1.0  0.12293  0.7393300000000003  0.68778  1.0000
  C   C331      1.0  0.17398  0.7381700000000002  0.71815  1.0000
  C   C332      1.0  0.24634  0.71096  0.72008  1.0000
  C   C333      1.0  0.29412  0.70905  0.74876  1.0000
  C   C334      1.0  0.27183  0.7350500000000002  0.77616  1.0000
  C   C335      1.0  0.20082000000000005  0.7630200000000001  0.77419  1.0000
  C   C336      1.0  0.15204  0.7641500000000002  0.74568  1.0000
  N   N1        1.0  0.46859  0.35413  0.55892  1.0000
  N   N2        1.0  0.81537  0.51405  0.69242  1.0000
  N   N3        1.0  0.9607800000000002  0.6019  0.44518  1.0000
  N   N4        1.0  0.3213300000000001  0.76612  0.30539  1.0000
  N   N5        1.0  0.53141  0.64587  0.05891999999999999  1.0000
  N   N6        1.0  0.18463  0.4859600000000001  0.19242  1.0000
  N   N7        1.0  0.03922000000000001  0.3981000000000001  0.94519  1.0000
  N   N8        1.0  0.67867  0.23388  0.80539  1.0000
  N   N9        1.0  0.53141  0.85413  0.55892  1.0000
  N   N10       1.0  0.18463  0.014050000000000003  0.69242  1.0000
  N   N11       1.0  0.03922000000000001  0.1019  0.44518  1.0000
  N   N12       1.0  0.67867  0.26612  0.30539  1.0000
  N   N13       1.0  0.46859  0.14587  0.05891999999999999  1.0000
  N   N14       1.0  0.81537  0.9859600000000001  0.19242  1.0000
  N   N15       1.0  0.9607800000000002  0.8981  0.94519  1.0000
  N   N16       1.0  0.3213300000000001  0.7338900000000003  0.80539  1.0000
  O   O1        1.0  0.45445000000000013  0.5066900000000001  0.44781  1.0000
  O   O2        1.0  0.41278  0.4443300000000001  0.41998  1.0000
  O   O3        1.0  0.13031  0.28815  0.63557  1.0000
  O   O4        1.0  0.08235  0.3079800000000001  0.5846  1.0000
  O   O5        1.0  0.7955900000000002  0.24120000000000005  0.6032399999999999  1.0000
  O   O6        1.0  0.85448  0.2989500000000001  0.57492  1.0000
  O   O7        1.0  0.9272500000000002  0.71397  0.66016  1.0000
  O   O8        1.0  0.03362  0.6736500000000002  0.6368199999999999  1.0000
  O   O9        1.0  0.95083  0.3501700000000001  0.6085  1.0000
  O   O10       1.0  0.9967200000000003  0.33032  0.6599999999999999  1.0000
  O   O11       1.0  0.659  0.52531  0.8372499999999999  1.0000
  O   O12       1.0  0.54891  0.4908000000000001  0.8114399999999999  1.0000
  O   O13       1.0  0.57304  0.55571  0.4201  1.0000
  O   O14       1.0  0.6249  0.53991  0.36859  1.0000
  O   O15       1.0  0.07929  0.6946000000000002  0.5779  1.0000
  O   O16       1.0  0.01313  0.75358  0.55345  1.0000
  O   O17       1.0  0.34448  0.55811  0.41854  1.0000
  O   O18       1.0  0.29115  0.4942300000000001  0.39651999999999993  1.0000
  O   O19       1.0  0.45826  0.60272  0.38979  1.0000
  O   O20       1.0  0.5005  0.5814  0.33821  1.0000
  O   O21       1.0  0.05021000000000001  0.74107  0.18864  1.0000
  O   O22       1.0  0.15459  0.7790500000000002  0.16182999999999997  1.0000
  O   O23       1.0  0.53785  0.9263100000000002  0.3615399999999999  1.0000
  O   O24       1.0  0.42578  0.96608  0.34140999999999994  1.0000
  O   O25       1.0  0.45856000000000013  0.5131900000000003  0.37965  1.0000
  O   O26       1.0  0.03737  0.7612  0.62029  1.0000
  O   O27       1.0  0.5455500000000002  0.4933200000000001  0.9478099999999999  1.0000
  O   O28       1.0  0.58722  0.55567  0.9199799999999999  1.0000
  O   O29       1.0  0.8697000000000001  0.71185  0.13556  1.0000
  O   O30       1.0  0.91765  0.69202  0.0846  1.0000
  O   O31       1.0  0.20441000000000006  0.7588000000000003  0.10323999999999998  1.0000
  O   O32       1.0  0.14552  0.70106  0.07492  1.0000
  O   O33       1.0  0.07275  0.28603  0.16016  1.0000
  O   O34       1.0  0.9663800000000002  0.3263500000000001  0.13681  1.0000
  O   O35       1.0  0.04917  0.6498300000000002  0.10849  1.0000
  O   O36       1.0  0.00329  0.6696900000000002  0.16  1.0000
  O   O37       1.0  0.341  0.4747000000000001  0.33724999999999994  1.0000
  O   O38       1.0  0.45109  0.5092  0.31144  1.0000
  O   O39       1.0  0.4269600000000001  0.44429  0.9201  1.0000
  O   O40       1.0  0.3751  0.4601000000000001  0.8685899999999999  1.0000
  O   O41       1.0  0.9207100000000003  0.3054  0.0779  1.0000
  O   O42       1.0  0.9868800000000002  0.24643000000000007  0.05345  1.0000
  O   O43       1.0  0.65552  0.4419  0.9185399999999999  1.0000
  O   O44       1.0  0.70885  0.50577  0.89652  1.0000
  O   O45       1.0  0.54174  0.39728000000000013  0.88979  1.0000
  O   O46       1.0  0.4995000000000001  0.4186  0.83822  1.0000
  O   O47       1.0  0.9497900000000002  0.25894  0.68864  1.0000
  O   O48       1.0  0.84541  0.22096  0.66183  1.0000
  O   O49       1.0  0.46215  0.07369000000000003  0.8615399999999999  1.0000
  O   O50       1.0  0.57422  0.03392000000000001  0.84142  1.0000
  O   O51       1.0  0.5414400000000003  0.48681  0.8796499999999999  1.0000
  O   O52       1.0  0.96263  0.2388  0.12029  1.0000
  O   O53       1.0  0.5455500000000002  0.0066900000000000015  0.44781  1.0000
  O   O54       1.0  0.58722  0.94433  0.41998  1.0000
  O   O55       1.0  0.8697000000000001  0.78815  0.63557  1.0000
  O   O56       1.0  0.91765  0.8079900000000002  0.5846  1.0000
  O   O57       1.0  0.20441000000000006  0.7412000000000002  0.6032399999999999  1.0000
  O   O58       1.0  0.14552  0.7989500000000003  0.57492  1.0000
  O   O59       1.0  0.07275  0.21397  0.66016  1.0000
  O   O60       1.0  0.9663800000000002  0.17365000000000005  0.6368199999999999  1.0000
  O   O61       1.0  0.04917  0.8501700000000002  0.6085  1.0000
  O   O62       1.0  0.00329  0.8303200000000001  0.6599999999999999  1.0000
  O   O63       1.0  0.341  0.0253  0.8372499999999999  1.0000
  O   O64       1.0  0.45109  0.9908000000000002  0.8114399999999999  1.0000
  O   O65       1.0  0.4269600000000001  0.05571  0.4201  1.0000
  O   O66       1.0  0.3751  0.039900000000000005  0.36859  1.0000
  O   O67       1.0  0.9207100000000003  0.1946  0.5779  1.0000
  O   O68       1.0  0.9868800000000002  0.25358  0.55345  1.0000
  O   O69       1.0  0.65552  0.0581  0.41854  1.0000
  O   O70       1.0  0.70885  0.99423  0.39651999999999993  1.0000
  O   O71       1.0  0.54174  0.10272  0.38979  1.0000
  O   O72       1.0  0.4995000000000001  0.0814  0.33821  1.0000
  O   O73       1.0  0.9497900000000002  0.24106  0.18864  1.0000
  O   O74       1.0  0.84541  0.27904  0.16182999999999997  1.0000
  O   O75       1.0  0.46215  0.42631  0.3615399999999999  1.0000
  O   O76       1.0  0.57422  0.4660800000000001  0.34140999999999994  1.0000
  O   O77       1.0  0.5414400000000003  0.013190000000000004  0.37965  1.0000
  O   O78       1.0  0.96263  0.2612  0.62029  1.0000
  O   O79       1.0  0.45445000000000013  0.99332  0.9478099999999999  1.0000
  O   O80       1.0  0.41278  0.05567  0.9199799999999999  1.0000
  O   O81       1.0  0.13031  0.21185  0.13556  1.0000
  O   O82       1.0  0.08235  0.19202  0.0846  1.0000
  O   O83       1.0  0.7955900000000002  0.2588  0.10323999999999998  1.0000
  O   O84       1.0  0.85448  0.20105  0.07492  1.0000
  O   O85       1.0  0.9272500000000002  0.78603  0.16016  1.0000
  O   O86       1.0  0.03362  0.8263500000000003  0.13681  1.0000
  O   O87       1.0  0.95083  0.14983  0.10849  1.0000
  O   O88       1.0  0.9967200000000003  0.16968  0.16  1.0000
  O   O89       1.0  0.659  0.9747000000000002  0.33724999999999994  1.0000
  O   O90       1.0  0.54891  0.0092  0.31144  1.0000
  O   O91       1.0  0.57304  0.94429  0.9201  1.0000
  O   O92       1.0  0.6249  0.9601000000000002  0.8685899999999999  1.0000
  O   O93       1.0  0.07929  0.8054000000000002  0.0779  1.0000
  O   O94       1.0  0.01313  0.74643  0.05345  1.0000
  O   O95       1.0  0.34448  0.9419  0.9185399999999999  1.0000
  O   O96       1.0  0.29115  0.005770000000000002  0.89652  1.0000
  O   O97       1.0  0.45826  0.8972900000000003  0.88979  1.0000
  O   O98       1.0  0.5005  0.9186100000000003  0.83822  1.0000
  O   O99       1.0  0.05021000000000001  0.7589400000000002  0.68864  1.0000
  O   O100      1.0  0.15459  0.72096  0.66183  1.0000
  O   O101      1.0  0.53785  0.5736900000000003  0.8615399999999999  1.0000
  O   O102      1.0  0.42578  0.53392  0.84142  1.0000
  O   O103      1.0  0.45856000000000013  0.9868200000000003  0.8796499999999999  1.0000
  O   O104      1.0  0.03737  0.7388100000000002  0.12029  1.0000
