data_image0
_chemical_formula_structural       Cd8Ni8H268C240N16O48
_chemical_formula_sum              "Cd8 Ni8 H268 C240 N16 O48"
_cell_length_a       14.46541
_cell_length_b       21.44677
_cell_length_c       31.34748
_cell_angle_alpha    85.74434
_cell_angle_beta     77.53164
_cell_angle_gamma    70.11858

_symmetry_space_group_name_H-M    'P 1'
_symmetry_Int_Tables_number       1

loop_
  _symmetry_equiv_pos_as_xyz
  'x,y,z'

loop_
  _atom_site_type_symbol
  _atom_site_label
  _atom_site_symmetry_multiplicity
  _atom_site_fract_x
  _atom_site_fract_y
  _atom_site_fract_z
  _atom_site_occupancy
  Cd  Cd1       1.0  0.66969  0.65793  0.50004  1.0000
  Cd  Cd2       1.0  0.48791  0.5579299999999999  0.5043  1.0000
  Cd  Cd3       1.0  0.94197  0.11763  0.9999400000000002  1.0000
  Cd  Cd4       1.0  0.75402  0.4903599999999999  0.4996700000000001  1.0000
  Cd  Cd5       1.0  0.95185  0.55743  0.4950500000000001  1.0000
  Cd  Cd6       1.0  0.02492000000000007  0.9493099999999999  0.0005700000000000002  1.0000
  Cd  Cd7       1.0  0.20877999999999985  0.04797  0.9944300000000003  1.0000
  Cd  Cd8       1.0  0.74446  0.04905999999999999  0.00531  1.0000
  Ni  Ni1       1.0  0.47683  0.70479  0.7694000000000001  1.0000
  Ni  Ni2       1.0  0.8825899999999999  0.89562  0.26736000000000004  1.0000
  Ni  Ni3       1.0  0.69756  0.39202  0.77507  1.0000
  Ni  Ni4       1.0  0.9101199999999999  0.3894699999999999  0.22493  1.0000
  Ni  Ni5       1.0  0.9935399999999999  0.21293999999999996  0.7243300000000003  1.0000
  Ni  Ni6       1.0  0.7945099999999999  0.21068999999999996  0.27626  1.0000
  Ni  Ni7       1.0  0.818  0.70484  0.23093000000000005  1.0000
  Ni  Ni8       1.0  0.21901000000000007  0.8941899999999998  0.7331100000000003  1.0000
  H   H1        1.0  0.42505  0.7460899999999998  0.24642000000000006  1.0000
  H   H2        1.0  0.3159899999999998  0.67042  0.6637900000000002  1.0000
  H   H3        1.0  0.013530000000000054  0.6697099999999998  0.3366500000000001  1.0000
  H   H4        1.0  0.7076699999999997  0.80977  0.33222  1.0000
  H   H5        1.0  0.18803999999999996  0.77338  0.3477500000000001  1.0000
  H   H6        1.0  0.42478999999999983  0.31743  0.9621400000000002  1.0000
  H   H7        1.0  0.8680899999999997  0.11645  0.73789  1.0000
  H   H8        1.0  0.31858999999999993  0.26553  0.7388400000000003  1.0000
  H   H9        1.0  0.42246999999999996  0.10484  0.7961700000000003  1.0000
  H   H10       1.0  0.21293  0.43148  0.09992  1.0000
  H   H11       1.0  0.89468  0.23883999999999997  0.10622000000000002  1.0000
  H   H12       1.0  0.7259800000000001  0.99652  0.80818  1.0000
  H   H13       1.0  0.06575999999999999  0.9493899999999997  0.3854400000000001  1.0000
  H   H14       1.0  0.1691099999999999  0.34765  0.24879000000000007  1.0000
  H   H15       1.0  0.30932  0.45968999999999993  0.2606400000000001  1.0000
  H   H16       1.0  0.07714999999999994  0.98803  0.8929  1.0000
  H   H17       1.0  0.59069  0.7760399999999998  0.9539700000000002  1.0000
  H   H18       1.0  0.23494999999999994  0.34477  0.2912300000000001  1.0000
  H   H19       1.0  0.1406800000000001  0.7091999999999999  0.17847  1.0000
  H   H20       1.0  0.6434899999999997  0.00267  0.18422000000000005  1.0000
  H   H21       1.0  0.22905999999999985  0.46038999999999997  0.7399200000000002  1.0000
  H   H22       1.0  0.12777999999999998  0.26525  0.22259000000000007  1.0000
  H   H23       1.0  0.20535999999999993  0.11656999999999998  0.24339000000000005  1.0000
  H   H24       1.0  0.27477  0.9959  0.19223000000000007  1.0000
  H   H25       1.0  0.21522999999999998  0.97572  0.13587  1.0000
  H   H26       1.0  0.8138600000000001  0.7580799999999999  0.69792  1.0000
  H   H27       1.0  0.4545399999999997  0.42133999999999994  0.9269900000000001  1.0000
  H   H28       1.0  0.04051  0.8484099999999999  0.45684000000000013  1.0000
  H   H29       1.0  0.9607599999999998  0.9589999999999999  0.72016  1.0000
  H   H30       1.0  0.3435599999999998  0.9788999999999998  0.7400500000000002  1.0000
  H   H31       1.0  0.70041  0.4875  0.6156000000000003  1.0000
  H   H32       1.0  0.7230000000000003  0.64269  0.7834300000000002  1.0000
  H   H33       1.0  0.3758099999999997  0.25603  0.4372700000000001  1.0000
  H   H34       1.0  0.27404000000000006  0.83767  0.25142  1.0000
  H   H35       1.0  0.43442999999999987  0.46181999999999995  0.79188  1.0000
  H   H36       1.0  0.60554  0.5706199999999999  0.23645000000000005  1.0000
  H   H37       1.0  0.8249699999999999  0.57057  0.7632000000000001  1.0000
  H   H38       1.0  0.8303399999999999  0.74559  0.7529500000000002  1.0000
  H   H39       1.0  0.59605  0.67173  0.9182600000000002  1.0000
  H   H40       1.0  0.15570999999999993  0.83848  0.24333000000000005  1.0000
  H   H41       1.0  0.007319999999999911  0.77354  0.15930000000000005  1.0000
  H   H42       1.0  0.27742  0.26373  0.15474000000000004  1.0000
  H   H43       1.0  0.0152  0.47117  0.77405  1.0000
  H   H44       1.0  0.94763  0.7513399999999999  0.2807900000000001  1.0000
  H   H45       1.0  0.3509299999999999  0.0021999999999999993  0.8150800000000002  1.0000
  H   H46       1.0  0.46618  0.64829  0.65863  1.0000
  H   H47       1.0  0.4234800000000001  0.25359  0.9292400000000002  1.0000
  H   H48       1.0  0.7509  0.7546  0.39265  1.0000
  H   H49       1.0  0.20123  0.9522699999999998  0.2848700000000001  1.0000
  H   H50       1.0  0.47339000000000003  0.10521999999999998  0.20388000000000006  1.0000
  H   H51       1.0  0.004740000000000042  0.7557199999999998  0.4401500000000001  1.0000
  H   H52       1.0  0.70419  0.20496999999999999  0.6872500000000002  1.0000
  H   H53       1.0  0.10795  0.1078  0.18852000000000002  1.0000
  H   H54       1.0  0.51466  0.4705  0.22523000000000007  1.0000
  H   H55       1.0  0.7895999999999997  0.29702  0.6590200000000003  1.0000
  H   H56       1.0  0.21894999999999992  0.97475  0.8373200000000002  1.0000
  H   H57       1.0  0.21628999999999987  0.22902999999999998  0.2557700000000001  1.0000
  H   H58       1.0  0.9819200000000002  0.9423799999999998  0.35353  1.0000
  H   H59       1.0  0.8464699999999997  0.02125  0.7437600000000002  1.0000
  H   H60       1.0  0.4554099999999998  0.9042999999999999  0.26346000000000014  1.0000
  H   H61       1.0  0.7519200000000001  0.75961  0.8422900000000002  1.0000
  H   H62       1.0  0.5677299999999997  0.8298  0.7030400000000002  1.0000
  H   H63       1.0  0.0035699999999998715  0.83903  0.7571800000000002  1.0000
  H   H64       1.0  0.4162  0.2655  0.26141  1.0000
  H   H65       1.0  0.63509  0.64269  0.21638  1.0000
  H   H66       1.0  0.9044100000000003  0.49305  0.70915  1.0000
  H   H67       1.0  0.22385999999999998  0.4700399999999999  0.20034000000000005  1.0000
  H   H68       1.0  0.06905999999999991  0.60686  0.29633  1.0000
  H   H69       1.0  0.09449999999999992  0.43134  0.13094000000000006  1.0000
  H   H70       1.0  0.14909999999999993  0.7699799999999999  0.7804800000000001  1.0000
  H   H71       1.0  0.9186199999999997  0.34728  0.7219700000000001  1.0000
  H   H72       1.0  0.53321  0.75611  0.25889  1.0000
  H   H73       1.0  0.23598999999999992  0.7570599999999997  0.5596600000000003  1.0000
  H   H74       1.0  0.27859000000000006  0.33716999999999997  0.56336  1.0000
  H   H75       1.0  0.46149000000000007  0.27128  0.4644900000000001  1.0000
  H   H76       1.0  0.48934999999999995  0.7593099999999998  0.15780000000000002  1.0000
  H   H77       1.0  0.25787000000000004  0.31671999999999995  0.03786  1.0000
  H   H78       1.0  0.4199799999999999  0.3452  0.7087100000000002  1.0000
  H   H79       1.0  0.81045  0.48544999999999994  0.38407000000000013  1.0000
  H   H80       1.0  0.9593099999999999  0.6567  0.67444  1.0000
  H   H81       1.0  0.38302999999999987  0.64201  0.2700100000000001  1.0000
  H   H82       1.0  0.78479  0.10869  0.8116300000000002  1.0000
  H   H83       1.0  0.3058899999999999  0.33851  0.14677  1.0000
  H   H84       1.0  0.58022  0.76033  0.18759000000000006  1.0000
  H   H85       1.0  0.09280999999999999  0.20365  0.31328  1.0000
  H   H86       1.0  0.57042  0.23675  0.9425500000000002  1.0000
  H   H87       1.0  0.9834999999999999  0.86046  0.57327  1.0000
  H   H88       1.0  0.6043399999999999  0.26604999999999995  0.7778900000000002  1.0000
  H   H89       1.0  0.26513999999999993  0.14664  0.7101000000000002  1.0000
  H   H90       1.0  0.38388999999999995  0.33661  0.43641000000000013  1.0000
  H   H91       1.0  0.5416199999999998  0.36632  0.29826  1.0000
  H   H92       1.0  0.6009799999999998  0.83011  0.29642000000000013  1.0000
  H   H93       1.0  0.60334  0.49126  0.29032  1.0000
  H   H94       1.0  0.37802  0.18542  0.8199  1.0000
  H   H95       1.0  0.5578999999999998  0.08335999999999999  0.2682200000000001  1.0000
  H   H96       1.0  0.5713899999999997  0.9156399999999999  0.30731000000000014  1.0000
  H   H97       1.0  0.21870999999999982  0.77432  0.8411500000000002  1.0000
  H   H98       1.0  0.6183800000000003  0.6641099999999998  0.11122000000000003  1.0000
  H   H99       1.0  0.39346000000000003  0.91618  0.82702  1.0000
  H   H100      1.0  0.7534199999999999  0.91556  0.8316500000000002  1.0000
  H   H101      1.0  0.11376999999999994  0.73659  0.29987000000000014  1.0000
  H   H102      1.0  0.26492000000000004  0.5244799999999998  0.70966  1.0000
  H   H103      1.0  0.98092  0.38336  0.8243600000000002  1.0000
  H   H104      1.0  0.3542299999999999  0.43212  0.8999200000000003  1.0000
  H   H105      1.0  0.6379799999999999  0.90426  0.73597  1.0000
  H   H106      1.0  0.45789999999999975  0.8564799999999999  0.9366600000000003  1.0000
  H   H107      1.0  0.03683000000000003  0.2854999999999999  0.2962  1.0000
  H   H108      1.0  0.8433899999999998  0.9532999999999999  0.7156800000000002  1.0000
  H   H109      1.0  0.8069599999999999  0.97679  0.8651900000000002  1.0000
  H   H110      1.0  0.47286999999999985  0.43241  0.86923  1.0000
  H   H111      1.0  0.7335899999999995  0.67174  0.0817  1.0000
  H   H112      1.0  0.4968  0.61192  0.36072  1.0000
  H   H113      1.0  0.61482  0.6190099999999997  0.6070300000000002  1.0000
  H   H114      1.0  0.24103999999999995  0.15456  0.19376000000000004  1.0000
  H   H115      1.0  0.08938999999999994  0.36644  0.7016300000000002  1.0000
  H   H116      1.0  0.45695  0.57873  0.30026  1.0000
  H   H117      1.0  0.6048  0.15419  0.80582  1.0000
  H   H118      1.0  0.8435699999999998  0.4578299999999999  0.7888200000000002  1.0000
  H   H119      1.0  0.46077999999999997  0.15184  0.2959400000000001  1.0000
  H   H120      1.0  0.23102999999999987  0.17311999999999997  0.5791000000000002  1.0000
  H   H121      1.0  0.52102  0.63374  0.21005000000000004  1.0000
  H   H122      1.0  0.15016000000000002  0.70918  0.82214  1.0000
  H   H123      1.0  0.24405999999999994  0.27783  0.7926200000000002  1.0000
  H   H124      1.0  0.8859  0.8382699999999998  0.7493000000000002  1.0000
  H   H125      1.0  0.0912499999999999  0.4481999999999999  0.6953500000000002  1.0000
  H   H126      1.0  0.5230000000000002  0.7646599999999998  0.07747  1.0000
  H   H127      1.0  0.5943299999999998  0.8493199999999999  0.7723700000000002  1.0000
  H   H128      1.0  0.1033299999999999  0.46149  0.20789000000000005  1.0000
  H   H129      1.0  0.6851900000000001  0.85646  0.06349000000000002  1.0000
  H   H130      1.0  0.4813600000000001  0.9843899999999999  0.20559000000000005  1.0000
  H   H131      1.0  0.24631999999999987  0.33885  0.6457900000000002  1.0000
  H   H132      1.0  0.73348  0.34491999999999995  0.27822  1.0000
  H   H133      1.0  0.07798999999999995  0.9583  0.28034  1.0000
  H   H134      1.0  0.32435  0.25302  0.07057  1.0000
  H   H135      1.0  0.94091  0.8533299999999999  0.6534400000000002  1.0000
  H   H136      1.0  0.9816899999999996  0.95084  0.61557  1.0000
  H   H137      1.0  0.5067099999999998  0.27045  0.32288  1.0000
  H   H138      1.0  0.10723999999999997  0.84965  0.5439200000000002  1.0000
  H   H139      1.0  0.50059  0.1643  0.39625  1.0000
  H   H140      1.0  0.41463  0.33847  0.35403  1.0000
  H   H141      1.0  0.19474  0.23570999999999998  0.05752000000000001  1.0000
  H   H142      1.0  0.10656999999999985  0.94387  0.5893500000000003  1.0000
  H   H143      1.0  0.42841  0.75821  0.30153  1.0000
  H   H144      1.0  0.3341199999999999  0.16464999999999994  0.60393  1.0000
  H   H145      1.0  0.6169300000000003  0.8417999999999999  0.9211300000000001  1.0000
  H   H146      1.0  0.39763000000000004  0.25999999999999995  0.35681  1.0000
  H   H147      1.0  0.03477999999999989  0.77425  0.6532300000000002  1.0000
  H   H148      1.0  0.7112800000000001  0.7566099999999998  0.7408800000000002  1.0000
  H   H149      1.0  0.3832899999999999  0.6570699999999999  0.3247600000000001  1.0000
  H   H150      1.0  0.14019999999999982  0.77922  0.4305000000000001  1.0000
  H   H151      1.0  0.8076299999999998  0.36261  0.39658  1.0000
  H   H152      1.0  0.8044699999999998  0.9741599999999998  0.16202  1.0000
  H   H153      1.0  0.63564  0.3814099999999999  0.17549000000000006  1.0000
  H   H154      1.0  0.11605999999999997  0.53319  0.22758000000000006  1.0000
  H   H155      1.0  0.47150999999999993  0.34027  0.8211500000000003  1.0000
  H   H156      1.0  0.47536000000000006  0.40030999999999994  0.23094000000000006  1.0000
  H   H157      1.0  0.14835  0.6570099999999999  0.6916000000000002  1.0000
  H   H158      1.0  0.78657  0.31465999999999994  0.15759000000000006  1.0000
  H   H159      1.0  0.12736999999999993  0.36168999999999996  0.5542700000000003  1.0000
  H   H160      1.0  0.26681  0.27188  0.53532  1.0000
  H   H161      1.0  0.9759399999999999  0.6415899999999999  0.7290800000000002  1.0000
  H   H162      1.0  0.6169099999999998  0.42992  0.33189  1.0000
  H   H163      1.0  0.5095000000000001  0.36153  0.4450800000000001  1.0000
  H   H164      1.0  0.7129699999999999  0.66298  0.13962  1.0000
  H   H165      1.0  0.49133999999999994  0.7555499999999998  0.6073900000000002  1.0000
  H   H166      1.0  0.12316000000000006  0.42045999999999994  0.07319  1.0000
  H   H167      1.0  0.7657099999999999  0.61799  0.39329  1.0000
  H   H168      1.0  0.28836999999999996  0.35847  0.23619000000000004  1.0000
  H   H169      1.0  0.15378000000000006  0.85839  0.42731000000000013  1.0000
  H   H170      1.0  0.5413999999999998  0.26621  0.25205  1.0000
  H   H171      1.0  0.21736  0.6263399999999999  0.23134000000000005  1.0000
  H   H172      1.0  0.93436  0.98767  0.10671000000000003  1.0000
  H   H173      1.0  0.4594500000000001  0.44871  0.304  1.0000
  H   H174      1.0  0.35896  0.08338  0.73233  1.0000
  H   H175      1.0  0.5540499999999998  0.22953  0.7441900000000002  1.0000
  H   H176      1.0  0.032990000000000026  0.8397799999999999  0.6856400000000001  1.0000
  H   H177      1.0  0.32433999999999985  0.6077  0.7043400000000002  1.0000
  H   H178      1.0  0.42558  0.8330999999999998  0.76429  1.0000
  H   H179      1.0  0.6882199999999999  0.9165099999999998  0.17266000000000006  1.0000
  H   H180      1.0  0.9942899999999999  0.1144  0.88295  1.0000
  H   H181      1.0  0.053799999999999966  0.6990399999999999  0.7668000000000001  1.0000
  H   H182      1.0  0.7403699999999999  0.83386  0.23567000000000005  1.0000
  H   H183      1.0  0.37892  0.17210999999999999  0.23418000000000005  1.0000
  H   H184      1.0  0.10788  0.49437999999999993  0.35095  1.0000
  H   H185      1.0  0.54117  0.8419899999999998  0.07923000000000002  1.0000
  H   H186      1.0  0.2466700000000001  0.6991999999999999  0.23395000000000005  1.0000
  H   H187      1.0  0.8463799999999995  0.6335099999999999  0.7895100000000003  1.0000
  H   H188      1.0  0.34226999999999996  0.26028  0.6428900000000002  1.0000
  H   H189      1.0  0.12448000000000004  0.8389599999999999  0.31509  1.0000
  H   H190      1.0  0.30538  0.4701399999999999  0.7997800000000003  1.0000
  H   H191      1.0  0.8928  0.11378999999999997  0.11733000000000003  1.0000
  H   H192      1.0  0.9508799999999998  0.43144  0.6679100000000002  1.0000
  H   H193      1.0  0.71875  0.66421  0.8887100000000002  1.0000
  H   H194      1.0  0.9141  0.82528  0.8024400000000003  1.0000
  H   H195      1.0  0.06600999999999999  0.19527  0.18205000000000005  1.0000
  H   H196      1.0  0.01825  0.11387  0.26243  1.0000
  H   H197      1.0  0.14819999999999994  0.7370399999999999  0.7006500000000002  1.0000
  H   H198      1.0  0.34076999999999996  0.33141  0.06686000000000003  1.0000
  H   H199      1.0  0.32759  0.33186  0.9327700000000002  1.0000
  H   H200      1.0  0.8909800000000001  0.61177  0.6389300000000002  1.0000
  H   H201      1.0  0.3676199999999999  0.25655  0.5626900000000002  1.0000
  H   H202      1.0  0.2038899999999999  0.8473099999999999  0.8928900000000002  1.0000
  H   H203      1.0  0.3943799999999999  0.49504  0.64891  1.0000
  H   H204      1.0  0.43711000000000005  0.18601999999999996  0.18028  1.0000
  H   H205      1.0  0.67262  0.9799299999999999  0.25964  1.0000
  H   H206      1.0  0.73701  0.19597  0.8187900000000001  1.0000
  H   H207      1.0  0.6520300000000002  0.8344099999999999  0.8382000000000002  1.0000
  H   H208      1.0  0.47980000000000006  0.81009  0.66717  1.0000
  H   H209      1.0  0.04409000000000009  0.6369599999999997  0.21679  1.0000
  H   H210      1.0  0.25941999999999993  0.82468  0.1982  1.0000
  H   H211      1.0  0.6136300000000002  0.17020999999999994  0.3629000000000001  1.0000
  H   H212      1.0  0.44984999999999997  0.17173  0.76591  1.0000
  H   H213      1.0  0.22277999999999987  0.27075  0.6769800000000002  1.0000
  H   H214      1.0  0.19259999999999997  0.26646  0.74816  1.0000
  H   H215      1.0  0.94896  0.8467099999999999  0.10732000000000003  1.0000
  H   H216      1.0  0.51391  0.83411  0.16184000000000007  1.0000
  H   H217      1.0  0.1573899999999999  0.62656  0.7692600000000003  1.0000
  H   H218      1.0  0.94725  0.9435199999999999  0.4116500000000001  1.0000
  H   H219      1.0  0.29494  0.4459699999999999  0.6850600000000002  1.0000
  H   H220      1.0  0.6802399999999998  0.11765999999999999  0.7560800000000002  1.0000
  H   H221      1.0  0.32898000000000005  0.91499  0.16887  1.0000
  H   H222      1.0  0.6751399999999999  0.28728  0.7042300000000002  1.0000
  H   H223      1.0  0.34048  0.92803  0.22227000000000005  1.0000
  H   H224      1.0  0.12995999999999994  0.02041  0.25678  1.0000
  H   H225      1.0  0.88573  0.64723  0.3416000000000001  1.0000
  H   H226      1.0  0.59588  0.17212  0.42086  1.0000
  H   H227      1.0  0.47828000000000004  0.27785  0.20760000000000006  1.0000
  H   H228      1.0  0.5314  0.9839899999999999  0.79395  1.0000
  H   H229      1.0  0.12339000000000004  0.39982  0.76855  1.0000
  H   H230      1.0  0.82771  0.36452  0.6037900000000003  1.0000
  H   H231      1.0  0.8666799999999999  0.24148999999999998  0.8941500000000002  1.0000
  H   H232      1.0  0.9026899999999994  0.12964  0.8285200000000003  1.0000
  H   H233      1.0  0.6531499999999997  0.32476999999999995  0.21963000000000005  1.0000
  H   H234      1.0  0.63359  0.7764599999999999  0.04613  1.0000
  H   H235      1.0  0.3191200000000001  0.6377  0.78336  1.0000
  H   H236      1.0  0.69882  0.45523  0.21102000000000007  1.0000
  H   H237      1.0  0.8971599999999995  0.31759  0.8425200000000003  1.0000
  H   H238      1.0  0.8036499999999996  0.45481999999999995  0.66498  1.0000
  H   H239      1.0  0.2909999999999999  0.12498999999999998  0.8535400000000002  1.0000
  H   H240      1.0  0.3874099999999998  0.15158  0.7041500000000003  1.0000
  H   H241      1.0  0.58801  0.14650999999999997  0.2905300000000001  1.0000
  H   H242      1.0  0.6600299999999998  0.7607099999999999  0.8124700000000002  1.0000
  H   H243      1.0  0.2994  0.75228  0.71946  1.0000
  H   H244      1.0  0.9142899999999999  0.29404  0.34199  1.0000
  H   H245      1.0  0.01895999999999989  0.32635999999999993  0.7805200000000002  1.0000
  H   H246      1.0  0.3548199999999999  0.33970999999999996  0.8535200000000002  1.0000
  H   H247      1.0  0.9696799999999995  0.12703  0.17234000000000005  1.0000
  H   H248      1.0  0.71294  0.7644699999999999  0.9226700000000002  1.0000
  H   H249      1.0  0.07582000000000004  0.7807899999999998  0.5700900000000001  1.0000
  H   H250      1.0  0.07318999999999994  0.9422499999999999  0.6474500000000002  1.0000
  H   H251      1.0  0.25703  0.44533  0.3154  1.0000
  H   H252      1.0  0.9644900000000001  0.5784299999999999  0.6992000000000003  1.0000
  H   H253      1.0  0.5548599999999999  0.8494299999999998  0.22717000000000007  1.0000
  H   H254      1.0  0.5103800000000001  0.9152899999999998  0.6922800000000002  1.0000
  H   H255      1.0  0.58449  0.12633  0.14626000000000006  1.0000
  H   H256      1.0  0.45865999999999996  0.26494  0.8452300000000003  1.0000
  H   H257      1.0  0.19454  0.6567999999999999  0.3091200000000001  1.0000
  H   H258      1.0  0.07954000000000003  0.76943  0.22040000000000007  1.0000
  H   H259      1.0  0.35268999999999967  0.35865  0.7637300000000002  1.0000
  H   H260      1.0  0.62516  0.6632899999999999  0.8603700000000002  1.0000
  H   H261      1.0  0.20273000000000002  0.8522699999999999  0.3474800000000001  1.0000
  H   H262      1.0  0.20871999999999993  0.52392  0.29065  1.0000
  H   H263      1.0  0.7287299999999999  0.9286  0.7782300000000002  1.0000
  H   H264      1.0  0.3488499999999996  0.53348  0.7723900000000002  1.0000
  H   H265      1.0  0.4827000000000001  0.3481699999999999  0.7511600000000002  1.0000
  H   H266      1.0  0.18857999999999997  0.33885  0.17888  1.0000
  H   H267      1.0  0.21467999999999998  0.17125999999999997  0.63711  1.0000
  H   H268      1.0  0.7410299999999997  0.4525  0.33489000000000013  1.0000
  C   C1        1.0  0.9583800000000001  0.49254999999999993  0.3718400000000001  1.0000
  C   C2        1.0  0.65667  0.6615799999999997  0.7038300000000002  1.0000
  C   C3        1.0  0.11694  0.30195999999999995  0.11179000000000003  1.0000
  C   C4        1.0  0.9839000000000001  0.3792199999999999  0.7893100000000002  1.0000
  C   C5        1.0  0.23869999999999994  0.47015999999999997  0.28488000000000013  1.0000
  C   C6        1.0  0.8155500000000001  0.5944499999999999  0.5738  1.0000
  C   C7        1.0  0.8460299999999997  0.32809999999999995  0.16679000000000005  1.0000
  C   C8        1.0  0.66287  0.15953  0.7781300000000002  1.0000
  C   C9        1.0  0.14880999999999997  0.8269799999999999  0.3463000000000001  1.0000
  C   C10       1.0  0.49910999999999983  0.65948  0.6841200000000002  1.0000
  C   C11       1.0  0.48882  0.25099  0.23837000000000005  1.0000
  C   C12       1.0  0.39780000000000004  0.82905  0.67546  1.0000
  C   C13       1.0  0.22180000000000002  0.13288  0.84238  1.0000
  C   C14       1.0  0.08818999999999996  0.15504  0.20551000000000005  1.0000
  C   C15       1.0  0.56921  0.89437  0.7525100000000002  1.0000
  C   C16       1.0  0.89198  0.45359999999999995  0.31853000000000004  1.0000
  C   C17       1.0  0.7174399999999996  0.62589  0.3697100000000001  1.0000
  C   C18       1.0  0.04884999999999993  0.41734999999999994  0.7135400000000002  1.0000
  C   C19       1.0  0.6379099999999998  0.4799499999999999  0.63924  1.0000
  C   C20       1.0  0.26051999999999975  0.25105  0.7618500000000002  1.0000
  C   C21       1.0  0.58867  0.29705  0.38987  1.0000
  C   C22       1.0  0.13633999999999974  0.67913  0.7596100000000002  1.0000
  C   C23       1.0  0.5190400000000001  0.8775499999999998  0.7182  1.0000
  C   C24       1.0  0.7583299999999998  0.6148  0.61821  1.0000
  C   C25       1.0  0.06461999999999998  0.23344999999999994  0.28554  1.0000
  C   C26       1.0  0.5582399999999997  0.18793  0.3930700000000001  1.0000
  C   C27       1.0  0.32439999999999986  0.85893  0.9170300000000002  1.0000
  C   C28       1.0  0.54552  0.95064  0.21757000000000007  1.0000
  C   C29       1.0  0.4102999999999999  0.77108  0.61079  1.0000
  C   C30       1.0  0.25274000000000013  0.18874  0.60694  1.0000
  C   C31       1.0  0.4306899999999999  0.63245  0.2943000000000001  1.0000
  C   C32       1.0  0.2875299999999999  0.28415  0.56456  1.0000
  C   C33       1.0  0.3477899999999999  0.7894  0.8555200000000002  1.0000
  C   C34       1.0  0.0762499999999999  0.34478999999999993  0.5792300000000002  1.0000
  C   C35       1.0  0.5183999999999999  0.6587299999999999  0.2765100000000001  1.0000
  C   C36       1.0  0.5659399999999998  0.62321  0.35021000000000013  1.0000
  C   C37       1.0  0.58095  0.30307  0.88817  1.0000
  C   C38       1.0  0.10000999999999996  0.8324499999999999  0.4275100000000001  1.0000
  C   C39       1.0  0.7482399999999998  0.09338999999999999  0.08326000000000001  1.0000
  C   C40       1.0  0.2920999999999999  0.66127  0.6987400000000002  1.0000
  C   C41       1.0  0.8385600000000001  0.9064599999999998  0.04901000000000001  1.0000
  C   C42       1.0  0.9998800000000001  0.16135  0.24408000000000005  1.0000
  C   C43       1.0  0.9327999999999997  0.9470099999999998  0.8113200000000003  1.0000
  C   C44       1.0  0.7924499999999997  0.73458  0.7291000000000002  1.0000
  C   C45       1.0  0.8802299999999997  0.0064  0.9274100000000002  1.0000
  C   C46       1.0  0.059649999999999974  0.18034  0.046390000000000015  1.0000
  C   C47       1.0  0.4750899999999999  0.45779  0.7005000000000002  1.0000
  C   C48       1.0  0.7762999999999999  0.76867  0.15015000000000006  1.0000
  C   C49       1.0  0.29142999999999974  0.69093  0.7754200000000002  1.0000
  C   C50       1.0  0.46575999999999984  0.48280999999999996  0.65899  1.0000
  C   C51       1.0  0.03820000000000001  0.9386099999999999  0.79755  1.0000
  C   C52       1.0  0.65163  0.45535999999999993  0.6811000000000003  1.0000
  C   C53       1.0  0.2999399999999997  0.7619  0.8302900000000002  1.0000
  C   C54       1.0  0.19973000000000005  0.33280999999999994  0.10858000000000002  1.0000
  C   C55       1.0  0.9234100000000001  0.8529599999999999  0.77181  1.0000
  C   C56       1.0  0.8156599999999998  0.7707199999999997  0.3893200000000001  1.0000
  C   C57       1.0  0.017940000000000053  0.6901099999999999  0.22497000000000006  1.0000
  C   C58       1.0  0.8768  0.9284699999999999  0.7806800000000003  1.0000
  C   C59       1.0  0.8580899999999996  0.69943  0.45266000000000006  1.0000
  C   C60       1.0  0.7698500000000001  0.8294099999999999  0.3246300000000001  1.0000
  C   C61       1.0  0.2848699999999997  0.83321  0.8889400000000002  1.0000
  C   C62       1.0  0.36835  0.47958  0.7769200000000003  1.0000
  C   C63       1.0  0.7229300000000001  0.23103  0.92011  1.0000
  C   C64       1.0  0.6716599999999997  0.7803499999999998  0.84136  1.0000
  C   C65       1.0  0.87879  0.40513  0.7793500000000002  1.0000
  C   C66       1.0  0.44066  0.70129  0.5467700000000002  1.0000
  C   C67       1.0  0.8106199999999998  0.14789  0.18250000000000005  1.0000
  C   C68       1.0  0.020369999999999926  0.82783  0.6545100000000001  1.0000
  C   C69       1.0  0.061029999999999855  0.92655  0.6172400000000002  1.0000
  C   C70       1.0  0.63635  0.37745999999999996  0.21059  1.0000
  C   C71       1.0  0.6082599999999998  0.76187  0.8833500000000002  1.0000
  C   C72       1.0  0.07883000000000008  0.9830999999999998  0.11662000000000003  1.0000
  C   C73       1.0  0.40827999999999987  0.30718  0.9312900000000002  1.0000
  C   C74       1.0  0.8531799999999999  0.95467  0.18553000000000006  1.0000
  C   C75       1.0  0.6771799999999997  0.68532  0.11217000000000003  1.0000
  C   C76       1.0  0.87877  0.7479  0.41874  1.0000
  C   C77       1.0  0.04170000000000007  0.14913999999999997  0.8179  1.0000
  C   C78       1.0  0.04829999999999997  0.22945  0.07988000000000003  1.0000
  C   C79       1.0  0.8083300000000001  0.4404  0.30902  1.0000
  C   C80       1.0  0.6045499999999998  0.64854  0.6730900000000002  1.0000
  C   C81       1.0  0.52806  0.17532  0.23026000000000005  1.0000
  C   C82       1.0  0.41596  0.8742499999999999  0.74036  1.0000
  C   C83       1.0  0.39560999999999996  0.95325  0.8005800000000002  1.0000
  C   C84       1.0  0.11381999999999995  0.00604  0.07266  1.0000
  C   C85       1.0  0.5797299999999997  0.7881  0.07748000000000002  1.0000
  C   C86       1.0  0.8989899999999997  0.14819999999999997  0.19557000000000005  1.0000
  C   C87       1.0  0.5888499999999999  0.5944599999999999  0.4261800000000001  1.0000
  C   C88       1.0  0.14279999999999995  0.96898  0.14714000000000005  1.0000
  C   C89       1.0  0.7138299999999999  0.7903899999999999  0.11787000000000003  1.0000
  C   C90       1.0  0.7172499999999998  0.3978  0.26926  1.0000
  C   C91       1.0  0.14692000000000005  0.96702  0.26322  1.0000
  C   C92       1.0  0.6310999999999998  0.15715999999999994  0.19930000000000006  1.0000
  C   C93       1.0  0.9487599999999998  0.51689  0.4158400000000001  1.0000
  C   C94       1.0  0.2888999999999999  0.47073  0.7154700000000002  1.0000
  C   C95       1.0  0.4736199999999998  0.73458  0.2704600000000001  1.0000
  C   C96       1.0  0.7082599999999998  0.9395  0.23543000000000006  1.0000
  C   C97       1.0  0.3703  0.7484699999999997  0.58124  1.0000
  C   C98       1.0  0.67877  0.2788399999999999  0.3562400000000001  1.0000
  C   C99       1.0  0.5012899999999999  0.9503599999999999  0.7818200000000002  1.0000
  C   C100      1.0  0.682  0.6611199999999998  0.29617  1.0000
  C   C101      1.0  0.9714999999999997  0.69797  0.27364  1.0000
  C   C102      1.0  0.7153  0.16636  0.21252000000000004  1.0000
  C   C103      1.0  0.06542999999999997  0.45718  0.29911  1.0000
  C   C104      1.0  0.21249000000000007  0.15724  0.80077  1.0000
  C   C105      1.0  0.13811000000000015  0.6844999999999999  0.29  1.0000
  C   C106      1.0  0.70738  0.8750799999999999  0.25950000000000006  1.0000
  C   C107      1.0  0.24534  0.31744  0.14988  1.0000
  C   C108      1.0  0.02563  0.323  0.14483  1.0000
  C   C109      1.0  0.9433799999999994  0.43972999999999995  0.7028700000000002  1.0000
  C   C110      1.0  0.9798099999999996  0.81725  0.3834200000000001  1.0000
  C   C111      1.0  0.03798999999999991  0.97623  0.8702900000000002  1.0000
  C   C112      1.0  0.92224  0.8334199999999999  0.34915  1.0000
  C   C113      1.0  0.9522999999999998  0.15035  0.8051600000000002  1.0000
  C   C114      1.0  0.63261  0.7879299999999999  0.9226500000000002  1.0000
  C   C115      1.0  0.6385699999999997  0.68551  0.8878000000000003  1.0000
  C   C116      1.0  0.26101999999999986  0.28513  0.6457500000000003  1.0000
  C   C117      1.0  0.88185  0.8329899999999999  0.11124000000000003  1.0000
  C   C118      1.0  0.04106000000000001  0.28084999999999993  0.64422  1.0000
  C   C119      1.0  0.43666999999999995  0.31862  0.8501600000000002  1.0000
  C   C120      1.0  0.21773999999999996  0.36908  0.26044  1.0000
  C   C121      1.0  0.9731299999999995  0.3712499999999999  0.5776300000000002  1.0000
  C   C122      1.0  0.5739  0.6244999999999999  0.23207000000000005  1.0000
  C   C123      1.0  0.11865999999999986  0.16705999999999993  0.7876900000000002  1.0000
  C   C124      1.0  0.8241499999999998  0.33088  0.8333300000000002  1.0000
  C   C125      1.0  0.15098999999999999  0.22441  0.24548000000000003  1.0000
  C   C126      1.0  0.64609  0.13364  0.15747  1.0000
  C   C127      1.0  0.84151  0.6585799999999998  0.3161400000000001  1.0000
  C   C128      1.0  0.7541899999999999  0.30273  0.8592600000000002  1.0000
  C   C129      1.0  0.8029699999999996  0.21734  0.7248200000000002  1.0000
  C   C130      1.0  0.82062  0.12570999999999996  0.14003  1.0000
  C   C131      1.0  0.42817  0.28356999999999993  0.43530000000000013  1.0000
  C   C132      1.0  0.2851  0.30655999999999994  0.06862  1.0000
  C   C133      1.0  0.10646999999999997  0.7159  0.21345  1.0000
  C   C134      1.0  0.2544199999999998  0.90508  0.9519300000000003  1.0000
  C   C135      1.0  0.9060499999999997  0.34748  0.6066000000000003  1.0000
  C   C136      1.0  0.45389999999999986  0.28473  0.3540800000000001  1.0000
  C   C137      1.0  0.76085  0.30035  0.36053  1.0000
  C   C138      1.0  0.6482499999999999  0.9537499999999999  0.19893  1.0000
  C   C139      1.0  0.1993599999999999  0.8172199999999997  0.6169600000000002  1.0000
  C   C140      1.0  0.45514999999999994  0.7689299999999999  0.8500200000000002  1.0000
  C   C141      1.0  0.8571600000000001  0.27747999999999995  0.33364  1.0000
  C   C142      1.0  0.7469699999999998  0.64783  0.32706000000000013  1.0000
  C   C143      1.0  0.12587000000000007  0.2545799999999999  0.08179  1.0000
  C   C144      1.0  0.8802699999999996  0.47853  0.3603400000000001  1.0000
  C   C145      1.0  0.15118000000000006  0.47931999999999997  0.22302000000000005  1.0000
  C   C146      1.0  0.17696000000000003  0.7163799999999999  0.7871700000000001  1.0000
  C   C147      1.0  0.9445799999999996  0.30062  0.1409  1.0000
  C   C148      1.0  0.7648199999999998  0.9434299999999998  0.8012700000000003  1.0000
  C   C149      1.0  0.17670999999999984  0.68496  0.7106000000000002  1.0000
  C   C150      1.0  0.2406300000000001  0.8329599999999998  0.65132  1.0000
  C   C151      1.0  0.5349  0.13695  0.27394000000000013  1.0000
  C   C152      1.0  0.04690999999999997  0.66048  0.3017500000000001  1.0000
  C   C153      1.0  0.50819  0.26423  0.3928000000000001  1.0000
  C   C154      1.0  0.4297  0.8368799999999998  0.91312  1.0000
  C   C155      1.0  0.60104  0.87801  0.28134  1.0000
  C   C156      1.0  0.22670999999999986  0.26501  0.6071000000000002  1.0000
  C   C157      1.0  0.4959799999999997  0.7906599999999999  0.8822000000000002  1.0000
  C   C158      1.0  0.6557600000000005  0.62657  0.63044  1.0000
  C   C159      1.0  0.17869000000000002  0.15881999999999996  0.22183000000000005  1.0000
  C   C160      1.0  0.8231899999999998  0.65879  0.7231300000000003  1.0000
  C   C161      1.0  0.6165099999999997  0.43813  0.29686000000000007  1.0000
  C   C162      1.0  0.7160899999999999  0.40257  0.22060000000000005  1.0000
  C   C163      1.0  0.28946  0.94282  0.19923000000000005  1.0000
  C   C164      1.0  0.08756000000000005  0.8502899999999999  0.61561  1.0000
  C   C165      1.0  0.6263299999999999  0.61457  0.3818100000000001  1.0000
  C   C166      1.0  0.62  0.25575999999999993  0.9181900000000001  1.0000
  C   C167      1.0  0.9854999999999997  0.44016  0.2874800000000001  1.0000
  C   C168      1.0  0.16664000000000004  0.44460999999999995  0.2672400000000001  1.0000
  C   C169      1.0  0.5334399999999998  0.41894  0.23699000000000006  1.0000
  C   C170      1.0  0.3917799999999999  0.15817  0.7895700000000002  1.0000
  C   C171      1.0  0.5779999999999998  0.34415  0.4204200000000001  1.0000
  C   C172      1.0  0.8862500000000002  0.9694399999999997  0.8533700000000002  1.0000
  C   C173      1.0  0.8362500000000002  0.8121999999999998  0.35451  1.0000
  C   C174      1.0  0.8159200000000001  0.8592099999999999  0.08329  1.0000
  C   C175      1.0  0.8635599999999999  0.28009999999999996  0.6673300000000002  1.0000
  C   C176      1.0  0.4671299999999999  0.3337  0.8914200000000002  1.0000
  C   C177      1.0  0.16160999999999986  0.09215  0.9163300000000002  1.0000
  C   C178      1.0  0.9372199999999999  0.63216  0.7050400000000002  1.0000
  C   C179      1.0  0.1130499999999999  0.29823999999999995  0.6101400000000002  1.0000
  C   C180      1.0  0.62346  0.22537999999999997  0.75479  1.0000
  C   C181      1.0  0.18467999999999993  0.67883  0.24104000000000006  1.0000
  C   C182      1.0  0.04651999999999996  0.4194899999999999  0.7625600000000001  1.0000
  C   C183      1.0  0.9385199999999999  0.76126  0.16990000000000005  1.0000
  C   C184      1.0  0.7883199999999998  0.25675999999999993  0.8914700000000001  1.0000
  C   C185      1.0  0.9374299999999999  0.30256  0.6400400000000003  1.0000
  C   C186      1.0  0.9847099999999998  0.9762599999999998  0.12963000000000005  1.0000
  C   C187      1.0  0.32959  0.69894  0.7267300000000002  1.0000
  C   C188      1.0  0.5487099999999998  0.78003  0.15871000000000005  1.0000
  C   C189      1.0  0.32837999999999984  0.13695  0.7263900000000002  1.0000
  C   C190      1.0  0.4506599999999998  0.1585  0.21056000000000005  1.0000
  C   C191      1.0  0.9538  0.9556999999999998  0.17248000000000005  1.0000
  C   C192      1.0  0.8024399999999998  0.62444  0.7676000000000002  1.0000
  C   C193      1.0  0.7564599999999996  0.15616999999999998  0.79493  1.0000
  C   C194      1.0  0.8821699999999998  0.40026  0.7307400000000002  1.0000
  C   C195      1.0  0.06320999999999997  0.83388  0.57314  1.0000
  C   C196      1.0  0.04899999999999995  0.48233999999999994  0.3405800000000001  1.0000
  C   C197      1.0  0.19018999999999991  0.9541799999999999  0.8142700000000003  1.0000
  C   C198      1.0  0.9806399999999998  0.21466  0.27617000000000014  1.0000
  C   C199      1.0  0.7005799999999996  0.23529999999999998  0.7149900000000002  1.0000
  C   C200      1.0  0.009920000000000036  0.9259699999999998  0.38368  1.0000
  C   C201      1.0  0.43579  0.40966  0.8970900000000003  1.0000
  C   C202      1.0  0.1443099999999998  0.11769  0.8727500000000002  1.0000
  C   C203      1.0  0.8382200000000001  0.16350999999999993  0.75662  1.0000
  C   C204      1.0  0.65447  0.3705499999999999  0.42216  1.0000
  C   C205      1.0  0.54586  0.4931699999999999  0.6275700000000002  1.0000
  C   C206      1.0  0.86321  0.7889099999999999  0.14457  1.0000
  C   C207      1.0  0.08875999999999991  0.9551999999999999  0.8275400000000003  1.0000
  C   C208      1.0  0.4124699999999997  0.36948999999999993  0.7395000000000003  1.0000
  C   C209      1.0  0.58994  0.64591  0.3082700000000001  1.0000
  C   C210      1.0  0.8830399999999993  0.9678299999999999  0.7373200000000002  1.0000
  C   C211      1.0  0.63059  0.7616699999999998  0.11670000000000003  1.0000
  C   C212      1.0  0.7331999999999997  0.8368799999999998  0.08705000000000003  1.0000
  C   C213      1.0  0.34985000000000005  0.9385199999999998  0.76433  1.0000
  C   C214      1.0  0.22193999999999986  0.85238  0.22878000000000007  1.0000
  C   C215      1.0  0.7482899999999997  0.4429  0.69084  1.0000
  C   C216      1.0  0.9351299999999996  0.42275  0.54529  1.0000
  C   C217      1.0  0.38715000000000005  0.44504999999999995  0.7327300000000001  1.0000
  C   C218      1.0  0.9571699999999999  0.25472  0.10866000000000003  1.0000
  C   C219      1.0  0.9592499999999994  0.7725  0.41543000000000013  1.0000
  C   C220      1.0  0.53112  0.5171899999999999  0.58339  1.0000
  C   C221      1.0  0.5326100000000001  0.4169599999999999  0.28609  1.0000
  C   C222      1.0  0.739  0.11851  0.12712  1.0000
  C   C223      1.0  0.57222  0.44104  0.71198  1.0000
  C   C224      1.0  0.29723999999999984  0.17537  0.7699300000000002  1.0000
  C   C225      1.0  0.26490000000000025  0.7730699999999998  0.58458  1.0000
  C   C226      1.0  0.9370399999999997  0.98338  0.88348  1.0000
  C   C227      1.0  0.7605600000000003  0.18167999999999998  0.9535800000000002  1.0000
  C   C228      1.0  0.34801999999999994  0.81191  0.6458600000000001  1.0000
  C   C229      1.0  0.7460799999999997  0.3460699999999999  0.39373000000000014  1.0000
  C   C230      1.0  0.6396899999999999  0.42238999999999993  0.4545500000000001  1.0000
  C   C231      1.0  0.7640299999999999  0.64629  0.6915300000000002  1.0000
  C   C232      1.0  0.65087  0.3242499999999999  0.8551100000000003  1.0000
  C   C233      1.0  0.15421  0.40879999999999994  0.10297  1.0000
  C   C234      1.0  0.11782999999999988  0.9467799999999998  0.18920000000000006  1.0000
  C   C235      1.0  0.19255999999999998  0.9278799999999999  0.21986000000000006  1.0000
  C   C236      1.0  0.53416  0.89458  0.24693000000000007  1.0000
  C   C237      1.0  0.8104499999999997  0.62342  0.6496000000000002  1.0000
  C   C238      1.0  0.020400000000000036  0.9390099999999999  0.20281000000000005  1.0000
  C   C239      1.0  0.05459999999999989  0.12604  0.8601800000000002  1.0000
  C   C240      1.0  0.05891000000000007  0.8496299999999999  0.38507000000000013  1.0000
  N   N1        1.0  0.9323500000000001  0.7219299999999997  0.20328000000000004  1.0000
  N   N2        1.0  0.24895999999999976  0.9320799999999999  0.7768900000000002  1.0000
  N   N3        1.0  0.7782699999999999  0.86461  0.28917  1.0000
  N   N4        1.0  0.3548100000000002  0.86339  0.71117  1.0000
  N   N5        1.0  0.3452200000000001  0.72246  0.7971100000000002  1.0000
  N   N6        1.0  0.8855299999999999  0.23622  0.2989900000000001  1.0000
  N   N7        1.0  0.43968999999999997  0.68221  0.7213900000000002  1.0000
  N   N8        1.0  0.8155400000000002  0.93356  0.22316000000000005  1.0000
  N   N9        1.0  0.8216199999999998  0.36913999999999997  0.19915000000000005  1.0000
  N   N10       1.0  0.8768299999999998  0.23906999999999998  0.7018300000000002  1.0000
  N   N11       1.0  0.7758799999999995  0.4177699999999999  0.7271400000000002  1.0000
  N   N12       1.0  0.8781300000000002  0.6814399999999998  0.27889  1.0000
  N   N13       1.0  0.80618  0.4148299999999999  0.27289  1.0000
  N   N14       1.0  0.9270399999999996  0.17260999999999999  0.7679300000000001  1.0000
  N   N15       1.0  0.9018399999999999  0.17013  0.23279000000000005  1.0000
  N   N16       1.0  0.80654  0.3721  0.8010200000000002  1.0000
  O   O1        1.0  0.2481399999999999  0.08205999999999998  0.9249600000000002  1.0000
  O   O2        1.0  0.5072099999999999  0.58129  0.43314000000000014  1.0000
  O   O3        1.0  0.40904999999999986  0.6721  0.5224300000000002  1.0000
  O   O4        1.0  0.8559999999999999  0.16605  0.9522000000000003  1.0000
  O   O5        1.0  0.8393399999999999  0.43926999999999994  0.5472900000000003  1.0000
  O   O6        1.0  0.63673  0.58998  0.4577900000000001  1.0000
  O   O7        1.0  0.7005399999999999  0.15872999999999998  0.9802000000000002  1.0000
  O   O8        1.0  0.9215099999999999  0.6693  0.47579  1.0000
  O   O9        1.0  0.017590000000000033  0.36208999999999997  0.17663000000000006  1.0000
  O   O10       1.0  0.02366000000000003  0.52837  0.42498000000000014  1.0000
  O   O11       1.0  0.6195199999999997  0.3627499999999999  0.8230000000000002  1.0000
  O   O12       1.0  0.2866799999999999  0.93766  0.9736700000000003  1.0000
  O   O13       1.0  0.8334899999999997  0.07819  0.055770000000000014  1.0000
  O   O14       1.0  0.9252199999999999  0.015289999999999996  0.9572000000000003  1.0000
  O   O15       1.0  0.9949499999999998  0.44678  0.5195300000000003  1.0000
  O   O16       1.0  0.70271  0.19048999999999994  0.25126  1.0000
  O   O17       1.0  0.5147199999999998  0.73078  0.8175000000000002  1.0000
  O   O18       1.0  0.6103799999999997  0.68736  0.74232  1.0000
  O   O19       1.0  0.7188399999999997  0.43865999999999994  0.45281  1.0000
  O   O20       1.0  0.7543499999999999  0.7309  0.18284000000000006  1.0000
  O   O21       1.0  0.8652  0.52807  0.44416  1.0000
  O   O22       1.0  0.55545  0.44665  0.48009000000000013  1.0000
  O   O23       1.0  0.5341099999999995  0.69392  0.54593  1.0000
  O   O24       1.0  0.7741499999999999  0.9383499999999998  0.02667  1.0000
  O   O25       1.0  0.18128999999999973  0.86529  0.6862500000000002  1.0000
  O   O26       1.0  0.60345  0.52848  0.55514  1.0000
  O   O27       1.0  0.07009999999999986  0.24596999999999997  0.6780300000000002  1.0000
  O   O28       1.0  0.97897  0.16603  0.04763000000000001  1.0000
  O   O29       1.0  0.77105  0.59011  0.5426000000000002  1.0000
  O   O30       1.0  0.9491699999999998  0.86552  0.3141  1.0000
  O   O31       1.0  0.9104899999999998  0.5810599999999999  0.5665300000000002  1.0000
  O   O32       1.0  0.10683000000000004  0.1913  0.74893  1.0000
  O   O33       1.0  0.09167999999999997  0.07788  0.94457  1.0000
  O   O34       1.0  0.08369000000000013  0.9162599999999999  0.75822  1.0000
  O   O35       1.0  0.16235999999999973  0.90651  0.9565700000000003  1.0000
  O   O36       1.0  0.6852599999999999  0.24353999999999995  0.32261000000000006  1.0000
  O   O37       1.0  0.58573  0.41247  0.7495500000000003  1.0000
  O   O38       1.0  0.78552  0.018669999999999996  0.93528  1.0000
  O   O39       1.0  0.7723399999999999  0.69141  0.4543100000000001  1.0000
  O   O40       1.0  0.0004899999999999523  0.41234  0.24967000000000006  1.0000
  O   O41       1.0  0.06040999999999998  0.01557  0.04259000000000002  1.0000
  O   O42       1.0  0.19690999999999995  0.01732  0.06490000000000003  1.0000
  O   O43       1.0  0.99619  0.91732  0.24224000000000007  1.0000
  O   O44       1.0  0.67167  0.08463  0.07378000000000003  1.0000
  O   O45       1.0  0.14269000000000004  0.15655999999999998  0.019840000000000007  1.0000
  O   O46       1.0  0.92753  0.9100699999999999  0.04578  1.0000
  O   O47       1.0  0.70241  0.68735  0.2578200000000001  1.0000
  O   O48       1.0  0.44496999999999987  0.52822  0.5738300000000002  1.0000
