data_image0
_chemical_formula_structural       Zn40H272C416N160O64
_chemical_formula_sum              "Zn40 H272 C416 N160 O64"
_cell_length_a       28.43501
_cell_length_b       28.465140000000005
_cell_length_c       28.432200000000005
_cell_angle_alpha    64.28264000000001
_cell_angle_beta     82.37066
_cell_angle_gamma    115.71654000000001

_symmetry_space_group_name_H-M    'P 1'
_symmetry_Int_Tables_number       1

loop_
  _symmetry_equiv_pos_as_xyz
  'x,y,z'

loop_
  _atom_site_type_symbol
  _atom_site_label
  _atom_site_symmetry_multiplicity
  _atom_site_fract_x
  _atom_site_fract_y
  _atom_site_fract_z
  _atom_site_occupancy
  Zn  Zn1       1.0  0.31925  0.7806200000000001  0.28805  1.0000
  Zn  Zn2       1.0  0.27653  0.88865  0.25185  1.0000
  Zn  Zn3       1.0  0.27630000000000005  0.7015700000000001  0.21761  1.0000
  Zn  Zn4       1.0  0.47122  0.8621200000000001  0.2453  1.0000
  Zn  Zn5       1.0  0.25274999999999986  0.66717  0.43846  1.0000
  Zn  Zn6       1.0  0.06898  0.28056  0.03955  1.0000
  Zn  Zn7       1.0  0.14063000000000003  0.3883100000000001  0.8881199999999999  1.0000
  Zn  Zn8       1.0  0.91924  0.20058000000000006  0.07592  1.0000
  Zn  Zn9       1.0  0.10735000000000003  0.36202999999999996  0.10931000000000002  1.0000
  Zn  Zn10      1.0  0.10566  0.16708  0.08579999999999999  1.0000
  Zn  Zn11      1.0  0.93102  0.7194399999999999  0.96045  1.0000
  Zn  Zn12      1.0  0.85937  0.61169  0.11188  1.0000
  Zn  Zn13      1.0  0.08075999999999997  0.79942  0.92408  1.0000
  Zn  Zn14      1.0  0.8926500000000002  0.6379600000000002  0.8906899999999999  1.0000
  Zn  Zn15      1.0  0.8943400000000001  0.8329100000000002  0.9141999999999999  1.0000
  Zn  Zn16      1.0  0.6807499999999999  0.21937  0.71195  1.0000
  Zn  Zn17      1.0  0.72347  0.11135000000000014  0.74815  1.0000
  Zn  Zn18      1.0  0.7237  0.29843000000000003  0.78239  1.0000
  Zn  Zn19      1.0  0.52878  0.13788  0.7547  1.0000
  Zn  Zn20      1.0  0.74725  0.33282999999999996  0.56154  1.0000
  Zn  Zn21      1.0  0.21173  0.8917100000000001  0.56874  1.0000
  Zn  Zn22      1.0  0.24810999999999991  0.97144  0.6406  1.0000
  Zn  Zn23      1.0  0.28268  0.0060000000000000366  0.41917999999999994  1.0000
  Zn  Zn24      1.0  0.25485000000000024  0.7836000000000004  0.60756  1.0000
  Zn  Zn25      1.0  0.06157000000000002  0.8088  0.60545  1.0000
  Zn  Zn26      1.0  0.46024999999999994  0.39158999999999994  0.81991  1.0000
  Zn  Zn27      1.0  0.61193  0.47139  0.7764000000000001  1.0000
  Zn  Zn28      1.0  0.4241200000000001  0.5049700000000003  0.77634  1.0000
  Zn  Zn29      1.0  0.39065000000000005  0.28339  0.9713  1.0000
  Zn  Zn30      1.0  0.41422  0.30871000000000004  0.75271  1.0000
  Zn  Zn31      1.0  0.53975  0.60841  0.18009  1.0000
  Zn  Zn32      1.0  0.38807  0.5286100000000001  0.2236  1.0000
  Zn  Zn33      1.0  0.57588  0.49503  0.22366  1.0000
  Zn  Zn34      1.0  0.60935  0.71661  0.0287  1.0000
  Zn  Zn35      1.0  0.58578  0.69129  0.24729  1.0000
  Zn  Zn36      1.0  0.78827  0.10828000000000003  0.4312599999999999  1.0000
  Zn  Zn37      1.0  0.75189  0.02854999999999998  0.3594  1.0000
  Zn  Zn38      1.0  0.7173200000000002  0.9940000000000004  0.58081  1.0000
  Zn  Zn39      1.0  0.7451500000000003  0.21640000000000004  0.39243999999999996  1.0000
  Zn  Zn40      1.0  0.93843  0.1912  0.39455  1.0000
  H   H1        1.0  0.12135999999999998  0.90894  0.27347  1.0000
  H   H2        1.0  0.27854  0.060590000000000026  0.12926  1.0000
  H   H3        1.0  0.23166  0.11777  0.09276  1.0000
  H   H4        1.0  0.08124000000000006  0.4794700000000001  0.16553  1.0000
  H   H5        1.0  0.24336000000000005  0.5008900000000001  0.1396  1.0000
  H   H6        1.0  0.27566000000000007  0.5839500000000002  0.16106  1.0000
  H   H7        1.0  0.5245999999999997  0.83184  0.34948  1.0000
  H   H8        1.0  0.51938  0.77141  0.44772  1.0000
  H   H9        1.0  0.42731  0.68491  0.52848  1.0000
  H   H10       1.0  0.33592000000000016  0.6531300000000002  0.51516  1.0000
  H   H11       1.0  0.22287000000000012  0.7517800000000002  0.11771  1.0000
  H   H12       1.0  0.18287000000000006  0.812  0.0673  1.0000
  H   H13       1.0  0.17799  0.8867200000000002  0.08643  1.0000
  H   H14       1.0  0.21413000000000013  0.9065600000000003  0.15552  1.0000
  H   H15       1.0  0.37459000000000003  0.6926600000000003  0.14458  1.0000
  H   H16       1.0  0.47212000000000004  0.7183500000000002  0.10135  1.0000
  H   H17       1.0  0.5532  0.7840400000000001  0.11464  1.0000
  H   H18       1.0  0.5420500000000003  0.8286100000000002  0.17092  1.0000
  H   H19       1.0  0.19936000000000015  0.8815000000000002  0.36139999999999994  1.0000
  H   H20       1.0  0.14237000000000005  0.8333  0.46305  1.0000
  H   H21       1.0  0.13092  0.73922  0.54029  1.0000
  H   H22       1.0  0.1769700000000001  0.6883900000000001  0.52045  1.0000
  H   H23       1.0  0.18792999999999996  0.5422199999999999  0.29537  1.0000
  H   H24       1.0  0.1311200000000001  0.43547000000000025  0.38361  1.0000
  H   H25       1.0  0.11871  0.41928000000000004  0.4784  1.0000
  H   H26       1.0  0.16479999999999992  0.5094399999999999  0.48892  1.0000
  H   H27       1.0  0.37929999999999997  0.042950000000000016  0.1834  1.0000
  H   H28       1.0  0.477  0.13616  0.14688  1.0000
  H   H29       1.0  0.5589  0.12574  0.14801  1.0000
  H   H30       1.0  0.54753  0.022789999999999977  0.18543000000000004  1.0000
  H   H31       1.0  0.04852000000000007  0.9894100000000002  0.23447000000000004  1.0000
  H   H32       1.0  0.043429999999999996  0.92198  0.28526  1.0000
  H   H33       1.0  0.12098000000000002  0.59986  0.19701  1.0000
  H   H34       1.0  0.07106  0.55428  0.17975  1.0000
  H   H35       1.0  0.18272  0.40926000000000007  0.7124000000000001  1.0000
  H   H36       1.0  0.18986000000000014  0.5604200000000003  0.71813  1.0000
  H   H37       1.0  0.21013000000000012  0.6175800000000002  0.61403  1.0000
  H   H38       1.0  0.64506  0.9793700000000002  0.10193999999999999  1.0000
  H   H39       1.0  0.63997  0.0006600000000000061  0.24263  1.0000
  H   H40       1.0  0.74479  0.08375  0.19198000000000004  1.0000
  H   H41       1.0  0.18157000000000004  0.3317400000000001  0.19287  1.0000
  H   H42       1.0  0.21944  0.27149  0.24806  1.0000
  H   H43       1.0  0.21358  0.18498  0.24267  1.0000
  H   H44       1.0  0.16832999999999998  0.15308  0.18319  1.0000
  H   H45       1.0  0.86957  0.2518099999999999  0.97161  1.0000
  H   H46       1.0  0.87994  0.31236  0.87121  1.0000
  H   H47       1.0  0.97406  0.38698  0.7916800000000002  1.0000
  H   H48       1.0  0.06274000000000002  0.40635000000000004  0.80826  1.0000
  H   H49       1.0  0.8372200000000001  0.19252000000000002  0.18228  1.0000
  H   H50       1.0  0.81955  0.21843  0.25388  1.0000
  H   H51       1.0  0.89851  0.28434  0.26912  1.0000
  H   H52       1.0  0.9995  0.32887000000000005  0.21352  1.0000
  H   H53       1.0  0.24317  0.38143000000000005  0.81793  1.0000
  H   H54       1.0  0.2963100000000001  0.3330099999999999  0.80908  1.0000
  H   H55       1.0  0.27915  0.23878  0.89183  1.0000
  H   H56       1.0  0.20871  0.18814999999999993  0.98886  1.0000
  H   H57       1.0  0.83746  0.041840000000000016  0.14587  1.0000
  H   H58       1.0  0.8188200000000001  0.9350700000000001  0.1956  1.0000
  H   H59       1.0  0.89741  0.9189400000000001  0.19942  1.0000
  H   H60       1.0  0.9982099999999999  0.00916  0.15566  1.0000
  H   H61       1.0  0.22639000000000004  0.5425100000000002  0.83637  1.0000
  H   H62       1.0  0.28293  0.63608  0.84038  1.0000
  H   H63       1.0  0.27361  0.62596  0.93261  1.0000
  H   H64       1.0  0.20836000000000005  0.5230800000000001  0.0245  1.0000
  H   H65       1.0  0.2237200000000001  0.48955000000000015  0.5591  1.0000
  H   H66       1.0  0.20713999999999996  0.42226  0.62152  1.0000
  H   H67       1.0  0.79714  0.09992  0.02126  1.0000
  H   H68       1.0  0.73434  0.054310000000000004  0.01688  1.0000
  H   H69       1.0  0.8172799999999998  0.5907399999999999  0.2876  1.0000
  H   H70       1.0  0.8101400000000001  0.43958000000000014  0.28187  1.0000
  H   H71       1.0  0.78987  0.38242  0.38597000000000004  1.0000
  H   H72       1.0  0.35494000000000003  0.020630000000000013  0.89806  1.0000
  H   H73       1.0  0.36003  0.9993400000000001  0.75737  1.0000
  H   H74       1.0  0.25521000000000005  0.91625  0.8080199999999998  1.0000
  H   H75       1.0  0.81843  0.66826  0.80713  1.0000
  H   H76       1.0  0.7805599999999999  0.7285100000000001  0.7519400000000002  1.0000
  H   H77       1.0  0.78642  0.81501  0.7573300000000001  1.0000
  H   H78       1.0  0.83167  0.84691  0.81681  1.0000
  H   H79       1.0  0.13043000000000005  0.7481800000000002  0.02839  1.0000
  H   H80       1.0  0.12005999999999997  0.68764  0.12879  1.0000
  H   H81       1.0  0.02594  0.61301  0.20832  1.0000
  H   H82       1.0  0.93726  0.5936499999999999  0.19174  1.0000
  H   H83       1.0  0.16278000000000004  0.8074800000000002  0.81772  1.0000
  H   H84       1.0  0.18045000000000005  0.78157  0.74612  1.0000
  H   H85       1.0  0.1014900000000001  0.7156600000000001  0.7308799999999999  1.0000
  H   H86       1.0  0.0004999999999999831  0.67113  0.7864799999999998  1.0000
  H   H87       1.0  0.7568299999999999  0.61856  0.18207000000000004  1.0000
  H   H88       1.0  0.70369  0.6669900000000002  0.19092  1.0000
  H   H89       1.0  0.72085  0.7612200000000002  0.10817  1.0000
  H   H90       1.0  0.79129  0.81185  0.01114  1.0000
  H   H91       1.0  0.16254000000000013  0.9581500000000003  0.85413  1.0000
  H   H92       1.0  0.18117999999999998  0.06492999999999999  0.8044000000000001  1.0000
  H   H93       1.0  0.10259  0.08105999999999998  0.80058  1.0000
  H   H94       1.0  0.0017899999999999483  0.99083  0.8443400000000001  1.0000
  H   H95       1.0  0.77361  0.4574900000000001  0.16363  1.0000
  H   H96       1.0  0.7170700000000001  0.36392000000000013  0.15962  1.0000
  H   H97       1.0  0.72639  0.37403  0.06739  1.0000
  H   H98       1.0  0.79164  0.4769199999999999  0.9755000000000001  1.0000
  H   H99       1.0  0.77628  0.51045  0.4409  1.0000
  H   H100      1.0  0.79286  0.57773  0.3784799999999999  1.0000
  H   H101      1.0  0.20285999999999998  0.9000800000000001  0.9787400000000002  1.0000
  H   H102      1.0  0.26566  0.94569  0.98311  1.0000
  H   H103      1.0  0.87864  0.09106000000000002  0.72653  1.0000
  H   H104      1.0  0.72146  0.93941  0.87074  1.0000
  H   H105      1.0  0.7683400000000001  0.8822300000000001  0.9072399999999999  1.0000
  H   H106      1.0  0.91876  0.52053  0.83447  1.0000
  H   H107      1.0  0.75664  0.49911  0.8604  1.0000
  H   H108      1.0  0.72434  0.4160499999999999  0.83894  1.0000
  H   H109      1.0  0.4754  0.16815  0.65052  1.0000
  H   H110      1.0  0.48062000000000005  0.22859000000000002  0.55228  1.0000
  H   H111      1.0  0.57269  0.31509000000000004  0.47152  1.0000
  H   H112      1.0  0.66408  0.34687  0.48484  1.0000
  H   H113      1.0  0.77713  0.24821999999999997  0.88229  1.0000
  H   H114      1.0  0.8171300000000001  0.18800000000000006  0.9326999999999999  1.0000
  H   H115      1.0  0.8220100000000001  0.11327000000000004  0.91357  1.0000
  H   H116      1.0  0.78587  0.09343000000000003  0.84448  1.0000
  H   H117      1.0  0.62541  0.30733999999999995  0.85542  1.0000
  H   H118      1.0  0.5278799999999999  0.28165000000000007  0.89865  1.0000
  H   H119      1.0  0.4468  0.21595000000000003  0.88536  1.0000
  H   H120      1.0  0.45794999999999997  0.17138999999999988  0.8290800000000002  1.0000
  H   H121      1.0  0.80064  0.11850000000000004  0.6386  1.0000
  H   H122      1.0  0.85763  0.16670000000000004  0.53695  1.0000
  H   H123      1.0  0.86908  0.2607800000000001  0.45971  1.0000
  H   H124      1.0  0.82303  0.31160999999999994  0.47955000000000003  1.0000
  H   H125      1.0  0.81207  0.45777000000000007  0.70463  1.0000
  H   H126      1.0  0.8688800000000001  0.5645300000000001  0.61639  1.0000
  H   H127      1.0  0.88129  0.58071  0.5216  1.0000
  H   H128      1.0  0.8352  0.49056000000000005  0.51108  1.0000
  H   H129      1.0  0.6207  0.9570500000000001  0.8166  1.0000
  H   H130      1.0  0.5230000000000001  0.8638400000000003  0.85312  1.0000
  H   H131      1.0  0.4410999999999999  0.8742599999999999  0.8519900000000001  1.0000
  H   H132      1.0  0.45246999999999993  0.9772099999999999  0.8145700000000001  1.0000
  H   H133      1.0  0.95148  0.010590000000000046  0.7655299999999999  1.0000
  H   H134      1.0  0.9565699999999999  0.07800999999999997  0.71474  1.0000
  H   H135      1.0  0.87902  0.4001400000000001  0.80299  1.0000
  H   H136      1.0  0.92894  0.44572000000000017  0.82025  1.0000
  H   H137      1.0  0.22645  0.10509  0.68242  1.0000
  H   H138      1.0  0.37055000000000016  0.09217000000000009  0.68995  1.0000
  H   H139      1.0  0.40728  0.17568999999999999  0.71037  1.0000
  H   H140      1.0  0.33427  0.25297  0.14516  1.0000
  H   H141      1.0  0.36057000000000006  0.11739000000000005  0.14017  1.0000
  H   H142      1.0  0.33916  0.06348999999999999  0.24487  1.0000
  H   H143      1.0  0.15032000000000018  0.6258600000000004  0.68141  1.0000
  H   H144      1.0  0.05204999999999998  0.53299  0.7191800000000002  1.0000
  H   H145      1.0  0.97134  0.54434  0.71337  1.0000
  H   H146      1.0  0.98487  0.64908  0.66813  1.0000
  H   H147      1.0  0.38278000000000006  0.15936000000000003  0.36953  1.0000
  H   H148      1.0  0.43262999999999996  0.24961999999999998  0.37961  1.0000
  H   H149      1.0  0.41311999999999993  0.23507  0.47371  1.0000
  H   H150      1.0  0.34401  0.1297900000000001  0.56253  1.0000
  H   H151      1.0  0.35568000000000005  0.9806899999999998  0.33731  1.0000
  H   H152      1.0  0.3987  0.92635  0.3197  1.0000
  H   H153      1.0  0.38540000000000013  0.8320700000000002  0.39873  1.0000
  H   H154      1.0  0.32905  0.78681  0.49968000000000007  1.0000
  H   H155      1.0  0.13879000000000002  0.93931  0.74264  1.0000
  H   H156      1.0  0.037200000000000004  0.89488  0.79603  1.0000
  H   H157      1.0  0.9598899999999999  0.829  0.7792699999999999  1.0000
  H   H158      1.0  0.97954  0.8023100000000002  0.70895  1.0000
  H   H159      1.0  0.20484  0.016970000000000006  0.33712  1.0000
  H   H160      1.0  0.11646000000000002  0.9855600000000001  0.31883  1.0000
  H   H161      1.0  0.021770000000000005  0.90316  0.39759999999999995  1.0000
  H   H162      1.0  0.011480000000000155  0.8463300000000004  0.49829  1.0000
  H   H163      1.0  0.31691000000000014  0.9376700000000003  0.72627  1.0000
  H   H164      1.0  0.35344000000000003  0.8766600000000001  0.78322  1.0000
  H   H165      1.0  0.3522  0.79352  0.77423  1.0000
  H   H166      1.0  0.31461999999999996  0.7671299999999999  0.7088100000000002  1.0000
  H   H167      1.0  0.26571999999999996  0.21716999999999997  0.72358  1.0000
  H   H168      1.0  0.21491999999999997  0.17149999999999996  0.7069400000000001  1.0000
  H   H169      1.0  0.30288000000000004  0.18160000000000004  0.29722  1.0000
  H   H170      1.0  0.31999  0.2487  0.23439000000000002  1.0000
  H   H171      1.0  0.7877500000000001  0.6050800000000002  0.62128  1.0000
  H   H172      1.0  0.78182  0.59197  0.77849  1.0000
  H   H173      1.0  0.8859099999999999  0.6756200000000001  0.7316999999999999  1.0000
  H   H174      1.0  0.39806  0.75328  0.5813  1.0000
  H   H175      1.0  0.25755  0.61704  0.74366  1.0000
  H   H176      1.0  0.30843  0.56313  0.77544  1.0000
  H   H177      1.0  0.307  0.12581  0.02469  1.0000
  H   H178      1.0  0.25209  0.03289  0.01944  1.0000
  H   H179      1.0  0.25771999999999995  0.04424000000000001  0.92734  1.0000
  H   H180      1.0  0.31725000000000003  0.14899000000000004  0.8359399999999999  1.0000
  H   H181      1.0  0.5285  0.65875  0.72338  1.0000
  H   H182      1.0  0.6289000000000001  0.7488600000000001  0.68339  1.0000
  H   H183      1.0  0.70839  0.73428  0.67852  1.0000
  H   H184      1.0  0.6917500000000001  0.6290600000000001  0.7145199999999999  1.0000
  H   H185      1.0  0.3177900000000001  0.48074  0.8748  1.0000
  H   H186      1.0  0.24607000000000004  0.42660000000000003  0.97242  1.0000
  H   H187      1.0  0.23075000000000007  0.3323400000000001  0.05352  1.0000
  H   H188      1.0  0.28624  0.28700000000000003  0.04232  1.0000
  H   H189      1.0  0.68216  0.4392000000000001  0.6992699999999998  1.0000
  H   H190      1.0  0.6909900000000001  0.3945900000000001  0.64234  1.0000
  H   H191      1.0  0.6082300000000002  0.32882  0.63096  1.0000
  H   H192      1.0  0.51124  0.30235  0.67712  1.0000
  H   H193      1.0  0.3540700000000001  0.5165000000000002  0.68744  1.0000
  H   H194      1.0  0.30426000000000014  0.4853200000000002  0.63038  1.0000
  H   H195      1.0  0.30035  0.4028999999999999  0.61819  1.0000
  H   H196      1.0  0.3440999999999999  0.34599  0.6647  1.0000
  H   H197      1.0  0.66344  0.43737000000000004  0.87889  1.0000
  H   H198      1.0  0.65944  0.37653  0.97653  1.0000
  H   H199      1.0  0.5672199999999998  0.2934400000000001  0.05871  1.0000
  H   H200      1.0  0.47534  0.26692  0.047810000000000005  1.0000
  H   H201      1.0  0.9410600000000001  0.7172500000000003  0.54843  1.0000
  H   H202      1.0  0.8787099999999999  0.6714899999999999  0.54341  1.0000
  H   H203      1.0  0.47903  0.68218  0.62051  1.0000
  H   H204      1.0  0.48327  0.74926  0.57077  1.0000
  H   H205      1.0  0.21225  0.39492  0.37872  1.0000
  H   H206      1.0  0.21818000000000007  0.4080200000000001  0.22150000000000003  1.0000
  H   H207      1.0  0.11409000000000002  0.32438  0.2683  1.0000
  H   H208      1.0  0.60194  0.24672  0.4187  1.0000
  H   H209      1.0  0.74245  0.3829600000000001  0.25634  1.0000
  H   H210      1.0  0.6915699999999999  0.43686  0.22456000000000004  1.0000
  H   H211      1.0  0.693  0.8741900000000002  0.97531  1.0000
  H   H212      1.0  0.7479100000000001  0.9671  0.98056  1.0000
  H   H213      1.0  0.74228  0.9557500000000002  0.07266  1.0000
  H   H214      1.0  0.68275  0.85101  0.16406  1.0000
  H   H215      1.0  0.4715  0.34125  0.27662  1.0000
  H   H216      1.0  0.3711  0.25114  0.31661  1.0000
  H   H217      1.0  0.29161  0.2657200000000001  0.32148  1.0000
  H   H218      1.0  0.3082500000000001  0.37094000000000005  0.28548  1.0000
  H   H219      1.0  0.68221  0.51926  0.1252  1.0000
  H   H220      1.0  0.75393  0.5734  0.027579999999999997  1.0000
  H   H221      1.0  0.7692600000000004  0.6676600000000005  0.94648  1.0000
  H   H222      1.0  0.71376  0.7130000000000001  0.95767  1.0000
  H   H223      1.0  0.31784000000000007  0.5607900000000001  0.30073  1.0000
  H   H224      1.0  0.30901  0.60541  0.35766000000000003  1.0000
  H   H225      1.0  0.39177  0.67117  0.36904  1.0000
  H   H226      1.0  0.48876000000000003  0.6976400000000001  0.32288  1.0000
  H   H227      1.0  0.64593  0.4835  0.31256  1.0000
  H   H228      1.0  0.69574  0.51467  0.36961  1.0000
  H   H229      1.0  0.69965  0.59709  0.38181  1.0000
  H   H230      1.0  0.6559  0.6540100000000002  0.3353  1.0000
  H   H231      1.0  0.33656000000000014  0.5626300000000002  0.12111  1.0000
  H   H232      1.0  0.3405700000000001  0.6234700000000002  0.02347  1.0000
  H   H233      1.0  0.43278000000000005  0.7065600000000001  0.94129  1.0000
  H   H234      1.0  0.5246599999999999  0.7330799999999998  0.95219  1.0000
  H   H235      1.0  0.05893999999999998  0.28275  0.45157  1.0000
  H   H236      1.0  0.12129000000000005  0.32850000000000007  0.45659  1.0000
  H   H237      1.0  0.5209700000000003  0.31782000000000005  0.37949  1.0000
  H   H238      1.0  0.51673  0.25073  0.42923  1.0000
  H   H239      1.0  0.77355  0.8949000000000001  0.31758  1.0000
  H   H240      1.0  0.62945  0.90783  0.31005  1.0000
  H   H241      1.0  0.5927199999999999  0.8243100000000001  0.28963  1.0000
  H   H242      1.0  0.6657299999999999  0.7470299999999999  0.85484  1.0000
  H   H243      1.0  0.63943  0.8826100000000003  0.85983  1.0000
  H   H244      1.0  0.66084  0.93651  0.75513  1.0000
  H   H245      1.0  0.84968  0.3741399999999999  0.31859  1.0000
  H   H246      1.0  0.94795  0.467  0.28082  1.0000
  H   H247      1.0  0.028660000000000067  0.4556600000000002  0.28663  1.0000
  H   H248      1.0  0.015129999999999994  0.35092  0.33187  1.0000
  H   H249      1.0  0.6172200000000002  0.8406400000000004  0.63047  1.0000
  H   H250      1.0  0.56737  0.75037  0.62039  1.0000
  H   H251      1.0  0.58688  0.76493  0.52629  1.0000
  H   H252      1.0  0.65599  0.87021  0.43747  1.0000
  H   H253      1.0  0.6443200000000001  0.019310000000000035  0.66269  1.0000
  H   H254      1.0  0.6013  0.07364  0.6803  1.0000
  H   H255      1.0  0.6145999999999999  0.16792000000000012  0.60127  1.0000
  H   H256      1.0  0.67095  0.21319  0.50032  1.0000
  H   H257      1.0  0.86121  0.06069000000000001  0.25736  1.0000
  H   H258      1.0  0.9627999999999999  0.10512000000000003  0.20397  1.0000
  H   H259      1.0  0.040110000000000014  0.17099000000000003  0.22073  1.0000
  H   H260      1.0  0.020460000000000027  0.1976900000000001  0.29105  1.0000
  H   H261      1.0  0.7951600000000001  0.9830300000000004  0.66288  1.0000
  H   H262      1.0  0.88354  0.014440000000000102  0.68117  1.0000
  H   H263      1.0  0.97823  0.09684000000000009  0.6024  1.0000
  H   H264      1.0  0.98852  0.15366999999999997  0.50171  1.0000
  H   H265      1.0  0.68309  0.062329999999999997  0.27373  1.0000
  H   H266      1.0  0.6465600000000001  0.12333000000000004  0.21678  1.0000
  H   H267      1.0  0.6478000000000002  0.20647000000000004  0.22576999999999997  1.0000
  H   H268      1.0  0.6853799999999999  0.23286000000000007  0.29119  1.0000
  H   H269      1.0  0.73428  0.78282  0.27642  1.0000
  H   H270      1.0  0.78508  0.8285  0.29306  1.0000
  H   H271      1.0  0.69712  0.8184  0.7027800000000001  1.0000
  H   H272      1.0  0.6800100000000001  0.7513  0.76561  1.0000
  C   C1        1.0  0.15073000000000003  0.04669  0.1624  1.0000
  C   C2        1.0  0.11817999999999994  0.98674  0.21459  1.0000
  C   C3        1.0  0.14501  0.9549100000000001  0.23405  1.0000
  C   C4        1.0  0.2020100000000001  0.9813200000000002  0.20372  1.0000
  C   C5        1.0  0.23408  0.04039999999999999  0.1522  1.0000
  C   C6        1.0  0.20803999999999997  0.07193  0.13226  1.0000
  C   C7        1.0  0.22770999999999994  0.94509  0.22648  1.0000
  C   C8        1.0  0.12608999999999995  0.08374  0.14024  1.0000
  C   C9        1.0  0.19696  0.57824  0.1757  1.0000
  C   C10       1.0  0.14074000000000006  0.5485600000000002  0.17761  1.0000
  C   C11       1.0  0.12375  0.50273  0.16469  1.0000
  C   C12       1.0  0.16045000000000004  0.48604000000000014  0.15133  1.0000
  C   C13       1.0  0.21580000000000002  0.5151300000000001  0.14972  1.0000
  C   C14       1.0  0.23325999999999997  0.56065  0.16179  1.0000
  C   C15       1.0  0.21822  0.62735  0.18787  1.0000
  C   C16       1.0  0.14057  0.43665  0.13903  1.0000
  C   C17       1.0  0.3798200000000001  0.7246500000000002  0.42408  1.0000
  C   C18       1.0  0.43281  0.77445  0.37785  1.0000
  C   C19       1.0  0.48445000000000005  0.7927800000000002  0.3852  1.0000
  C   C20       1.0  0.4805900000000001  0.7591400000000001  0.43993  1.0000
  C   C21       1.0  0.42750000000000027  0.7091200000000004  0.4864  1.0000
  C   C22       1.0  0.37644  0.69115  0.4796  1.0000
  C   C23       1.0  0.23860000000000003  0.8395200000000002  0.17533  1.0000
  C   C24       1.0  0.24111  0.79637  0.16449  1.0000
  C   C25       1.0  0.22149999999999995  0.78569  0.12498000000000001  1.0000
  C   C26       1.0  0.19931000000000013  0.8191900000000002  0.09766  1.0000
  C   C27       1.0  0.19659999999999994  0.86238  0.10861  1.0000
  C   C28       1.0  0.21621000000000012  0.8736000000000003  0.14712  1.0000
  C   C29       1.0  0.4514900000000001  0.7848300000000001  0.18937  1.0000
  C   C30       1.0  0.40486  0.74713  0.18154  1.0000
  C   C31       1.0  0.41079999999999994  0.7216800000000001  0.15005  1.0000
  C   C32       1.0  0.46487999999999996  0.736  0.12676  1.0000
  C   C33       1.0  0.51168  0.77389  0.13446  1.0000
  C   C34       1.0  0.50621  0.7987900000000001  0.16568  1.0000
  C   C35       1.0  0.21342000000000008  0.7570500000000002  0.42924  1.0000
  C   C36       1.0  0.22011999999999993  0.81134  0.38471000000000005  1.0000
  C   C37       1.0  0.19502000000000014  0.8405900000000002  0.39572999999999997  1.0000
  C   C38       1.0  0.16342999999999996  0.81319  0.45227  1.0000
  C   C39       1.0  0.15681000000000014  0.7588200000000003  0.49688  1.0000
  C   C40       1.0  0.18156999999999998  0.72985  0.48664  1.0000
  C   C41       1.0  0.20112  0.57657  0.39753  1.0000
  C   C42       1.0  0.20737  0.58583  0.34332  1.0000
  C   C43       1.0  0.18241000000000007  0.5352200000000001  0.33695  1.0000
  C   C44       1.0  0.1509400000000001  0.4760000000000001  0.38646  1.0000
  C   C45       1.0  0.14410000000000006  0.4667700000000001  0.44084  1.0000
  C   C46       1.0  0.16882  0.5162  0.44760000000000005  1.0000
  C   C47       1.0  0.4563400000000001  0.9749900000000002  0.20558000000000004  1.0000
  C   C48       1.0  0.40945  0.98111  0.20553  1.0000
  C   C49       1.0  0.41570000000000007  0.03925000000000001  0.18405  1.0000
  C   C50       1.0  0.47009  0.09026  0.16371  1.0000
  C   C51       1.0  0.5171299999999999  0.08417000000000002  0.16429  1.0000
  C   C52       1.0  0.5115  0.027220000000000005  0.18478  1.0000
  C   C53       1.0  0.20900999999999997  0.54681  0.60401  1.0000
  C   C54       1.0  0.20129999999999995  0.48693999999999993  0.63143  1.0000
  C   C55       1.0  0.18911999999999998  0.4551299999999999  0.69011  1.0000
  C   C56       1.0  0.18524000000000007  0.48146000000000017  0.72072  1.0000
  C   C57       1.0  0.19257999999999997  0.54036  0.69377  1.0000
  C   C58       1.0  0.2040200000000001  0.5719000000000001  0.63616  1.0000
  C   C59       1.0  0.17196000000000017  0.4452700000000003  0.7827099999999999  1.0000
  C   C60       1.0  0.22385  0.58386  0.54226  1.0000
  C   C61       1.0  0.75389  0.07817  0.11891  1.0000
  C   C62       1.0  0.72628  0.04852999999999999  0.09231000000000002  1.0000
  C   C63       1.0  0.6674599999999999  0.002669999999999998  0.12113  1.0000
  C   C64       1.0  0.63729  0.98598  0.17451000000000003  1.0000
  C   C65       1.0  0.66459  0.015009999999999987  0.20083  1.0000
  C   C66       1.0  0.72226  0.06052  0.17284000000000002  1.0000
  C   C67       1.0  0.81523  0.12726  0.09108  1.0000
  C   C68       1.0  0.5755900000000003  0.9365800000000004  0.20395  1.0000
  C   C69       1.0  0.14874999999999997  0.22451000000000002  0.15553  1.0000
  C   C70       1.0  0.15234  0.27427  0.15866  1.0000
  C   C71       1.0  0.1781600000000001  0.2926900000000001  0.19185  1.0000
  C   C72       1.0  0.1993  0.25914  0.22162  1.0000
  C   C73       1.0  0.19570000000000004  0.20914000000000005  0.21863999999999997  1.0000
  C   C74       1.0  0.17083000000000004  0.19109000000000007  0.18564  1.0000
  C   C75       1.0  0.015120000000000015  0.33913000000000004  0.8998399999999999  1.0000
  C   C76       1.0  0.96101  0.29597  0.94555  1.0000
  C   C77       1.0  0.91093  0.2856099999999999  0.93641  1.0000
  C   C78       1.0  0.91739  0.31933000000000006  0.88061  1.0000
  C   C79       1.0  0.97166  0.3624700000000001  0.8347399999999999  1.0000
  C   C80       1.0  0.02126999999999996  0.3734199999999999  0.84328  1.0000
  C   C81       1.0  0.97415  0.28489  0.16695  1.0000
  C   C82       1.0  0.92865  0.24701  0.15814  1.0000
  C   C83       1.0  0.8716500000000004  0.22160000000000005  0.18946999999999997  1.0000
  C   C84       1.0  0.86266  0.23608  0.22904  1.0000
  C   C85       1.0  0.9082499999999999  0.2741100000000001  0.23787999999999998  1.0000
  C   C86       1.0  0.96444  0.29902  0.20754  1.0000
  C   C87       1.0  0.18639000000000003  0.25689000000000006  0.9566099999999998  1.0000
  C   C88       1.0  0.19624  0.31121  0.90897  1.0000
  C   C89       1.0  0.23653000000000005  0.34049  0.85452  1.0000
  C   C90       1.0  0.26546999999999993  0.3129799999999999  0.85032  1.0000
  C   C91       1.0  0.25559  0.25855000000000006  0.89811  1.0000
  C   C92       1.0  0.21643000000000004  0.22963000000000006  0.95195  1.0000
  C   C93       1.0  0.9739999999999999  0.07619  0.12494  1.0000
  C   C94       1.0  0.92906  0.08540999999999999  0.12195999999999999  1.0000
  C   C95       1.0  0.8719999999999999  0.03481  0.14745  1.0000
  C   C96       1.0  0.86225  0.9756300000000002  0.17503  1.0000
  C   C97       1.0  0.90739  0.96641  0.17746  1.0000
  C   C98       1.0  0.96363  0.015859999999999992  0.1529  1.0000
  C   C99       1.0  0.18078999999999998  0.4749399999999999  0.98142  1.0000
  C   C100      1.0  0.18686000000000005  0.48092000000000007  0.92845  1.0000
  C   C101      1.0  0.22342000000000006  0.5390200000000002  0.87639  1.0000
  C   C102      1.0  0.25397  0.59017  0.87953  1.0000
  C   C103      1.0  0.24847000000000005  0.58426  0.9325999999999999  1.0000
  C   C104      1.0  0.21212  0.52732  0.98411  1.0000
  C   C105      1.0  0.79099  0.4531800000000001  0.39597999999999994  1.0000
  C   C106      1.0  0.7987  0.51306  0.36857  1.0000
  C   C107      1.0  0.8108800000000002  0.5448700000000002  0.30989  1.0000
  C   C108      1.0  0.81476  0.51854  0.27928  1.0000
  C   C109      1.0  0.80743  0.45963  0.30623  1.0000
  C   C110      1.0  0.79598  0.42810000000000004  0.36384  1.0000
  C   C111      1.0  0.82804  0.5547300000000002  0.21729  1.0000
  C   C112      1.0  0.77615  0.41613000000000006  0.45774  1.0000
  C   C113      1.0  0.24610999999999997  0.9218299999999999  0.88109  1.0000
  C   C114      1.0  0.27371999999999996  0.95147  0.9076900000000001  1.0000
  C   C115      1.0  0.3325400000000001  0.9973300000000003  0.8788699999999999  1.0000
  C   C116      1.0  0.36271  0.014020000000000005  0.82549  1.0000
  C   C117      1.0  0.33540999999999993  0.9849899999999999  0.79917  1.0000
  C   C118      1.0  0.27774000000000004  0.9394700000000001  0.8271600000000001  1.0000
  C   C119      1.0  0.18477000000000007  0.87274  0.90892  1.0000
  C   C120      1.0  0.42441000000000006  0.06342  0.79605  1.0000
  C   C121      1.0  0.85125  0.7754800000000001  0.84447  1.0000
  C   C122      1.0  0.84766  0.7257199999999999  0.84134  1.0000
  C   C123      1.0  0.8218400000000001  0.7073100000000001  0.80815  1.0000
  C   C124      1.0  0.8007  0.74085  0.77838  1.0000
  C   C125      1.0  0.8042999999999998  0.7908599999999998  0.7813600000000002  1.0000
  C   C126      1.0  0.8291699999999999  0.8089100000000001  0.81436  1.0000
  C   C127      1.0  0.9848799999999999  0.66087  0.10016  1.0000
  C   C128      1.0  0.03898999999999998  0.7040200000000001  0.05445  1.0000
  C   C129      1.0  0.0890700000000001  0.7143800000000002  0.06359  1.0000
  C   C130      1.0  0.08261  0.6806700000000001  0.11939  1.0000
  C   C131      1.0  0.028340000000000008  0.63753  0.16526  1.0000
  C   C132      1.0  0.97873  0.6265800000000001  0.15672  1.0000
  C   C133      1.0  0.02585000000000007  0.7151100000000002  0.8330499999999998  1.0000
  C   C134      1.0  0.0713500000000001  0.7529800000000002  0.84186  1.0000
  C   C135      1.0  0.12835000000000008  0.7784000000000001  0.81053  1.0000
  C   C136      1.0  0.13733999999999993  0.76391  0.77096  1.0000
  C   C137      1.0  0.09175  0.7258900000000001  0.76212  1.0000
  C   C138      1.0  0.03556000000000011  0.7009800000000003  0.79246  1.0000
  C   C139      1.0  0.8136099999999999  0.74311  0.04339  1.0000
  C   C140      1.0  0.80376  0.68879  0.09103  1.0000
  C   C141      1.0  0.7634700000000001  0.6595100000000003  0.14548  1.0000
  C   C142      1.0  0.7345299999999999  0.6870199999999999  0.14968  1.0000
  C   C143      1.0  0.74441  0.74144  0.10189000000000001  1.0000
  C   C144      1.0  0.7835700000000001  0.7703700000000002  0.04805  1.0000
  C   C145      1.0  0.02600000000000006  0.9238100000000001  0.8750599999999998  1.0000
  C   C146      1.0  0.07093999999999992  0.9145799999999998  0.87804  1.0000
  C   C147      1.0  0.128  0.96518  0.85255  1.0000
  C   C148      1.0  0.13775000000000007  0.024370000000000124  0.8249699999999999  1.0000
  C   C149      1.0  0.09261000000000001  0.03359  0.82254  1.0000
  C   C150      1.0  0.03637000000000017  0.9841400000000003  0.8471  1.0000
  C   C151      1.0  0.81921  0.52506  0.01858  1.0000
  C   C152      1.0  0.8131399999999999  0.51908  0.07155  1.0000
  C   C153      1.0  0.77658  0.4609800000000001  0.12361  1.0000
  C   C154      1.0  0.7460300000000001  0.4098200000000001  0.12047  1.0000
  C   C155      1.0  0.75153  0.41573  0.0674  1.0000
  C   C156      1.0  0.78788  0.47268  0.01589  1.0000
  C   C157      1.0  0.84927  0.9533100000000001  0.8376  1.0000
  C   C158      1.0  0.8818199999999999  0.013260000000000018  0.78541  1.0000
  C   C159      1.0  0.85499  0.045079999999999995  0.76595  1.0000
  C   C160      1.0  0.79799  0.01866999999999998  0.79628  1.0000
  C   C161      1.0  0.76592  0.9595900000000002  0.8478  1.0000
  C   C162      1.0  0.7919599999999999  0.9280699999999998  0.86774  1.0000
  C   C163      1.0  0.77229  0.05490999999999999  0.77352  1.0000
  C   C164      1.0  0.8739100000000001  0.9162600000000002  0.85976  1.0000
  C   C165      1.0  0.80304  0.42176000000000025  0.8243  1.0000
  C   C166      1.0  0.85926  0.45144  0.82239  1.0000
  C   C167      1.0  0.8762500000000001  0.49727000000000005  0.83531  1.0000
  C   C168      1.0  0.83955  0.5139499999999999  0.84867  1.0000
  C   C169      1.0  0.7842  0.48487  0.85028  1.0000
  C   C170      1.0  0.7667399999999999  0.43935  0.83821  1.0000
  C   C171      1.0  0.7817800000000003  0.3726500000000001  0.8121299999999999  1.0000
  C   C172      1.0  0.85944  0.56334  0.8609699999999999  1.0000
  C   C173      1.0  0.62018  0.27535  0.57592  1.0000
  C   C174      1.0  0.56719  0.22555  0.62215  1.0000
  C   C175      1.0  0.51555  0.20722000000000004  0.6148  1.0000
  C   C176      1.0  0.51941  0.24085999999999996  0.56007  1.0000
  C   C177      1.0  0.5725  0.29088  0.5136  1.0000
  C   C178      1.0  0.62356  0.30885  0.5204  1.0000
  C   C179      1.0  0.7614  0.16048000000000012  0.8246699999999999  1.0000
  C   C180      1.0  0.7588899999999998  0.20362999999999995  0.83551  1.0000
  C   C181      1.0  0.7784999999999999  0.21430999999999997  0.87502  1.0000
  C   C182      1.0  0.80069  0.1808  0.90234  1.0000
  C   C183      1.0  0.8034  0.13762000000000005  0.89139  1.0000
  C   C184      1.0  0.78379  0.12640000000000007  0.85288  1.0000
  C   C185      1.0  0.54851  0.21517  0.81063  1.0000
  C   C186      1.0  0.5951399999999998  0.25286999999999993  0.81846  1.0000
  C   C187      1.0  0.5892  0.27832  0.8499500000000001  1.0000
  C   C188      1.0  0.53512  0.264  0.87324  1.0000
  C   C189      1.0  0.48832  0.2261  0.86554  1.0000
  C   C190      1.0  0.49378999999999995  0.2011999999999999  0.8343200000000001  1.0000
  C   C191      1.0  0.7865799999999998  0.2429500000000001  0.57076  1.0000
  C   C192      1.0  0.77988  0.18866000000000002  0.61529  1.0000
  C   C193      1.0  0.80498  0.1594  0.60427  1.0000
  C   C194      1.0  0.83657  0.18681  0.54773  1.0000
  C   C195      1.0  0.84319  0.2411700000000001  0.50312  1.0000
  C   C196      1.0  0.8184300000000001  0.2701500000000001  0.51336  1.0000
  C   C197      1.0  0.7988800000000001  0.42343000000000003  0.60247  1.0000
  C   C198      1.0  0.79263  0.41417000000000015  0.65668  1.0000
  C   C199      1.0  0.81759  0.46477999999999997  0.66305  1.0000
  C   C200      1.0  0.84906  0.524  0.61354  1.0000
  C   C201      1.0  0.8559  0.53322  0.55916  1.0000
  C   C202      1.0  0.83118  0.48379999999999995  0.5524  1.0000
  C   C203      1.0  0.54366  0.025009999999999973  0.79442  1.0000
  C   C204      1.0  0.59055  0.018880000000000025  0.79447  1.0000
  C   C205      1.0  0.5842999999999999  0.9607499999999999  0.8159400000000001  1.0000
  C   C206      1.0  0.5299100000000001  0.9097400000000002  0.8362899999999999  1.0000
  C   C207      1.0  0.4828700000000001  0.91583  0.83571  1.0000
  C   C208      1.0  0.4885000000000002  0.9727800000000004  0.81522  1.0000
  C   C209      1.0  0.33765999999999996  0.1869399999999999  0.7090100000000001  1.0000
  C   C210      1.0  0.28546  0.16730000000000003  0.7012099999999999  1.0000
  C   C211      1.0  0.2658799999999999  0.12089999999999992  0.6889900000000001  1.0000
  C   C212      1.0  0.2961  0.09419000000000001  0.68519  1.0000
  C   C213      1.0  0.34767  0.11369  0.69268  1.0000
  C   C214      1.0  0.36772000000000005  0.15976000000000012  0.70414  1.0000
  C   C215      1.0  0.27330000000000004  0.04566000000000002  0.67177  1.0000
  C   C216      1.0  0.35991000000000006  0.23375000000000007  0.72389  1.0000
  C   C217      1.0  0.32434999999999997  0.12727000000000005  0.25399  1.0000
  C   C218      1.0  0.32231  0.18142  0.22634999999999997  1.0000
  C   C219      1.0  0.33518  0.21141  0.16753  1.0000
  C   C220      1.0  0.34858  0.18820000000000006  0.13736  1.0000
  C   C221      1.0  0.35038000000000014  0.13465  0.16469  1.0000
  C   C222      1.0  0.33836  0.10507  0.22233  1.0000
  C   C223      1.0  0.31221  0.09377000000000002  0.31531  1.0000
  C   C224      1.0  0.36075  0.22037  0.07567  1.0000
  C   C225      1.0  0.0759500000000001  0.6961200000000002  0.64858  1.0000
  C   C226      1.0  0.12212000000000012  0.6893300000000001  0.65227  1.0000
  C   C227      1.0  0.11467000000000005  0.6303600000000001  0.67801  1.0000
  C   C228      1.0  0.05988999999999999  0.57955  0.69907  1.0000
  C   C229      1.0  0.013460000000000099  0.5862000000000003  0.69549  1.0000
  C   C230      1.0  0.020369999999999965  0.6440299999999999  0.67063  1.0000
  C   C231      1.0  0.32464  0.08572999999999999  0.51504  1.0000
  C   C232      1.0  0.3357100000000001  0.09416000000000004  0.46096  1.0000
  C   C233      1.0  0.37528  0.15335  0.41081  1.0000
  C   C234      1.0  0.40233  0.20277  0.41714  1.0000
  C   C235      1.0  0.39114  0.19438000000000002  0.4714  1.0000
  C   C236      1.0  0.35262  0.13621000000000003  0.52108  1.0000
  C   C237      1.0  0.31076000000000004  0.8589700000000001  0.47435  1.0000
  C   C238      1.0  0.3186199999999999  0.9134199999999999  0.42880000000000007  1.0000
  C   C239      1.0  0.35013000000000016  0.9389700000000004  0.3718  1.0000
  C   C240      1.0  0.3733200000000001  0.9081900000000003  0.36281  1.0000
  C   C241      1.0  0.36557  0.85369  0.40844  1.0000
  C   C242      1.0  0.3343500000000001  0.8279200000000002  0.46462999999999993  1.0000
  C   C243      1.0  0.07079000000000006  0.8571300000000001  0.6862499999999999  1.0000
  C   C244      1.0  0.11534999999999987  0.89504  0.69594  1.0000
  C   C245      1.0  0.10441000000000004  0.9092500000000001  0.73615  1.0000
  C   C246      1.0  0.04791000000000001  0.8844199999999999  0.76526  1.0000
  C   C247      1.0  0.003260000000000025  0.8463500000000002  0.75557  1.0000
  C   C248      1.0  0.013420000000000029  0.8316200000000001  0.71649  1.0000
  C   C249      1.0  0.10284999999999997  0.90146  0.47384000000000004  1.0000
  C   C250      1.0  0.15704000000000004  0.9494500000000001  0.42882  1.0000
  C   C251      1.0  0.1633200000000002  0.9808500000000003  0.3718  1.0000
  C   C252      1.0  0.11373000000000005  0.96285  0.3622  1.0000
  C   C253      1.0  0.059380000000000065  0.9152600000000002  0.4074499999999999  1.0000
  C   C254      1.0  0.05274000000000002  0.8837  0.46363  1.0000
  C   C255      1.0  0.29446000000000006  0.8380700000000001  0.68097  1.0000
  C   C256      1.0  0.29462  0.8851000000000001  0.6868500000000001  1.0000
  C   C257      1.0  0.3161999999999999  0.9005299999999999  0.72343  1.0000
  C   C258      1.0  0.33651999999999993  0.8665699999999998  0.7542100000000002  1.0000
  C   C259      1.0  0.3358599999999999  0.8188799999999999  0.74889  1.0000
  C   C260      1.0  0.31528000000000006  0.8038300000000002  0.71249  1.0000
  C   C261      1.0  0.8960200000000003  0.68702  0.65071  1.0000
  C   C262      1.0  0.8686700000000002  0.6673500000000001  0.61815  1.0000
  C   C263      1.0  0.8099899999999999  0.62085  0.64498  1.0000
  C   C264      1.0  0.7793000000000002  0.5940500000000002  0.70199  1.0000
  C   C265      1.0  0.8062  0.61357  0.73406  1.0000
  C   C266      1.0  0.8638199999999999  0.6597400000000002  0.70802  1.0000
  C   C267      1.0  0.7173  0.5454600000000001  0.7276899999999998  1.0000
  C   C268      1.0  0.9577500000000001  0.7339700000000001  0.62609  1.0000
  C   C269      1.0  0.3813  0.62734  0.6966700000000001  1.0000
  C   C270      1.0  0.4078000000000001  0.6816600000000003  0.64051  1.0000
  C   C271      1.0  0.3788800000000001  0.7115200000000004  0.6237  1.0000
  C   C272      1.0  0.32547000000000004  0.6881100000000001  0.66059  1.0000
  C   C273      1.0  0.29928000000000005  0.6343800000000002  0.7159  1.0000
  C   C274      1.0  0.32738000000000006  0.6048600000000001  0.73313  1.0000
  C   C275      1.0  0.4090900000000002  0.5938200000000002  0.71793  1.0000
  C   C276      1.0  0.29596000000000006  0.7203400000000001  0.64096  1.0000
  C   C277      1.0  0.34467  0.19606000000000004  0.8799  1.0000
  C   C278      1.0  0.34141  0.18929  0.93289  1.0000
  C   C279      1.0  0.30818000000000006  0.13029000000000004  0.98452  1.0000
  C   C280      1.0  0.27855  0.07945999999999993  0.9806400000000001  1.0000
  C   C281      1.0  0.28168  0.08609999999999995  0.92754  1.0000
  C   C282      1.0  0.3146999999999999  0.14395  0.87649  1.0000
  C   C283      1.0  0.6001799999999999  0.58509  0.73894  1.0000
  C   C284      1.0  0.5545300000000001  0.5935200000000002  0.74145  1.0000
  C   C285      1.0  0.5637  0.65268  0.72194  1.0000
  C   C286      1.0  0.61951  0.7020499999999998  0.6998100000000002  1.0000
  C   C287      1.0  0.6653300000000001  0.6936200000000001  0.6971  1.0000
  C   C288      1.0  0.65675  0.6355100000000001  0.71663  1.0000
  C   C289      1.0  0.3329400000000001  0.3590000000000002  0.95175  1.0000
  C   C290      1.0  0.3418  0.41336000000000006  0.90509  1.0000
  C   C291      1.0  0.3105399999999999  0.4390499999999999  0.9110300000000001  1.0000
  C   C292      1.0  0.27090000000000014  0.4083800000000003  0.9651599999999999  1.0000
  C   C293      1.0  0.26201  0.3539100000000001  0.011970000000000001  1.0000
  C   C294      1.0  0.29228  0.32808  0.00651  1.0000
  C   C295      1.0  0.5434400000000003  0.35708000000000006  0.71353  1.0000
  C   C296      1.0  0.59108  0.39497  0.72017  1.0000
  C   C297      1.0  0.64553  0.40914  0.69503  1.0000
  C   C298      1.0  0.6497599999999997  0.38425  0.66347  1.0000
  C   C299      1.0  0.60196  0.34623  0.6569  1.0000
  C   C300      1.0  0.5481199999999998  0.33159  0.6817100000000001  1.0000
  C   C301      1.0  0.37495000000000006  0.40099000000000007  0.70099  1.0000
  C   C302      1.0  0.37794  0.4489  0.7071900000000001  1.0000
  C   C303      1.0  0.35245  0.4803799999999999  0.68203  1.0000
  C   C304      1.0  0.32481  0.4625000000000001  0.65042  1.0000
  C   C305      1.0  0.32234  0.41492  0.64371  1.0000
  C   C306      1.0  0.34691  0.38332  0.66862  1.0000
  C   C307      1.0  0.51843  0.33779000000000003  0.9565  1.0000
  C   C308      1.0  0.5713900000000002  0.38477000000000017  0.90947  1.0000
  C   C309      1.0  0.62345  0.40024  0.91548  1.0000
  C   C310      1.0  0.6202899999999998  0.36638999999999994  0.9697900000000002  1.0000
  C   C311      1.0  0.56723  0.31872  0.017  1.0000
  C   C312      1.0  0.51571  0.30360000000000004  0.011610000000000002  1.0000
  C   C313      1.0  0.10398  0.31298  0.34929  1.0000
  C   C314      1.0  0.1313300000000001  0.3326500000000002  0.38185  1.0000
  C   C315      1.0  0.19001  0.37914  0.35502  1.0000
  C   C316      1.0  0.2207  0.40595  0.29801  1.0000
  C   C317      1.0  0.19379999999999997  0.38641999999999993  0.26594  1.0000
  C   C318      1.0  0.13617999999999997  0.34026  0.29198  1.0000
  C   C319      1.0  0.2827  0.45454  0.27231  1.0000
  C   C320      1.0  0.04225000000000001  0.26603  0.37391  1.0000
  C   C321      1.0  0.6187  0.37266  0.30332  1.0000
  C   C322      1.0  0.5922  0.31833999999999996  0.35949  1.0000
  C   C323      1.0  0.62112  0.28848  0.3763  1.0000
  C   C324      1.0  0.67453  0.3118900000000001  0.33941  1.0000
  C   C325      1.0  0.7007200000000002  0.3656100000000002  0.2841  1.0000
  C   C326      1.0  0.67262  0.39514000000000005  0.26687  1.0000
  C   C327      1.0  0.59091  0.40617  0.28207  1.0000
  C   C328      1.0  0.70404  0.27966  0.35904  1.0000
  C   C329      1.0  0.65533  0.80394  0.1201  1.0000
  C   C330      1.0  0.65859  0.81071  0.06711  1.0000
  C   C331      1.0  0.69182  0.8697  0.01548  1.0000
  C   C332      1.0  0.7214500000000001  0.9205300000000002  0.01936  1.0000
  C   C333      1.0  0.71832  0.9139  0.07246  1.0000
  C   C334      1.0  0.6853000000000001  0.8560400000000002  0.12351  1.0000
  C   C335      1.0  0.39982  0.4149  0.26106  1.0000
  C   C336      1.0  0.44547  0.40648  0.25855  1.0000
  C   C337      1.0  0.4363000000000001  0.34732000000000013  0.27806  1.0000
  C   C338      1.0  0.3804900000000001  0.29794  0.30019  1.0000
  C   C339      1.0  0.33467  0.30637000000000003  0.3029  1.0000
  C   C340      1.0  0.34325  0.36449000000000004  0.28337  1.0000
  C   C341      1.0  0.66706  0.641  0.04825  1.0000
  C   C342      1.0  0.6582000000000001  0.5866300000000001  0.09490999999999998  1.0000
  C   C343      1.0  0.68946  0.56094  0.08896000000000001  1.0000
  C   C344      1.0  0.7291000000000001  0.5916200000000001  0.03484  1.0000
  C   C345      1.0  0.73799  0.6460799999999999  0.98803  1.0000
  C   C346      1.0  0.7077199999999999  0.67192  0.99349  1.0000
  C   C347      1.0  0.45656000000000013  0.6429200000000003  0.28647  1.0000
  C   C348      1.0  0.40892000000000006  0.6050300000000002  0.27983  1.0000
  C   C349      1.0  0.3544700000000002  0.5908500000000002  0.30497  1.0000
  C   C350      1.0  0.35024000000000005  0.6157500000000001  0.33653  1.0000
  C   C351      1.0  0.3980500000000001  0.6537700000000002  0.34309999999999996  1.0000
  C   C352      1.0  0.45188  0.66841  0.31829  1.0000
  C   C353      1.0  0.62505  0.59901  0.29901  1.0000
  C   C354      1.0  0.6220600000000002  0.5511000000000003  0.29281  1.0000
  C   C355      1.0  0.64755  0.51961  0.31797  1.0000
  C   C356      1.0  0.67519  0.5375000000000002  0.34958  1.0000
  C   C357      1.0  0.6776600000000002  0.58507  0.35628999999999994  1.0000
  C   C358      1.0  0.6530899999999998  0.61668  0.33138  1.0000
  C   C359      1.0  0.48157  0.66221  0.043500000000000004  1.0000
  C   C360      1.0  0.42861000000000005  0.6152200000000001  0.09053  1.0000
  C   C361      1.0  0.37655  0.59976  0.08452  1.0000
  C   C362      1.0  0.37971000000000005  0.6336100000000001  0.03021  1.0000
  C   C363      1.0  0.43277000000000004  0.6812800000000001  0.983  1.0000
  C   C364      1.0  0.48429  0.69639  0.98839  1.0000
  C   C365      1.0  0.66234  0.81306  0.29099  1.0000
  C   C366      1.0  0.71454  0.8327  0.29879  1.0000
  C   C367      1.0  0.7341200000000001  0.8791000000000003  0.31101  1.0000
  C   C368      1.0  0.7039000000000001  0.9058100000000001  0.31481  1.0000
  C   C369      1.0  0.6523299999999999  0.8863100000000002  0.30732  1.0000
  C   C370      1.0  0.6322800000000001  0.8402300000000003  0.29586  1.0000
  C   C371      1.0  0.7267  0.9543299999999999  0.32823  1.0000
  C   C372      1.0  0.64009  0.7662500000000002  0.27611  1.0000
  C   C373      1.0  0.6756500000000002  0.8727200000000004  0.74601  1.0000
  C   C374      1.0  0.6777  0.8185700000000001  0.77365  1.0000
  C   C375      1.0  0.6648200000000001  0.7885900000000003  0.8324700000000002  1.0000
  C   C376      1.0  0.65142  0.8117999999999999  0.8626400000000001  1.0000
  C   C377      1.0  0.64962  0.86534  0.83531  1.0000
  C   C378      1.0  0.66164  0.89493  0.77767  1.0000
  C   C379      1.0  0.68779  0.90622  0.68469  1.0000
  C   C380      1.0  0.6392500000000001  0.7796300000000005  0.92433  1.0000
  C   C381      1.0  0.92405  0.30388  0.35142  1.0000
  C   C382      1.0  0.8778799999999999  0.31067  0.34773  1.0000
  C   C383      1.0  0.88533  0.36964  0.32199  1.0000
  C   C384      1.0  0.94011  0.42045000000000005  0.30093  1.0000
  C   C385      1.0  0.98654  0.4138  0.30451  1.0000
  C   C386      1.0  0.97963  0.3559600000000001  0.32937  1.0000
  C   C387      1.0  0.67536  0.91426  0.48495999999999995  1.0000
  C   C388      1.0  0.66429  0.90584  0.53904  1.0000
  C   C389      1.0  0.62472  0.8466500000000002  0.58919  1.0000
  C   C390      1.0  0.59767  0.7972299999999999  0.58286  1.0000
  C   C391      1.0  0.60886  0.80562  0.5286  1.0000
  C   C392      1.0  0.64738  0.8637900000000002  0.47892  1.0000
  C   C393      1.0  0.68924  0.14103000000000004  0.52565  1.0000
  C   C394      1.0  0.68138  0.08658000000000002  0.5712  1.0000
  C   C395      1.0  0.64987  0.06101999999999997  0.6282  1.0000
  C   C396      1.0  0.62668  0.09181000000000002  0.63719  1.0000
  C   C397      1.0  0.63443  0.14629999999999999  0.59156  1.0000
  C   C398      1.0  0.6656500000000001  0.17208000000000012  0.53537  1.0000
  C   C399      1.0  0.92921  0.14286999999999997  0.31375  1.0000
  C   C400      1.0  0.88465  0.10496000000000005  0.30406  1.0000
  C   C401      1.0  0.89559  0.09075  0.26385  1.0000
  C   C402      1.0  0.95209  0.11558000000000004  0.23474  1.0000
  C   C403      1.0  0.9967399999999997  0.15364999999999998  0.24443000000000004  1.0000
  C   C404      1.0  0.98658  0.16836999999999996  0.28351  1.0000
  C   C405      1.0  0.89715  0.09854000000000003  0.52616  1.0000
  C   C406      1.0  0.84296  0.05054999999999999  0.57118  1.0000
  C   C407      1.0  0.83668  0.019139999999999987  0.6282  1.0000
  C   C408      1.0  0.88627  0.03715000000000001  0.6378  1.0000
  C   C409      1.0  0.94062  0.08473999999999998  0.59255  1.0000
  C   C410      1.0  0.94726  0.11629000000000002  0.53637  1.0000
  C   C411      1.0  0.70554  0.1619200000000001  0.31903  1.0000
  C   C412      1.0  0.70538  0.11489  0.31315  1.0000
  C   C413      1.0  0.6838  0.09946999999999999  0.27657  1.0000
  C   C414      1.0  0.66348  0.13343000000000002  0.24579  1.0000
  C   C415      1.0  0.66414  0.18112000000000003  0.25111  1.0000
  C   C416      1.0  0.68472  0.19617000000000004  0.28751  1.0000
  N   N1        1.0  0.33897999999999995  0.7194299999999999  0.40231  1.0000
  N   N2        1.0  0.365  0.76309  0.34648  1.0000
  N   N3        1.0  0.42130000000000006  0.7967500000000001  0.33057  1.0000
  N   N4        1.0  0.26067000000000007  0.8385400000000001  0.21545  1.0000
  N   N5        1.0  0.2759400000000001  0.79776  0.22838  1.0000
  N   N6        1.0  0.26475000000000004  0.7716500000000001  0.19846999999999998  1.0000
  N   N7        1.0  0.4311900000000002  0.8017600000000003  0.22133  1.0000
  N   N8        1.0  0.37579  0.77621  0.23241  1.0000
  N   N9        1.0  0.35883000000000015  0.7434600000000002  0.20888  1.0000
  N   N10       1.0  0.24191  0.74016  0.4043300000000001  1.0000
  N   N11       1.0  0.2650199999999998  0.7815799999999999  0.3482  1.0000
  N   N12       1.0  0.25269000000000014  0.8248300000000002  0.33508  1.0000
  N   N13       1.0  0.23186  0.6347  0.38839  1.0000
  N   N14       1.0  0.25548  0.6768900000000002  0.33222  1.0000
  N   N15       1.0  0.24122  0.64895  0.30426  1.0000
  N   N16       1.0  0.43525  0.91287  0.22934  1.0000
  N   N17       1.0  0.37903  0.88292  0.24344000000000002  1.0000
  N   N18       1.0  0.36237  0.92257  0.22963999999999998  1.0000
  N   N19       1.0  0.06161  0.95928  0.24476  1.0000
  N   N20       1.0  0.10282000000000004  0.5618700000000001  0.19396  1.0000
  N   N21       1.0  0.12170000000000003  0.21922000000000005  0.11997  1.0000
  N   N22       1.0  0.10953  0.26282  0.10235  1.0000
  N   N23       1.0  0.12728  0.2965  0.12492999999999999  1.0000
  N   N24       1.0  0.05419000000000005  0.33799000000000023  0.92291  1.0000
  N   N25       1.0  0.026249999999999957  0.29711999999999994  0.9790200000000001  1.0000
  N   N26       1.0  0.97019  0.27108  0.99397  1.0000
  N   N27       1.0  0.023109999999999985  0.30173  0.12982  1.0000
  N   N28       1.0  0.008679999999999997  0.27595  0.10019  1.0000
  N   N29       1.0  0.95236  0.24311000000000002  0.11601  1.0000
  N   N30       1.0  0.14460000000000003  0.24000000000000005  0.00206  1.0000
  N   N31       1.0  0.12996000000000002  0.28142000000000006  0.9837599999999999  1.0000
  N   N32       1.0  0.1601500000000001  0.32469000000000015  0.9281  1.0000
  N   N33       1.0  0.023050000000000022  0.13433000000000006  0.09766  1.0000
  N   N34       1.0  0.009150000000000021  0.17650000000000002  0.07921  1.0000
  N   N35       1.0  0.9532100000000001  0.14850000000000002  0.09288000000000002  1.0000
  N   N36       1.0  0.14248  0.41279  0.02262  1.0000
  N   N37       1.0  0.12668999999999997  0.38273999999999997  0.99646  1.0000
  N   N38       1.0  0.1525300000000001  0.4223200000000001  0.94007  1.0000
  N   N39       1.0  0.20385  0.45944  0.60239  1.0000
  N   N40       1.0  0.75608  0.06182000000000001  0.04111  1.0000
  N   N41       1.0  0.8783  0.7807700000000004  0.88003  1.0000
  N   N42       1.0  0.8904700000000001  0.7371700000000001  0.89765  1.0000
  N   N43       1.0  0.87272  0.7035  0.87507  1.0000
  N   N44       1.0  0.9458100000000002  0.66201  0.07709  1.0000
  N   N45       1.0  0.97375  0.70288  0.02098  1.0000
  N   N46       1.0  0.029810000000000024  0.72892  0.006030000000000001  1.0000
  N   N47       1.0  0.97689  0.69827  0.87018  1.0000
  N   N48       1.0  0.99132  0.7240500000000001  0.8998100000000001  1.0000
  N   N49       1.0  0.04764000000000003  0.75689  0.88399  1.0000
  N   N50       1.0  0.8553999999999999  0.76  0.9979400000000002  1.0000
  N   N51       1.0  0.87004  0.7185800000000001  0.01624  1.0000
  N   N52       1.0  0.83985  0.6753100000000001  0.0719  1.0000
  N   N53       1.0  0.97695  0.86567  0.90234  1.0000
  N   N54       1.0  0.9908500000000001  0.8235  0.92079  1.0000
  N   N55       1.0  0.04678999999999999  0.8515  0.90712  1.0000
  N   N56       1.0  0.8575199999999998  0.58721  0.97738  1.0000
  N   N57       1.0  0.8733100000000001  0.6172500000000001  0.0035400000000000006  1.0000
  N   N58       1.0  0.84747  0.57767  0.05992999999999999  1.0000
  N   N59       1.0  0.7961500000000001  0.5405600000000003  0.3976100000000001  1.0000
  N   N60       1.0  0.24392000000000005  0.9381700000000001  0.95889  1.0000
  N   N61       1.0  0.66102  0.28056999999999993  0.59769  1.0000
  N   N62       1.0  0.6350000000000002  0.2369100000000001  0.65352  1.0000
  N   N63       1.0  0.5786999999999998  0.20325  0.66943  1.0000
  N   N64       1.0  0.73933  0.16146  0.78455  1.0000
  N   N65       1.0  0.72406  0.20224000000000003  0.7716199999999999  1.0000
  N   N66       1.0  0.7352499999999998  0.22835000000000008  0.80153  1.0000
  N   N67       1.0  0.5688099999999999  0.1982399999999999  0.7786700000000001  1.0000
  N   N68       1.0  0.6242099999999999  0.22378999999999996  0.76759  1.0000
  N   N69       1.0  0.64117  0.25654000000000005  0.79112  1.0000
  N   N70       1.0  0.75809  0.25984  0.59567  1.0000
  N   N71       1.0  0.73498  0.21841000000000002  0.6518  1.0000
  N   N72       1.0  0.74731  0.17516  0.66492  1.0000
  N   N73       1.0  0.76814  0.36530000000000007  0.61161  1.0000
  N   N74       1.0  0.74452  0.32311  0.66778  1.0000
  N   N75       1.0  0.75878  0.3510499999999999  0.69574  1.0000
  N   N76       1.0  0.56475  0.08713000000000003  0.77066  1.0000
  N   N77       1.0  0.62097  0.11708000000000002  0.75656  1.0000
  N   N78       1.0  0.63763  0.07743000000000001  0.77036  1.0000
  N   N79       1.0  0.93839  0.04072  0.75524  1.0000
  N   N80       1.0  0.89718  0.43812999999999996  0.80604  1.0000
  N   N81       1.0  0.0977500000000001  0.7586700000000002  0.62155  1.0000
  N   N82       1.0  0.15355000000000016  0.7884100000000005  0.60949  1.0000
  N   N83       1.0  0.16944  0.74806  0.62731  1.0000
  N   N84       1.0  0.28449  0.023559999999999946  0.55413  1.0000
  N   N85       1.0  0.2717100000000001  0.9954000000000002  0.52621  1.0000
  N   N86       1.0  0.3017999999999999  0.03657999999999993  0.47015000000000007  1.0000
  N   N87       1.0  0.27883  0.84734  0.52328  1.0000
  N   N88       1.0  0.2678100000000001  0.8916300000000003  0.50878  1.0000
  N   N89       1.0  0.29134000000000015  0.9321200000000002  0.45245  1.0000
  N   N90       1.0  0.09569000000000005  0.8535400000000002  0.64442  1.0000
  N   N91       1.0  0.15183000000000005  0.88661  0.62964  1.0000
  N   N92       1.0  0.16496000000000002  0.9121000000000002  0.65977  1.0000
  N   N93       1.0  0.11198000000000016  0.8797400000000003  0.52287  1.0000
  N   N94       1.0  0.16813000000000006  0.91222  0.50888  1.0000
  N   N95       1.0  0.19609000000000001  0.95452  0.45293  1.0000
  N   N96       1.0  0.27061999999999997  0.83525  0.64263  1.0000
  N   N97       1.0  0.25657000000000024  0.8773600000000005  0.62664  1.0000
  N   N98       1.0  0.27048000000000005  0.90796  0.65238  1.0000
  N   N99       1.0  0.2554500000000001  0.19382000000000008  0.7037299999999999  1.0000
  N   N100      1.0  0.30585  0.2028000000000001  0.25615  1.0000
  N   N101      1.0  0.38015  0.2586300000000001  0.83906  1.0000
  N   N102      1.0  0.39764000000000005  0.28840000000000005  0.86509  1.0000
  N   N103      1.0  0.3750299999999999  0.24803999999999995  0.9214  1.0000
  N   N104      1.0  0.57707  0.52299  0.76091  1.0000
  N   N105      1.0  0.5209700000000002  0.4948600000000001  0.77612  1.0000
  N   N106      1.0  0.50607  0.53597  0.76497  1.0000
  N   N107      1.0  0.3700800000000001  0.34724  0.93142  1.0000
  N   N108      1.0  0.39973  0.39137  0.87597  1.0000
  N   N109      1.0  0.38394000000000006  0.4318500000000001  0.85899  1.0000
  N   N110      1.0  0.49800000000000005  0.3534900000000001  0.7419999999999999  1.0000
  N   N111      1.0  0.5162800000000001  0.3864999999999999  0.7650600000000001  1.0000
  N   N112      1.0  0.5719400000000001  0.4119900000000001  0.7527  1.0000
  N   N113      1.0  0.40231  0.37936000000000014  0.7318200000000001  1.0000
  N   N114      1.0  0.42079000000000005  0.41177000000000014  0.7555099999999999  1.0000
  N   N115      1.0  0.40709000000000006  0.4539500000000001  0.74117  1.0000
  N   N116      1.0  0.4772700000000002  0.3350300000000002  0.93552  1.0000
  N   N117      1.0  0.50342  0.3771100000000001  0.87926  1.0000
  N   N118      1.0  0.5598000000000002  0.40765000000000007  0.86245  1.0000
  N   N119      1.0  0.8978  0.6938600000000001  0.56155  1.0000
  N   N120      1.0  0.4590900000000003  0.7033000000000005  0.60247  1.0000
  N   N121      1.0  0.61985  0.74136  0.16094  1.0000
  N   N122      1.0  0.6023600000000001  0.7116000000000001  0.13491  1.0000
  N   N123      1.0  0.6249699999999999  0.7519600000000002  0.0786  1.0000
  N   N124      1.0  0.42293  0.47701000000000005  0.23908999999999997  1.0000
  N   N125      1.0  0.47903  0.50514  0.22388  1.0000
  N   N126      1.0  0.49393  0.46403000000000005  0.23503  1.0000
  N   N127      1.0  0.6299200000000001  0.6527600000000002  0.06858  1.0000
  N   N128      1.0  0.6002699999999999  0.60862  0.12403  1.0000
  N   N129      1.0  0.61606  0.56815  0.14101  1.0000
  N   N130      1.0  0.502  0.6465100000000001  0.258  1.0000
  N   N131      1.0  0.48371999999999993  0.61349  0.23494  1.0000
  N   N132      1.0  0.42806000000000005  0.588  0.2473  1.0000
  N   N133      1.0  0.59769  0.62064  0.26818  1.0000
  N   N134      1.0  0.57921  0.5882200000000002  0.24449  1.0000
  N   N135      1.0  0.59291  0.54604  0.25883  1.0000
  N   N136      1.0  0.52273  0.66497  0.06448  1.0000
  N   N137      1.0  0.4965800000000001  0.6228800000000002  0.12074  1.0000
  N   N138      1.0  0.4402  0.59235  0.13755  1.0000
  N   N139      1.0  0.10219999999999997  0.30613999999999997  0.43845000000000006  1.0000
  N   N140      1.0  0.54091  0.2966900000000001  0.39752  1.0000
  N   N141      1.0  0.90225  0.24133000000000002  0.37845  1.0000
  N   N142      1.0  0.8464499999999999  0.21159000000000003  0.39051  1.0000
  N   N143      1.0  0.8305600000000001  0.25193  0.37269  1.0000
  N   N144      1.0  0.71551  0.97644  0.44587  1.0000
  N   N145      1.0  0.7282900000000001  0.004599999999999991  0.47379000000000004  1.0000
  N   N146      1.0  0.6982  0.96341  0.52985  1.0000
  N   N147      1.0  0.7211699999999999  0.15265999999999996  0.47672000000000003  1.0000
  N   N148      1.0  0.7321900000000001  0.10836000000000003  0.49122  1.0000
  N   N149      1.0  0.70866  0.06787999999999995  0.54755  1.0000
  N   N150      1.0  0.9043100000000001  0.14645  0.35558  1.0000
  N   N151      1.0  0.84817  0.11338999999999996  0.3703600000000001  1.0000
  N   N152      1.0  0.83504  0.08789999999999999  0.34023  1.0000
  N   N153      1.0  0.88802  0.12025999999999996  0.47713000000000005  1.0000
  N   N154      1.0  0.8318700000000001  0.08778000000000004  0.49112  1.0000
  N   N155      1.0  0.80391  0.04548000000000013  0.54707  1.0000
  N   N156      1.0  0.72938  0.16474999999999998  0.35737  1.0000
  N   N157      1.0  0.74343  0.12263000000000002  0.37336  1.0000
  N   N158      1.0  0.72952  0.09204  0.34762  1.0000
  N   N159      1.0  0.74455  0.80617  0.29627  1.0000
  N   N160      1.0  0.6941499999999998  0.7971999999999999  0.74385  1.0000
  O   O1        1.0  0.28172000000000014  0.9708600000000002  0.20175  1.0000
  O   O2        1.0  0.19673  0.88869  0.26867  1.0000
  O   O3        1.0  0.15501  0.13408000000000003  0.08910999999999998  1.0000
  O   O4        1.0  0.07835  0.06852  0.17037  1.0000
  O   O5        1.0  0.26982000000000006  0.6509000000000001  0.18635999999999997  1.0000
  O   O6        1.0  0.18793  0.64561  0.20046  1.0000
  O   O7        1.0  0.17173  0.41693  0.13109  1.0000
  O   O8        1.0  0.09213000000000002  0.41458000000000006  0.13527  1.0000
  O   O9        1.0  0.1722700000000001  0.47060000000000024  0.81117  1.0000
  O   O10       1.0  0.15859000000000004  0.38922000000000007  0.80793  1.0000
  O   O11       1.0  0.2229500000000001  0.6340800000000001  0.52087  1.0000
  O   O12       1.0  0.23876000000000008  0.5687400000000001  0.50971  1.0000
  O   O13       1.0  0.8371800000000001  0.15078  0.11916  1.0000
  O   O14       1.0  0.8462000000000001  0.14545000000000002  0.04256999999999999  1.0000
  O   O15       1.0  0.54783  0.91694  0.25482  1.0000
  O   O16       1.0  0.54981  0.9144  0.17764000000000002  1.0000
  O   O17       1.0  0.8277300000000002  0.5294000000000002  0.18883  1.0000
  O   O18       1.0  0.84141  0.6107800000000001  0.19207  1.0000
  O   O19       1.0  0.7770500000000001  0.36591000000000007  0.47913  1.0000
  O   O20       1.0  0.7612400000000001  0.43125000000000013  0.49029  1.0000
  O   O21       1.0  0.16282  0.8492200000000002  0.8808400000000001  1.0000
  O   O22       1.0  0.15380000000000005  0.8545500000000001  0.9574299999999999  1.0000
  O   O23       1.0  0.45217  0.08305000000000003  0.74518  1.0000
  O   O24       1.0  0.45019  0.08559000000000001  0.82236  1.0000
  O   O25       1.0  0.71828  0.029140000000000024  0.79825  1.0000
  O   O26       1.0  0.80327  0.11130999999999999  0.73133  1.0000
  O   O27       1.0  0.8449900000000002  0.8659200000000002  0.91089  1.0000
  O   O28       1.0  0.92165  0.9314799999999999  0.8296300000000001  1.0000
  O   O29       1.0  0.7301799999999999  0.3491  0.81364  1.0000
  O   O30       1.0  0.81207  0.35439  0.79954  1.0000
  O   O31       1.0  0.8282699999999998  0.58306  0.86891  1.0000
  O   O32       1.0  0.90787  0.58542  0.86473  1.0000
  O   O33       1.0  0.2978900000000001  0.016270000000000017  0.67304  1.0000
  O   O34       1.0  0.23121999999999998  0.03456999999999995  0.65738  1.0000
  O   O35       1.0  0.41104  0.25594  0.72311  1.0000
  O   O36       1.0  0.32987  0.25139  0.7387800000000001  1.0000
  O   O37       1.0  0.31403  0.04393  0.33717  1.0000
  O   O38       1.0  0.29935  0.11116000000000002  0.34636  1.0000
  O   O39       1.0  0.36907  0.19740000000000005  0.04789  1.0000
  O   O40       1.0  0.36411  0.27229  0.04988  1.0000
  O   O41       1.0  0.6889299999999999  0.51594  0.78173  1.0000
  O   O42       1.0  0.69194  0.5344099999999999  0.6966200000000001  1.0000
  O   O43       1.0  0.97912  0.75622  0.65498  1.0000
  O   O44       1.0  0.9903800000000001  0.7516800000000002  0.57836  1.0000
  O   O45       1.0  0.38094999999999996  0.5438099999999999  0.7696200000000001  1.0000
  O   O46       1.0  0.45757  0.61132  0.68763  1.0000
  O   O47       1.0  0.24528  0.69738  0.6725  1.0000
  O   O48       1.0  0.32212  0.77233  0.59235  1.0000
  O   O49       1.0  0.3110700000000002  0.4840500000000002  0.21827  1.0000
  O   O50       1.0  0.30806  0.46558000000000005  0.30338  1.0000
  O   O51       1.0  0.02087999999999997  0.24376999999999996  0.34502000000000005  1.0000
  O   O52       1.0  0.009619999999999998  0.24832  0.42164  1.0000
  O   O53       1.0  0.61905  0.4561900000000001  0.23038  1.0000
  O   O54       1.0  0.54243  0.38867999999999997  0.31237  1.0000
  O   O55       1.0  0.75472  0.30262  0.3275  1.0000
  O   O56       1.0  0.67788  0.22767  0.40765  1.0000
  O   O57       1.0  0.7021100000000002  0.9837300000000002  0.32696  1.0000
  O   O58       1.0  0.7687800000000001  0.9654200000000002  0.34262  1.0000
  O   O59       1.0  0.58896  0.7440600000000002  0.27689  1.0000
  O   O60       1.0  0.67013  0.74861  0.26122  1.0000
  O   O61       1.0  0.6859699999999999  0.9560700000000001  0.66283  1.0000
  O   O62       1.0  0.7006500000000001  0.8888400000000001  0.65364  1.0000
  O   O63       1.0  0.6309299999999999  0.8025999999999999  0.95211  1.0000
  O   O64       1.0  0.6358899999999998  0.7277099999999999  0.95012  1.0000
