data_image0
_chemical_formula_structural       Zn36Si16H264C448O136
_chemical_formula_sum              "Zn36 Si16 H264 C448 O136"
_cell_length_a       25.78253
_cell_length_b       29.862639999999995
_cell_length_c       39.24924
_cell_angle_alpha    89.99900999999998
_cell_angle_beta     99.82638
_cell_angle_gamma    90.00045

_symmetry_space_group_name_H-M    'P 1'
_symmetry_Int_Tables_number       1

loop_
  _symmetry_equiv_pos_as_xyz
  'x,y,z'

loop_
  _atom_site_type_symbol
  _atom_site_label
  _atom_site_symmetry_multiplicity
  _atom_site_fract_x
  _atom_site_fract_y
  _atom_site_fract_z
  _atom_site_occupancy
  Zn  Zn1       1.0  0.23862  0.55419  0.55086  1.0000
  Zn  Zn2       1.0  0.25701  0.6058800000000002  0.48098000000000013  1.0000
  Zn  Zn3       1.0  0.07946  0.39461000000000007  0.16138  1.0000
  Zn  Zn4       1.0  0.98506  0.44899000000000006  0.16275000000000003  1.0000
  Zn  Zn5       1.0  0.34059  0.6057100000000002  0.56026  1.0000
  Zn  Zn6       1.0  0.23508  0.65762  0.54781  1.0000
  Zn  Zn7       1.0  0.53523  0.8426400000000002  0.86108  1.0000
  Zn  Zn8       1.0  0.4781500000000001  0.3621700000000001  0.8296300000000001  1.0000
  Zn  Zn9       1.0  0.52465  0.5990600000000003  0.10017  1.0000
  Zn  Zn10      1.0  0.26138  0.0542  0.44915000000000005  1.0000
  Zn  Zn11      1.0  0.243  0.10589000000000001  0.51903  1.0000
  Zn  Zn12      1.0  0.42053  0.8946  0.83862  1.0000
  Zn  Zn13      1.0  0.51494  0.9489800000000003  0.83725  1.0000
  Zn  Zn14      1.0  0.15942  0.10571000000000003  0.43975  1.0000
  Zn  Zn15      1.0  0.26493  0.15763000000000005  0.45220000000000005  1.0000
  Zn  Zn16      1.0  0.9647499999999999  0.3426200000000001  0.1389  1.0000
  Zn  Zn17      1.0  0.02183999999999999  0.8621900000000002  0.17036  1.0000
  Zn  Zn18      1.0  0.97535  0.09906000000000002  0.8998200000000001  1.0000
  Zn  Zn19      1.0  0.76139  0.44581  0.44917000000000007  1.0000
  Zn  Zn20      1.0  0.743  0.3941000000000001  0.51904  1.0000
  Zn  Zn21      1.0  0.92052  0.6053900000000002  0.83862  1.0000
  Zn  Zn22      1.0  0.014930000000000011  0.5510100000000002  0.83725  1.0000
  Zn  Zn23      1.0  0.65943  0.3942900000000001  0.43974000000000013  1.0000
  Zn  Zn24      1.0  0.76493  0.3423700000000001  0.45220000000000005  1.0000
  Zn  Zn25      1.0  0.46476  0.15737  0.13891  1.0000
  Zn  Zn26      1.0  0.52184  0.63781  0.17035  1.0000
  Zn  Zn27      1.0  0.47536  0.4009300000000001  0.8998200000000001  1.0000
  Zn  Zn28      1.0  0.73862  0.94579  0.55086  1.0000
  Zn  Zn29      1.0  0.7570100000000002  0.89412  0.48098000000000013  1.0000
  Zn  Zn30      1.0  0.57947  0.10539000000000003  0.16138  1.0000
  Zn  Zn31      1.0  0.48506  0.051010000000000014  0.16275000000000003  1.0000
  Zn  Zn32      1.0  0.8405899999999998  0.89429  0.56026  1.0000
  Zn  Zn33      1.0  0.73508  0.8423700000000002  0.54781  1.0000
  Zn  Zn34      1.0  0.035229999999999984  0.6573400000000003  0.86108  1.0000
  Zn  Zn35      1.0  0.9781500000000001  0.13781  0.8296400000000002  1.0000
  Zn  Zn36      1.0  0.02465  0.90094  0.10018  1.0000
  Si  Si1       1.0  0.06488000000000001  0.38364000000000004  0.3844900000000001  1.0000
  Si  Si2       1.0  0.32242  0.62069  0.78117  1.0000
  Si  Si3       1.0  0.18557000000000004  0.6477900000000001  0.08096000000000002  1.0000
  Si  Si4       1.0  0.45661  0.33101  0.60778  1.0000
  Si  Si5       1.0  0.43512000000000006  0.8836400000000002  0.6155200000000002  1.0000
  Si  Si6       1.0  0.17758  0.12069  0.21883  1.0000
  Si  Si7       1.0  0.31443  0.14778  0.9190500000000001  1.0000
  Si  Si8       1.0  0.04339000000000003  0.83102  0.3922200000000001  1.0000
  Si  Si9       1.0  0.93512  0.61635  0.6155200000000002  1.0000
  Si  Si10      1.0  0.67758  0.3793100000000001  0.21883  1.0000
  Si  Si11      1.0  0.81442  0.3522000000000001  0.9190500000000001  1.0000
  Si  Si12      1.0  0.5434  0.6689800000000002  0.3922200000000001  1.0000
  Si  Si13      1.0  0.56488  0.11635  0.3844800000000001  1.0000
  Si  Si14      1.0  0.82242  0.8793100000000003  0.78117  1.0000
  Si  Si15      1.0  0.68557  0.85221  0.08096000000000002  1.0000
  Si  Si16      1.0  0.95661  0.16898000000000005  0.60778  1.0000
  H   H1        1.0  0.0005400000000000014  0.60099  0.89104  1.0000
  H   H2        1.0  0.7494299999999999  0.3397700000000001  0.57352  1.0000
  H   H3        1.0  0.18419  0.51945  0.40169  1.0000
  H   H4        1.0  0.12687  0.4637600000000001  0.36564  1.0000
  H   H5        1.0  0.10344000000000003  0.39495  0.45850000000000013  1.0000
  H   H6        1.0  0.15831  0.4524900000000001  0.49396000000000007  1.0000
  H   H7        1.0  0.92495  0.4537600000000001  0.44262000000000007  1.0000
  H   H8        1.0  0.014479999999999998  0.44937000000000005  0.4266  1.0000
  H   H9        1.0  0.966  0.3323800000000001  0.3647200000000001  1.0000
  H   H10       1.0  0.8790300000000001  0.3345200000000001  0.38418000000000013  1.0000
  H   H11       1.0  0.06250999999999998  0.22666  0.43362  1.0000
  H   H12       1.0  0.021830000000000013  0.30016  0.41470000000000007  1.0000
  H   H13       1.0  0.16875  0.3431300000000001  0.3867  1.0000
  H   H14       1.0  0.20797  0.26915  0.40493000000000007  1.0000
  H   H15       1.0  0.11614999999999999  0.36359  0.2665  1.0000
  H   H16       1.0  0.12313000000000002  0.34715  0.32922000000000007  1.0000
  H   H17       1.0  0.99592  0.4393800000000001  0.3345700000000001  1.0000
  H   H18       1.0  0.98888  0.4546100000000001  0.27156  1.0000
  H   H19       1.0  0.17972000000000002  0.5357900000000002  0.8265400000000002  1.0000
  H   H20       1.0  0.26726  0.5448900000000002  0.8091400000000002  1.0000
  H   H21       1.0  0.2299200000000001  0.6829100000000002  0.7828500000000003  1.0000
  H   H22       1.0  0.14380999999999997  0.6734200000000002  0.80134  1.0000
  H   H23       1.0  0.3871  0.6369  0.66849  1.0000
  H   H24       1.0  0.3909500000000001  0.64859  0.7318100000000002  1.0000
  H   H25       1.0  0.23992  0.58374  0.7251  1.0000
  H   H26       1.0  0.23657  0.5734900000000003  0.66154  1.0000
  H   H27       1.0  0.33559  0.7882500000000002  0.79732  1.0000
  H   H28       1.0  0.29320000000000007  0.71829  0.77277  1.0000
  H   H29       1.0  0.42802  0.64297  0.8223500000000002  1.0000
  H   H30       1.0  0.47221  0.7140400000000002  0.8434800000000001  1.0000
  H   H31       1.0  0.42808000000000007  0.4767000000000001  0.7877400000000002  1.0000
  H   H32       1.0  0.37958  0.54123  0.75631  1.0000
  H   H33       1.0  0.3546  0.5965600000000002  0.85371  1.0000
  H   H34       1.0  0.4024  0.5321  0.88458  1.0000
  H   H35       1.0  0.17481  0.48992000000000013  0.12307000000000003  1.0000
  H   H36       1.0  0.22017  0.5547  0.1012  1.0000
  H   H37       1.0  0.08915  0.6395  0.1135  1.0000
  H   H38       1.0  0.04438000000000002  0.5743000000000003  0.13513000000000003  1.0000
  H   H39       1.0  0.36125999999999997  0.5940600000000001  0.05718  1.0000
  H   H40       1.0  0.26383  0.6018600000000002  0.04432  1.0000
  H   H41       1.0  0.26987  0.6870200000000002  0.13376000000000002  1.0000
  H   H42       1.0  0.36721  0.67796  0.1467  1.0000
  H   H43       1.0  0.12489000000000001  0.7588500000000002  0.16324000000000002  1.0000
  H   H44       1.0  0.1667  0.6878300000000003  0.14882  1.0000
  H   H45       1.0  0.15067  0.73043  0.04246  1.0000
  H   H46       1.0  0.11011  0.80134  0.05743  1.0000
  H   H47       1.0  0.03812000000000003  0.60255  0.9882600000000001  1.0000
  H   H48       1.0  0.08901  0.60374  0.047970000000000006  1.0000
  H   H49       1.0  0.21376999999999996  0.6755400000000003  0.01111  1.0000
  H   H50       1.0  0.16121  0.6751000000000003  0.95165  1.0000
  H   H51       1.0  0.44570999999999994  0.4935700000000001  0.57004  1.0000
  H   H52       1.0  0.49337999999999993  0.42269  0.5884500000000001  1.0000
  H   H53       1.0  0.34486000000000006  0.35758  0.5917300000000001  1.0000
  H   H54       1.0  0.29837  0.42872  0.57373  1.0000
  H   H55       1.0  0.43754999999999994  0.3954300000000001  0.72242  1.0000
  H   H56       1.0  0.42691000000000007  0.39376  0.6583200000000001  1.0000
  H   H57       1.0  0.49828  0.26246  0.6640700000000002  1.0000
  H   H58       1.0  0.5065900000000001  0.26451  0.7281400000000002  1.0000
  H   H59       1.0  0.35071  0.18650000000000005  0.59557  1.0000
  H   H60       1.0  0.41106  0.24201000000000006  0.62835  1.0000
  H   H61       1.0  0.40662  0.31955  0.5352  1.0000
  H   H62       1.0  0.34772  0.26321000000000006  0.50256  1.0000
  H   H63       1.0  0.5827200000000001  0.3480000000000001  0.5242800000000001  1.0000
  H   H64       1.0  0.49547  0.33545  0.5407900000000001  1.0000
  H   H65       1.0  0.5680000000000001  0.3314300000000001  0.64831  1.0000
  H   H66       1.0  0.65577  0.34051  0.63133  1.0000
  H   H67       1.0  0.49949  0.10104  0.10897  1.0000
  H   H68       1.0  0.7505700000000001  0.8398  0.42648  1.0000
  H   H69       1.0  0.31582  0.019450000000000005  0.59831  1.0000
  H   H70       1.0  0.37312999999999996  0.9637600000000002  0.6343600000000003  1.0000
  H   H71       1.0  0.39656  0.8949500000000001  0.5415100000000002  1.0000
  H   H72       1.0  0.34168999999999994  0.9524900000000002  0.50604  1.0000
  H   H73       1.0  0.5750499999999997  0.95376  0.55738  1.0000
  H   H74       1.0  0.48552000000000006  0.94936  0.5734000000000002  1.0000
  H   H75       1.0  0.53399  0.83238  0.63528  1.0000
  H   H76       1.0  0.62096  0.8345100000000002  0.6158100000000001  1.0000
  H   H77       1.0  0.4375  0.7266700000000003  0.56638  1.0000
  H   H78       1.0  0.47817  0.8001700000000003  0.5853  1.0000
  H   H79       1.0  0.33125  0.8431300000000003  0.6133  1.0000
  H   H80       1.0  0.29203  0.76915  0.59506  1.0000
  H   H81       1.0  0.38386  0.8635900000000002  0.73351  1.0000
  H   H82       1.0  0.37687  0.84715  0.6707900000000001  1.0000
  H   H83       1.0  0.50408  0.9393800000000002  0.66544  1.0000
  H   H84       1.0  0.51112  0.9546000000000002  0.72844  1.0000
  H   H85       1.0  0.32028  0.03579  0.17346000000000003  1.0000
  H   H86       1.0  0.23274  0.04489  0.19086  1.0000
  H   H87       1.0  0.27008  0.18291000000000002  0.21714  1.0000
  H   H88       1.0  0.35619999999999996  0.17342000000000005  0.19866  1.0000
  H   H89       1.0  0.1129  0.13690000000000005  0.33151  1.0000
  H   H90       1.0  0.10905  0.14859  0.26818000000000003  1.0000
  H   H91       1.0  0.26009  0.08374  0.27489  1.0000
  H   H92       1.0  0.26344  0.07348000000000003  0.33845  1.0000
  H   H93       1.0  0.16443  0.2882600000000001  0.20268  1.0000
  H   H94       1.0  0.20681  0.21830000000000005  0.22723000000000004  1.0000
  H   H95       1.0  0.07199  0.14299000000000003  0.17765000000000003  1.0000
  H   H96       1.0  0.027800000000000002  0.21405  0.15652  1.0000
  H   H97       1.0  0.07193  0.9767000000000002  0.21227  1.0000
  H   H98       1.0  0.12043  0.04123  0.2437  1.0000
  H   H99       1.0  0.1454  0.09656  0.14629  1.0000
  H   H100      1.0  0.0976  0.03209  0.11543  1.0000
  H   H101      1.0  0.3251800000000001  0.9899200000000002  0.8769300000000001  1.0000
  H   H102      1.0  0.2798300000000001  0.054690000000000016  0.8988100000000001  1.0000
  H   H103      1.0  0.41084  0.13949  0.8865000000000001  1.0000
  H   H104      1.0  0.45561  0.07431  0.86486  1.0000
  H   H105      1.0  0.13869  0.09405000000000002  0.9428  1.0000
  H   H106      1.0  0.23612  0.10185000000000002  0.95569  1.0000
  H   H107      1.0  0.23015  0.18704000000000004  0.86628  1.0000
  H   H108      1.0  0.13281000000000004  0.17798  0.8533000000000001  1.0000
  H   H109      1.0  0.37513  0.25884  0.8367600000000001  1.0000
  H   H110      1.0  0.33333  0.18780000000000005  0.8511800000000002  1.0000
  H   H111      1.0  0.34930999999999995  0.23043000000000005  0.95753  1.0000
  H   H112      1.0  0.38984  0.30136  0.94255  1.0000
  H   H113      1.0  0.4619  0.10257  0.01176  1.0000
  H   H114      1.0  0.41104  0.10374000000000003  0.9520400000000001  1.0000
  H   H115      1.0  0.28623  0.17553000000000002  0.98887  1.0000
  H   H116      1.0  0.33879  0.17509  0.048350000000000004  1.0000
  H   H117      1.0  0.05429000000000002  0.99357  0.4299800000000001  1.0000
  H   H118      1.0  0.006620000000000019  0.9226900000000002  0.41156000000000004  1.0000
  H   H119      1.0  0.15514  0.8575900000000002  0.4082800000000001  1.0000
  H   H120      1.0  0.20163000000000006  0.9287200000000002  0.4262800000000001  1.0000
  H   H121      1.0  0.0624  0.89531  0.27751  1.0000
  H   H122      1.0  0.07304  0.8937600000000002  0.34160000000000007  1.0000
  H   H123      1.0  0.0016900000000000018  0.7624600000000001  0.33598  1.0000
  H   H124      1.0  0.99338  0.76438  0.27191000000000004  1.0000
  H   H125      1.0  0.14929999999999996  0.6865  0.40446  1.0000
  H   H126      1.0  0.08896  0.7420000000000002  0.37166  1.0000
  H   H127      1.0  0.09337  0.8195600000000002  0.46481000000000006  1.0000
  H   H128      1.0  0.15226000000000003  0.7632200000000001  0.49746000000000007  1.0000
  H   H129      1.0  0.9172699999999999  0.8479900000000002  0.47573000000000004  1.0000
  H   H130      1.0  0.004519999999999998  0.8354400000000002  0.45922  1.0000
  H   H131      1.0  0.932  0.8314200000000003  0.3516900000000001  1.0000
  H   H132      1.0  0.84423  0.8405  0.36868  1.0000
  H   H133      1.0  0.99953  0.39891  0.10896000000000002  1.0000
  H   H134      1.0  0.25057  0.6602000000000002  0.42648  1.0000
  H   H135      1.0  0.81582  0.48054  0.59832  1.0000
  H   H136      1.0  0.8731299999999999  0.53623  0.6343600000000003  1.0000
  H   H137      1.0  0.89657  0.60505  0.5415100000000002  1.0000
  H   H138      1.0  0.84169  0.54751  0.50605  1.0000
  H   H139      1.0  0.07503999999999998  0.5462300000000001  0.55738  1.0000
  H   H140      1.0  0.98552  0.5506200000000001  0.5734000000000002  1.0000
  H   H141      1.0  0.034000000000000016  0.66761  0.63528  1.0000
  H   H142      1.0  0.12097000000000002  0.6654700000000002  0.6158100000000001  1.0000
  H   H143      1.0  0.9375  0.77333  0.56638  1.0000
  H   H144      1.0  0.97817  0.69983  0.5853  1.0000
  H   H145      1.0  0.83125  0.65687  0.61331  1.0000
  H   H146      1.0  0.7920300000000002  0.7308400000000003  0.59506  1.0000
  H   H147      1.0  0.8838599999999999  0.6364  0.73351  1.0000
  H   H148      1.0  0.87687  0.6528500000000003  0.6707900000000001  1.0000
  H   H149      1.0  0.004079999999999993  0.56062  0.66544  1.0000
  H   H150      1.0  0.011120000000000034  0.54539  0.7284500000000002  1.0000
  H   H151      1.0  0.82029  0.46421  0.17346000000000003  1.0000
  H   H152      1.0  0.73275  0.45511  0.19085  1.0000
  H   H153      1.0  0.77008  0.31709  0.21714  1.0000
  H   H154      1.0  0.85619  0.32657  0.19865  1.0000
  H   H155      1.0  0.6128900000000003  0.3631  0.33151  1.0000
  H   H156      1.0  0.60905  0.3514  0.26818000000000003  1.0000
  H   H157      1.0  0.76008  0.41626000000000013  0.27490000000000003  1.0000
  H   H158      1.0  0.76343  0.42651  0.33846  1.0000
  H   H159      1.0  0.66441  0.21174000000000004  0.20267  1.0000
  H   H160      1.0  0.7068099999999999  0.2817  0.22723000000000004  1.0000
  H   H161      1.0  0.57198  0.3570200000000001  0.17766000000000004  1.0000
  H   H162      1.0  0.52779  0.2859600000000001  0.15652  1.0000
  H   H163      1.0  0.57193  0.52329  0.21226000000000003  1.0000
  H   H164      1.0  0.62043  0.4587700000000001  0.24369  1.0000
  H   H165      1.0  0.6454  0.40344000000000013  0.14629  1.0000
  H   H166      1.0  0.5976  0.4679000000000001  0.11542  1.0000
  H   H167      1.0  0.8251799999999999  0.51007  0.8769300000000001  1.0000
  H   H168      1.0  0.77983  0.4453  0.8988100000000001  1.0000
  H   H169      1.0  0.91084  0.3605  0.8865000000000001  1.0000
  H   H170      1.0  0.95562  0.42569  0.86487  1.0000
  H   H171      1.0  0.6387  0.40593000000000007  0.94278  1.0000
  H   H172      1.0  0.7361200000000001  0.39812  0.9556800000000001  1.0000
  H   H173      1.0  0.73016  0.31292  0.86627  1.0000
  H   H174      1.0  0.63282  0.32199  0.85328  1.0000
  H   H175      1.0  0.87511  0.24115  0.8367600000000001  1.0000
  H   H176      1.0  0.83332  0.31219  0.8511800000000002  1.0000
  H   H177      1.0  0.84931  0.26956  0.9575400000000001  1.0000
  H   H178      1.0  0.88985  0.19864  0.94256  1.0000
  H   H179      1.0  0.96188  0.3974100000000001  0.01176  1.0000
  H   H180      1.0  0.9110100000000001  0.39625  0.9520400000000001  1.0000
  H   H181      1.0  0.78621  0.32445  0.98887  1.0000
  H   H182      1.0  0.83877  0.32489  0.048350000000000004  1.0000
  H   H183      1.0  0.55429  0.50643  0.4299800000000001  1.0000
  H   H184      1.0  0.50663  0.57731  0.41156000000000004  1.0000
  H   H185      1.0  0.65514  0.64241  0.4082800000000001  1.0000
  H   H186      1.0  0.70164  0.5712700000000002  0.4262800000000001  1.0000
  H   H187      1.0  0.56239  0.60471  0.27749  1.0000
  H   H188      1.0  0.57303  0.60624  0.34159000000000006  1.0000
  H   H189      1.0  0.5017000000000001  0.73754  0.33599  1.0000
  H   H190      1.0  0.49337999999999993  0.73564  0.27192000000000005  1.0000
  H   H191      1.0  0.6493  0.81351  0.40447  1.0000
  H   H192      1.0  0.58898  0.758  0.37167  1.0000
  H   H193      1.0  0.59337  0.68043  0.46481000000000006  1.0000
  H   H194      1.0  0.65225  0.73676  0.49746000000000007  1.0000
  H   H195      1.0  0.41728  0.652  0.47573000000000004  1.0000
  H   H196      1.0  0.50453  0.66456  0.45922  1.0000
  H   H197      1.0  0.43199999999999994  0.66858  0.3516900000000001  1.0000
  H   H198      1.0  0.3442299999999999  0.65949  0.36868  1.0000
  H   H199      1.0  0.50055  0.899  0.8910300000000001  1.0000
  H   H200      1.0  0.24943000000000004  0.16021  0.5735300000000001  1.0000
  H   H201      1.0  0.68419  0.9805400000000002  0.40169  1.0000
  H   H202      1.0  0.62688  0.03624  0.36564  1.0000
  H   H203      1.0  0.60344  0.10505  0.4584900000000001  1.0000
  H   H204      1.0  0.65831  0.04751  0.49396000000000007  1.0000
  H   H205      1.0  0.42495  0.04624000000000002  0.44262000000000007  1.0000
  H   H206      1.0  0.51448  0.050630000000000015  0.4266  1.0000
  H   H207      1.0  0.46601  0.16761000000000006  0.3647200000000001  1.0000
  H   H208      1.0  0.37903  0.16548  0.38418000000000013  1.0000
  H   H209      1.0  0.5625  0.27333  0.43361  1.0000
  H   H210      1.0  0.52183  0.19983  0.41470000000000007  1.0000
  H   H211      1.0  0.66875  0.15687000000000004  0.38669  1.0000
  H   H212      1.0  0.7079699999999999  0.23084  0.40493000000000007  1.0000
  H   H213      1.0  0.61614  0.13641000000000006  0.26649  1.0000
  H   H214      1.0  0.62314  0.15285000000000007  0.32922000000000007  1.0000
  H   H215      1.0  0.49591999999999997  0.060620000000000014  0.3345600000000001  1.0000
  H   H216      1.0  0.4888799999999999  0.045390000000000014  0.27156  1.0000
  H   H217      1.0  0.6797199999999999  0.9642000000000002  0.8265400000000002  1.0000
  H   H218      1.0  0.76726  0.9551000000000002  0.8091400000000002  1.0000
  H   H219      1.0  0.7299199999999999  0.8170800000000003  0.7828500000000003  1.0000
  H   H220      1.0  0.64381  0.82657  0.80134  1.0000
  H   H221      1.0  0.8871000000000002  0.8631000000000001  0.6684800000000002  1.0000
  H   H222      1.0  0.89096  0.8514100000000002  0.7318100000000002  1.0000
  H   H223      1.0  0.7399199999999999  0.9162600000000002  0.7251100000000001  1.0000
  H   H224      1.0  0.73656  0.92651  0.66155  1.0000
  H   H225      1.0  0.83559  0.71174  0.7973300000000001  1.0000
  H   H226      1.0  0.7932  0.7817000000000002  0.77276  1.0000
  H   H227      1.0  0.92802  0.85702  0.8223500000000002  1.0000
  H   H228      1.0  0.97221  0.78595  0.8434800000000001  1.0000
  H   H229      1.0  0.92808  0.0233  0.7877400000000002  1.0000
  H   H230      1.0  0.8795699999999999  0.9587700000000002  0.75631  1.0000
  H   H231      1.0  0.8546  0.90343  0.85371  1.0000
  H   H232      1.0  0.9024  0.96789  0.88457  1.0000
  H   H233      1.0  0.6748100000000001  0.01008  0.12307000000000003  1.0000
  H   H234      1.0  0.72017  0.94531  0.1012  1.0000
  H   H235      1.0  0.58916  0.8605000000000002  0.11351000000000001  1.0000
  H   H236      1.0  0.54438  0.92569  0.13513000000000003  1.0000
  H   H237      1.0  0.86126  0.9059500000000003  0.05718  1.0000
  H   H238      1.0  0.76383  0.89814  0.04432  1.0000
  H   H239      1.0  0.76987  0.81298  0.13376000000000002  1.0000
  H   H240      1.0  0.8672099999999999  0.8220500000000002  0.14671  1.0000
  H   H241      1.0  0.62488  0.7411400000000002  0.16323000000000001  1.0000
  H   H242      1.0  0.6666900000000001  0.81217  0.14882  1.0000
  H   H243      1.0  0.65067  0.7695800000000003  0.04246  1.0000
  H   H244      1.0  0.61012  0.6986600000000002  0.05743  1.0000
  H   H245      1.0  0.5381200000000002  0.89743  0.9882500000000002  1.0000
  H   H246      1.0  0.58901  0.8962600000000002  0.047970000000000006  1.0000
  H   H247      1.0  0.71378  0.82446  0.01112  1.0000
  H   H248      1.0  0.66121  0.82489  0.95165  1.0000
  H   H249      1.0  0.94572  0.006430000000000002  0.57003  1.0000
  H   H250      1.0  0.9933800000000003  0.07731  0.5884500000000001  1.0000
  H   H251      1.0  0.84486  0.14241000000000006  0.59174  1.0000
  H   H252      1.0  0.79837  0.07127  0.57373  1.0000
  H   H253      1.0  0.93754  0.10456  0.72242  1.0000
  H   H254      1.0  0.92691  0.10622  0.65833  1.0000
  H   H255      1.0  0.99828  0.23753  0.66408  1.0000
  H   H256      1.0  0.006590000000000085  0.23549  0.7281400000000002  1.0000
  H   H257      1.0  0.85072  0.31349  0.59558  1.0000
  H   H258      1.0  0.9110699999999999  0.25798  0.62837  1.0000
  H   H259      1.0  0.90663  0.18044  0.5352  1.0000
  H   H260      1.0  0.8477199999999999  0.23679  0.5025700000000001  1.0000
  H   H261      1.0  0.08272000000000002  0.152  0.5242800000000001  1.0000
  H   H262      1.0  0.99547  0.16455000000000006  0.5408  1.0000
  H   H263      1.0  0.06801000000000003  0.16857000000000003  0.6483200000000001  1.0000
  H   H264      1.0  0.15577  0.15949  0.63133  1.0000
  C   C1        1.0  0.20504999999999998  0.52427  0.47181  1.0000
  C   C2        1.0  0.17415  0.4893200000000001  0.44986  1.0000
  C   C3        1.0  0.16593  0.4921900000000001  0.4136800000000001  1.0000
  C   C4        1.0  0.13389  0.46084000000000014  0.39371  1.0000
  C   C5        1.0  0.11039  0.4256800000000001  0.40943  1.0000
  C   C6        1.0  0.12044  0.42242  0.44581000000000004  1.0000
  C   C7        1.0  0.15138  0.45411000000000007  0.46587  1.0000
  C   C8        1.0  0.84616  0.3944300000000001  0.42756000000000005  1.0000
  C   C9        1.0  0.89741  0.3939700000000001  0.41484  1.0000
  C   C10       1.0  0.93497  0.42708  0.42603000000000013  1.0000
  C   C11       1.0  0.9847700000000001  0.4245200000000001  0.41678000000000004  1.0000
  C   C12       1.0  0.9972499999999999  0.3899900000000001  0.3951900000000001  1.0000
  C   C13       1.0  0.9578799999999998  0.3585100000000001  0.3824700000000001  1.0000
  C   C14       1.0  0.90883  0.3597300000000001  0.39280000000000004  1.0000
  C   C15       1.0  0.16258  0.19973000000000005  0.43127000000000004  1.0000
  C   C16       1.0  0.13743  0.24348000000000003  0.42009  1.0000
  C   C17       1.0  0.08497000000000002  0.2523100000000001  0.42289000000000004  1.0000
  C   C18       1.0  0.062459999999999995  0.29356  0.41209  1.0000
  C   C19       1.0  0.09167  0.32676  0.39831  1.0000
  C   C20       1.0  0.14465  0.31755  0.39618000000000003  1.0000
  C   C21       1.0  0.16723  0.27644  0.40669  1.0000
  C   C22       1.0  0.046940000000000016  0.4185300000000001  0.22758000000000006  1.0000
  C   C23       1.0  0.05249  0.41042  0.26546  1.0000
  C   C24       1.0  0.09048  0.38022  0.28182  1.0000
  C   C25       1.0  0.09426  0.37139  0.31704  1.0000
  C   C26       1.0  0.0607  0.39271  0.33675  1.0000
  C   C27       1.0  0.022850000000000016  0.4230200000000001  0.31994  1.0000
  C   C28       1.0  0.018540000000000008  0.43175000000000013  0.28469  1.0000
  C   C29       1.0  0.10490999999999998  0.6002900000000001  0.82727  1.0000
  C   C30       1.0  0.15663000000000002  0.60421  0.81537  1.0000
  C   C31       1.0  0.19132000000000007  0.56784  0.8170300000000003  1.0000
  C   C32       1.0  0.24038999999999996  0.57324  0.80705  1.0000
  C   C33       1.0  0.25595  0.61468  0.79478  1.0000
  C   C34       1.0  0.21992000000000006  0.6504600000000003  0.7924800000000002  1.0000
  C   C35       1.0  0.17118999999999998  0.64555  0.80278  1.0000
  C   C36       1.0  0.3096  0.59744  0.62346  1.0000
  C   C37       1.0  0.31183  0.60421  0.66153  1.0000
  C   C38       1.0  0.35535  0.62547  0.68133  1.0000
  C   C39       1.0  0.35719  0.6317  0.71673  1.0000
  C   C40       1.0  0.31596  0.61648  0.73314  1.0000
  C   C41       1.0  0.27234  0.59545  0.71292  1.0000
  C   C42       1.0  0.27015  0.58953  0.6774300000000001  1.0000
  C   C43       1.0  0.4315100000000001  0.7980500000000003  0.8360300000000002  1.0000
  C   C44       1.0  0.40592  0.7553  0.8225000000000001  1.0000
  C   C45       1.0  0.35533000000000003  0.7561800000000002  0.8025000000000002  1.0000
  C   C46       1.0  0.33154  0.7164900000000002  0.78932  1.0000
  C   C47       1.0  0.35624000000000017  0.6747  0.7969100000000002  1.0000
  C   C48       1.0  0.40741  0.67459  0.81655  1.0000
  C   C49       1.0  0.43245  0.7143300000000002  0.82874  1.0000
  C   C50       1.0  0.4436  0.4617000000000001  0.85692  1.0000
  C   C51       1.0  0.4179  0.50077  0.83795  1.0000
  C   C52       1.0  0.41204000000000013  0.50335  0.8017800000000002  1.0000
  C   C53       1.0  0.3849  0.53946  0.78441  1.0000
  C   C54       1.0  0.3635999999999999  0.5733800000000002  0.8027  1.0000
  C   C55       1.0  0.37081  0.5706200000000002  0.83907  1.0000
  C   C56       1.0  0.39746999999999993  0.53477  0.8566  1.0000
  C   C57       1.0  0.07852  0.48872000000000004  0.14163  1.0000
  C   C58       1.0  0.10662  0.52814  0.13005  1.0000
  C   C59       1.0  0.15663  0.52288  0.12091000000000003  1.0000
  C   C60       1.0  0.18177  0.5594000000000002  0.10870000000000002  1.0000
  C   C61       1.0  0.15788  0.60195  0.10541000000000003  1.0000
  C   C62       1.0  0.10838  0.60693  0.11562000000000003  1.0000
  C   C63       1.0  0.0829  0.57054  0.12773  1.0000
  C   C64       1.0  0.42821999999999993  0.62968  0.11098000000000001  1.0000
  C   C65       1.0  0.37002999999999997  0.6353500000000002  0.1028  1.0000
  C   C66       1.0  0.34074  0.6141200000000002  0.0738  1.0000
  C   C67       1.0  0.28608  0.61865  0.06680000000000001  1.0000
  C   C68       1.0  0.25943  0.6446500000000001  0.08832000000000001  1.0000
  C   C69       1.0  0.28949  0.6662600000000001  0.117  1.0000
  C   C70       1.0  0.34407  0.66158  0.12439000000000001  1.0000
  C   C71       1.0  0.08503  0.82468  0.11887000000000002  1.0000
  C   C72       1.0  0.11468  0.78427  0.11117  1.0000
  C   C73       1.0  0.13161  0.75249  0.13706  1.0000
  C   C74       1.0  0.15506  0.7127500000000002  0.1287  1.0000
  C   C75       1.0  0.16182  0.70367  0.09448  1.0000
  C   C76       1.0  0.14619  0.73662  0.06913  1.0000
  C   C77       1.0  0.1231  0.77648  0.07726000000000001  1.0000
  C   C78       1.0  0.06314  0.63742  0.93143  1.0000
  C   C79       1.0  0.09619999999999995  0.6392400000000003  0.96662  1.0000
  C   C80       1.0  0.07643999999999998  0.61868  0.99386  1.0000
  C   C81       1.0  0.10538  0.6194300000000003  0.02717  1.0000
  C   C82       1.0  0.15509  0.64025  0.034280000000000005  1.0000
  C   C83       1.0  0.17513  0.65975  0.006490000000000001  1.0000
  C   C84       1.0  0.14593000000000003  0.6596200000000002  0.97299  1.0000
  C   C85       1.0  0.33929  0.50788  0.56094  1.0000
  C   C86       1.0  0.36914  0.46539000000000014  0.57071  1.0000
  C   C87       1.0  0.42418  0.4635400000000001  0.57482  1.0000
  C   C88       1.0  0.45061  0.42363  0.58524  1.0000
  C   C89       1.0  0.42286  0.38477  0.5916500000000001  1.0000
  C   C90       1.0  0.3675  0.38712  0.58717  1.0000
  C   C91       1.0  0.34101  0.4267900000000001  0.57693  1.0000
  C   C92       1.0  0.47961  0.33207  0.7678000000000003  1.0000
  C   C93       1.0  0.47293  0.3302400000000001  0.7291100000000001  1.0000
  C   C94       1.0  0.45028  0.3664800000000001  0.7092200000000001  1.0000
  C   C95       1.0  0.44454999999999995  0.36525  0.67325  1.0000
  C   C96       1.0  0.46172  0.32809  0.65604  1.0000
  C   C97       1.0  0.48419  0.29169  0.6763800000000001  1.0000
  C   C98       1.0  0.4894  0.29256000000000004  0.71242  1.0000
  C   C99       1.0  0.30879  0.18844000000000005  0.52633  1.0000
  C   C100      1.0  0.3451  0.22134  0.5468900000000002  1.0000
  C   C101      1.0  0.36334000000000016  0.21559000000000006  0.5824300000000002  1.0000
  C   C102      1.0  0.39774000000000004  0.24686  0.6007600000000001  1.0000
  C   C103      1.0  0.41457  0.2847900000000001  0.58432  1.0000
  C   C104      1.0  0.39572999999999997  0.29001  0.54861  1.0000
  C   C105      1.0  0.36195  0.25883  0.5300700000000002  1.0000
  C   C106      1.0  0.67546  0.3531800000000001  0.5651400000000001  1.0000
  C   C107      1.0  0.6246200000000001  0.34517  0.5767000000000002  1.0000
  C   C108      1.0  0.57902  0.34387  0.5513  1.0000
  C   C109      1.0  0.53015  0.3368700000000001  0.56092  1.0000
  C   C110      1.0  0.52482  0.33266  0.59595  1.0000
  C   C111      1.0  0.5709099999999998  0.3341  0.62103  1.0000
  C   C112      1.0  0.62052  0.3394700000000001  0.61167  1.0000
  C   C113      1.0  0.29495000000000005  0.02427  0.5281900000000003  1.0000
  C   C114      1.0  0.32585  0.9893200000000002  0.55014  1.0000
  C   C115      1.0  0.33407  0.9921900000000002  0.58632  1.0000
  C   C116      1.0  0.3660999999999999  0.9608300000000002  0.60629  1.0000
  C   C117      1.0  0.38961  0.9256800000000002  0.59058  1.0000
  C   C118      1.0  0.37956  0.9224200000000002  0.5541900000000001  1.0000
  C   C119      1.0  0.34862000000000004  0.9541100000000002  0.5341300000000001  1.0000
  C   C120      1.0  0.65384  0.8944300000000002  0.57244  1.0000
  C   C121      1.0  0.60258  0.89396  0.58516  1.0000
  C   C122      1.0  0.56503  0.9270800000000002  0.5739600000000001  1.0000
  C   C123      1.0  0.51522  0.92452  0.58323  1.0000
  C   C124      1.0  0.50274  0.8899900000000002  0.60481  1.0000
  C   C125      1.0  0.54211  0.8585100000000002  0.61753  1.0000
  C   C126      1.0  0.59116  0.85972  0.6072  1.0000
  C   C127      1.0  0.33742000000000005  0.69973  0.56873  1.0000
  C   C128      1.0  0.36258  0.74348  0.57991  1.0000
  C   C129      1.0  0.41502999999999995  0.75231  0.57711  1.0000
  C   C130      1.0  0.43753999999999993  0.7935600000000003  0.58791  1.0000
  C   C131      1.0  0.40833  0.8267600000000003  0.6016900000000001  1.0000
  C   C132      1.0  0.35536  0.81754  0.6038300000000002  1.0000
  C   C133      1.0  0.33277  0.7764400000000002  0.59331  1.0000
  C   C134      1.0  0.45305  0.9185300000000002  0.7724200000000002  1.0000
  C   C135      1.0  0.4475199999999999  0.91042  0.73454  1.0000
  C   C136      1.0  0.4095200000000001  0.88021  0.7181800000000003  1.0000
  C   C137      1.0  0.40574  0.8713900000000002  0.68296  1.0000
  C   C138      1.0  0.4393  0.89271  0.66326  1.0000
  C   C139      1.0  0.47716  0.9230200000000002  0.68006  1.0000
  C   C140      1.0  0.48146000000000005  0.9317400000000002  0.7153200000000001  1.0000
  C   C141      1.0  0.3951  0.10029  0.17273  1.0000
  C   C142      1.0  0.34337  0.10421  0.18463  1.0000
  C   C143      1.0  0.30868  0.06783  0.18297  1.0000
  C   C144      1.0  0.25961  0.07324  0.19295000000000007  1.0000
  C   C145      1.0  0.24405  0.11468000000000003  0.20522  1.0000
  C   C146      1.0  0.2800800000000001  0.15046  0.20752  1.0000
  C   C147      1.0  0.32881  0.14555000000000004  0.19722  1.0000
  C   C148      1.0  0.19041  0.09744000000000001  0.37654  1.0000
  C   C149      1.0  0.18817  0.10420000000000003  0.33847  1.0000
  C   C150      1.0  0.14466  0.12547  0.31866  1.0000
  C   C151      1.0  0.14281  0.13170000000000004  0.28327  1.0000
  C   C152      1.0  0.18405  0.11648000000000003  0.26686000000000004  1.0000
  C   C153      1.0  0.22766  0.09545000000000002  0.28707  1.0000
  C   C154      1.0  0.22986000000000006  0.08952000000000003  0.3225600000000001  1.0000
  C   C155      1.0  0.0685  0.2980600000000001  0.16396  1.0000
  C   C156      1.0  0.0941  0.25531  0.17750000000000005  1.0000
  C   C157      1.0  0.14468  0.25619  0.19749  1.0000
  C   C158      1.0  0.16848  0.2165  0.21068000000000003  1.0000
  C   C159      1.0  0.14377  0.17471  0.20309000000000002  1.0000
  C   C160      1.0  0.0926  0.17460000000000006  0.18345  1.0000
  C   C161      1.0  0.06757  0.21435  0.17126  1.0000
  C   C162      1.0  0.0564  0.9616800000000001  0.14312  1.0000
  C   C163      1.0  0.08211000000000002  0.0007700000000000002  0.16207000000000002  1.0000
  C   C164      1.0  0.08797000000000002  0.003350000000000001  0.19824000000000003  1.0000
  C   C165      1.0  0.11510000000000001  0.03947  0.21559000000000003  1.0000
  C   C166      1.0  0.13640000000000002  0.07338  0.19730000000000006  1.0000
  C   C167      1.0  0.12919000000000003  0.07062  0.16093  1.0000
  C   C168      1.0  0.10253  0.03476000000000001  0.14341  1.0000
  C   C169      1.0  0.4214700000000001  0.9887100000000002  0.8583700000000001  1.0000
  C   C170      1.0  0.39337  0.028140000000000005  0.86995  1.0000
  C   C171      1.0  0.34337  0.02287  0.87909  1.0000
  C   C172      1.0  0.31823  0.0594  0.8913000000000001  1.0000
  C   C173      1.0  0.34211  0.10194  0.8946  1.0000
  C   C174      1.0  0.39161  0.10692000000000003  0.88438  1.0000
  C   C175      1.0  0.41709  0.07054  0.87227  1.0000
  C   C176      1.0  0.07176999999999999  0.12967  0.88901  1.0000
  C   C177      1.0  0.12995999999999994  0.13535  0.89719  1.0000
  C   C178      1.0  0.15922  0.11412  0.9261900000000001  1.0000
  C   C179      1.0  0.21389000000000002  0.11864000000000002  0.9332000000000001  1.0000
  C   C180      1.0  0.24056  0.14464  0.91171  1.0000
  C   C181      1.0  0.21052  0.16627000000000006  0.88303  1.0000
  C   C182      1.0  0.15594000000000002  0.16160000000000005  0.8756200000000001  1.0000
  C   C183      1.0  0.41498  0.32468  0.88112  1.0000
  C   C184      1.0  0.38531  0.28427  0.88882  1.0000
  C   C185      1.0  0.36839000000000005  0.25248  0.8629300000000002  1.0000
  C   C186      1.0  0.34493999999999997  0.21274  0.8713  1.0000
  C   C187      1.0  0.33817  0.20366000000000006  0.9055200000000002  1.0000
  C   C188      1.0  0.35378  0.23663000000000006  0.93086  1.0000
  C   C189      1.0  0.37688000000000005  0.2764800000000001  0.92273  1.0000
  C   C190      1.0  0.43688  0.13752000000000006  0.06857000000000002  1.0000
  C   C191      1.0  0.40380999999999995  0.13927000000000006  0.03338  1.0000
  C   C192      1.0  0.42358  0.11869000000000003  0.006150000000000002  1.0000
  C   C193      1.0  0.39465000000000006  0.11942000000000003  0.9728400000000001  1.0000
  C   C194      1.0  0.34493999999999997  0.14024  0.96573  1.0000
  C   C195      1.0  0.32488000000000006  0.15974  0.9935100000000001  1.0000
  C   C196      1.0  0.35406  0.15961000000000006  0.027000000000000007  1.0000
  C   C197      1.0  0.16072000000000003  0.00789  0.4390600000000001  1.0000
  C   C198      1.0  0.13086  0.9653900000000002  0.42930000000000007  1.0000
  C   C199      1.0  0.07581999999999998  0.9635400000000002  0.4252000000000001  1.0000
  C   C200      1.0  0.04939000000000001  0.92364  0.41477  1.0000
  C   C201      1.0  0.07714  0.8847800000000002  0.40835  1.0000
  C   C202      1.0  0.13249  0.88713  0.41284  1.0000
  C   C203      1.0  0.15899000000000005  0.92679  0.42308000000000007  1.0000
  C   C204      1.0  0.02036  0.8319600000000003  0.23219  1.0000
  C   C205      1.0  0.027060000000000015  0.8301300000000003  0.27088000000000007  1.0000
  C   C206      1.0  0.049690000000000005  0.86638  0.29074  1.0000
  C   C207      1.0  0.055409999999999994  0.8652200000000002  0.32671  1.0000
  C   C208      1.0  0.03825000000000001  0.8280700000000002  0.3439500000000001  1.0000
  C   C209      1.0  0.015789999999999985  0.7916600000000003  0.32364  1.0000
  C   C210      1.0  0.010579999999999997  0.79246  0.2876  1.0000
  C   C211      1.0  0.1912  0.68845  0.47373000000000004  1.0000
  C   C212      1.0  0.15489000000000003  0.72134  0.45314000000000004  1.0000
  C   C213      1.0  0.13667  0.71559  0.41759  1.0000
  C   C214      1.0  0.10227000000000004  0.7468600000000001  0.3992600000000001  1.0000
  C   C215      1.0  0.08544000000000002  0.7848000000000003  0.41569  1.0000
  C   C216      1.0  0.10427000000000003  0.79002  0.4514000000000001  1.0000
  C   C217      1.0  0.13803  0.7588300000000001  0.46995  1.0000
  C   C218      1.0  0.82454  0.85317  0.43486  1.0000
  C   C219      1.0  0.87537  0.84515  0.42331  1.0000
  C   C220      1.0  0.9209700000000001  0.84385  0.44871000000000005  1.0000
  C   C221      1.0  0.9698499999999999  0.83686  0.43909  1.0000
  C   C222      1.0  0.97518  0.8326700000000002  0.40405  1.0000
  C   C223      1.0  0.92909  0.8341  0.37897  1.0000
  C   C224      1.0  0.87948  0.83946  0.38834  1.0000
  C   C225      1.0  0.79495  0.47572000000000003  0.5281900000000003  1.0000
  C   C226      1.0  0.82585  0.51068  0.55014  1.0000
  C   C227      1.0  0.83407  0.50781  0.58632  1.0000
  C   C228      1.0  0.86611  0.53916  0.6063  1.0000
  C   C229      1.0  0.8896099999999999  0.57431  0.59058  1.0000
  C   C230      1.0  0.8795600000000001  0.57758  0.5541900000000001  1.0000
  C   C231      1.0  0.84862  0.54589  0.53414  1.0000
  C   C232      1.0  0.15384  0.60557  0.57244  1.0000
  C   C233      1.0  0.10259  0.60602  0.58516  1.0000
  C   C234      1.0  0.06503000000000003  0.57291  0.5739600000000001  1.0000
  C   C235      1.0  0.015219999999999996  0.57547  0.58323  1.0000
  C   C236      1.0  0.0027499999999999643  0.6100000000000002  0.60481  1.0000
  C   C237      1.0  0.042120000000000005  0.64148  0.61753  1.0000
  C   C238      1.0  0.09117000000000003  0.6402700000000002  0.6072  1.0000
  C   C239      1.0  0.83742  0.80026  0.56873  1.0000
  C   C240      1.0  0.86258  0.7565200000000002  0.57991  1.0000
  C   C241      1.0  0.91503  0.7476800000000002  0.57711  1.0000
  C   C242      1.0  0.93754  0.70644  0.58791  1.0000
  C   C243      1.0  0.9083299999999999  0.67323  0.6016900000000001  1.0000
  C   C244      1.0  0.8553600000000002  0.68245  0.6038300000000002  1.0000
  C   C245      1.0  0.83277  0.72356  0.59331  1.0000
  C   C246      1.0  0.9530500000000001  0.58146  0.77243  1.0000
  C   C247      1.0  0.94752  0.5895700000000003  0.73454  1.0000
  C   C248      1.0  0.90952  0.61978  0.71819  1.0000
  C   C249      1.0  0.90574  0.62861  0.68296  1.0000
  C   C250      1.0  0.9393  0.6072800000000003  0.66326  1.0000
  C   C251      1.0  0.97716  0.57697  0.6800700000000001  1.0000
  C   C252      1.0  0.98146  0.56825  0.7153200000000001  1.0000
  C   C253      1.0  0.8951  0.39970000000000006  0.17273  1.0000
  C   C254      1.0  0.84337  0.39579  0.18463  1.0000
  C   C255      1.0  0.8086799999999998  0.43216  0.18297  1.0000
  C   C256      1.0  0.75961  0.4267600000000001  0.19295000000000007  1.0000
  C   C257      1.0  0.74405  0.38532000000000005  0.20521  1.0000
  C   C258      1.0  0.7800800000000001  0.34954  0.20752  1.0000
  C   C259      1.0  0.82881  0.35444  0.19722  1.0000
  C   C260      1.0  0.6904  0.40255000000000013  0.37654  1.0000
  C   C261      1.0  0.68816  0.39579  0.33847  1.0000
  C   C262      1.0  0.64465  0.37453  0.31866  1.0000
  C   C263      1.0  0.6428099999999999  0.3682900000000001  0.28327  1.0000
  C   C264      1.0  0.68405  0.38351000000000013  0.26686000000000004  1.0000
  C   C265      1.0  0.72766  0.40454  0.28707  1.0000
  C   C266      1.0  0.72985  0.41047  0.3225600000000001  1.0000
  C   C267      1.0  0.5685  0.20194000000000006  0.16396  1.0000
  C   C268      1.0  0.59409  0.24469000000000005  0.17750000000000005  1.0000
  C   C269      1.0  0.6446799999999999  0.24381000000000005  0.19749  1.0000
  C   C270      1.0  0.66847  0.2835  0.21068000000000003  1.0000
  C   C271      1.0  0.64376  0.32529  0.20309000000000002  1.0000
  C   C272      1.0  0.59259  0.32541  0.18345  1.0000
  C   C273      1.0  0.56756  0.28566000000000014  0.17126  1.0000
  C   C274      1.0  0.5564000000000002  0.53831  0.14311  1.0000
  C   C275      1.0  0.58211  0.49922  0.16206  1.0000
  C   C276      1.0  0.58796  0.49664000000000014  0.19823000000000002  1.0000
  C   C277      1.0  0.6151  0.4605300000000001  0.21559000000000003  1.0000
  C   C278      1.0  0.6364  0.42662000000000005  0.19729000000000005  1.0000
  C   C279      1.0  0.62919  0.42938  0.16093  1.0000
  C   C280      1.0  0.60253  0.46524000000000004  0.14341  1.0000
  C   C281      1.0  0.9214800000000001  0.5112800000000001  0.8583700000000001  1.0000
  C   C282      1.0  0.8933699999999999  0.4718500000000001  0.86996  1.0000
  C   C283      1.0  0.84337  0.47712  0.8791000000000001  1.0000
  C   C284      1.0  0.8182299999999999  0.44059  0.89131  1.0000
  C   C285      1.0  0.8421099999999999  0.39804  0.8946  1.0000
  C   C286      1.0  0.89161  0.3930700000000001  0.88438  1.0000
  C   C287      1.0  0.9170899999999998  0.4294500000000001  0.8722800000000002  1.0000
  C   C288      1.0  0.57178  0.37031  0.88899  1.0000
  C   C289      1.0  0.62997  0.3646300000000001  0.8971800000000001  1.0000
  C   C290      1.0  0.65923  0.38586000000000004  0.92617  1.0000
  C   C291      1.0  0.71389  0.38133  0.93319  1.0000
  C   C292      1.0  0.74056  0.35533  0.9117  1.0000
  C   C293      1.0  0.71052  0.33370000000000005  0.88301  1.0000
  C   C294      1.0  0.6559399999999999  0.33838  0.8756  1.0000
  C   C295      1.0  0.91497  0.17531  0.88112  1.0000
  C   C296      1.0  0.88531  0.21572000000000002  0.88882  1.0000
  C   C297      1.0  0.8683899999999999  0.24751000000000006  0.8629300000000002  1.0000
  C   C298      1.0  0.84494  0.2872600000000001  0.8713  1.0000
  C   C299      1.0  0.8381699999999999  0.2963300000000001  0.9055200000000002  1.0000
  C   C300      1.0  0.85379  0.26337  0.93087  1.0000
  C   C301      1.0  0.87688  0.22351000000000004  0.92273  1.0000
  C   C302      1.0  0.93688  0.36237  0.06857000000000002  1.0000
  C   C303      1.0  0.90379  0.3607100000000001  0.03338  1.0000
  C   C304      1.0  0.92355  0.3813  0.006150000000000002  1.0000
  C   C305      1.0  0.89462  0.3805600000000001  0.9728400000000001  1.0000
  C   C306      1.0  0.84491  0.35975  0.96573  1.0000
  C   C307      1.0  0.82485  0.34024  0.9935  1.0000
  C   C308      1.0  0.85403  0.3403700000000001  0.027000000000000007  1.0000
  C   C309      1.0  0.66071  0.4921100000000001  0.4390600000000001  1.0000
  C   C310      1.0  0.6308599999999999  0.5346000000000001  0.42930000000000007  1.0000
  C   C311      1.0  0.57582  0.53645  0.4252000000000001  1.0000
  C   C312      1.0  0.54939  0.5763600000000002  0.41477  1.0000
  C   C313      1.0  0.57714  0.61522  0.40835  1.0000
  C   C314      1.0  0.6325  0.6128700000000002  0.41284  1.0000
  C   C315      1.0  0.6589899999999999  0.5732  0.42308000000000007  1.0000
  C   C316      1.0  0.52037  0.6680500000000001  0.23219  1.0000
  C   C317      1.0  0.52706  0.66988  0.27087000000000006  1.0000
  C   C318      1.0  0.54969  0.63363  0.29074  1.0000
  C   C319      1.0  0.5554100000000001  0.6347900000000001  0.3267  1.0000
  C   C320      1.0  0.53825  0.67193  0.3439500000000001  1.0000
  C   C321      1.0  0.51579  0.70834  0.32364  1.0000
  C   C322      1.0  0.51058  0.7075500000000002  0.2876  1.0000
  C   C323      1.0  0.6912000000000001  0.8115400000000003  0.47375000000000006  1.0000
  C   C324      1.0  0.65489  0.7786600000000002  0.45315000000000005  1.0000
  C   C325      1.0  0.63668  0.7844100000000003  0.4176  1.0000
  C   C326      1.0  0.60228  0.75314  0.3992700000000001  1.0000
  C   C327      1.0  0.58544  0.7152  0.41569  1.0000
  C   C328      1.0  0.60427  0.70997  0.4514000000000001  1.0000
  C   C329      1.0  0.63803  0.74116  0.46995  1.0000
  C   C330      1.0  0.32454  0.6468200000000002  0.43487000000000003  1.0000
  C   C331      1.0  0.37538  0.6548400000000002  0.42331  1.0000
  C   C332      1.0  0.42098  0.6561400000000002  0.44871000000000005  1.0000
  C   C333      1.0  0.46985  0.6631300000000002  0.43909  1.0000
  C   C334      1.0  0.47517999999999994  0.66733  0.40405  1.0000
  C   C335      1.0  0.42909  0.6659000000000003  0.37897  1.0000
  C   C336      1.0  0.37948  0.6605300000000002  0.38834  1.0000
  C   C337      1.0  0.70505  0.9757200000000003  0.47181  1.0000
  C   C338      1.0  0.6741499999999999  0.01068  0.44986  1.0000
  C   C339      1.0  0.66593  0.007810000000000002  0.4136900000000001  1.0000
  C   C340      1.0  0.6339  0.03916000000000001  0.39371  1.0000
  C   C341      1.0  0.61039  0.07431  0.40942  1.0000
  C   C342      1.0  0.6204399999999999  0.07758  0.44581000000000004  1.0000
  C   C343      1.0  0.65138  0.04589000000000001  0.46587  1.0000
  C   C344      1.0  0.34615999999999997  0.10557  0.42756000000000005  1.0000
  C   C345      1.0  0.39741  0.10603  0.41484  1.0000
  C   C346      1.0  0.43497  0.07292  0.42603000000000013  1.0000
  C   C347      1.0  0.48478  0.07548  0.41677000000000003  1.0000
  C   C348      1.0  0.49726  0.11001  0.3951900000000001  1.0000
  C   C349      1.0  0.45789  0.14148  0.3824700000000001  1.0000
  C   C350      1.0  0.40884  0.14027000000000006  0.39280000000000004  1.0000
  C   C351      1.0  0.66259  0.30026000000000014  0.43127000000000004  1.0000
  C   C352      1.0  0.63743  0.25652  0.42009  1.0000
  C   C353      1.0  0.58497  0.24768000000000007  0.42289000000000004  1.0000
  C   C354      1.0  0.56246  0.20644  0.41209  1.0000
  C   C355      1.0  0.59167  0.17323000000000005  0.39831  1.0000
  C   C356      1.0  0.6446399999999999  0.18245000000000003  0.3961700000000001  1.0000
  C   C357      1.0  0.66723  0.22356  0.40669  1.0000
  C   C358      1.0  0.54695  0.08147000000000003  0.22758000000000006  1.0000
  C   C359      1.0  0.55249  0.08958000000000003  0.26546  1.0000
  C   C360      1.0  0.59048  0.11978000000000003  0.28182  1.0000
  C   C361      1.0  0.59426  0.12861  0.31704  1.0000
  C   C362      1.0  0.5607  0.10728000000000003  0.33674  1.0000
  C   C363      1.0  0.52285  0.07697  0.31994  1.0000
  C   C364      1.0  0.51854  0.06825  0.28468  1.0000
  C   C365      1.0  0.60491  0.8997  0.82727  1.0000
  C   C366      1.0  0.6566299999999999  0.8957800000000002  0.81537  1.0000
  C   C367      1.0  0.69132  0.9321600000000001  0.8170300000000003  1.0000
  C   C368      1.0  0.7404  0.9267500000000002  0.80705  1.0000
  C   C369      1.0  0.75595  0.8853100000000003  0.79478  1.0000
  C   C370      1.0  0.7199199999999999  0.84954  0.7924800000000002  1.0000
  C   C371      1.0  0.67119  0.8544400000000002  0.80278  1.0000
  C   C372      1.0  0.8095899999999999  0.9025500000000002  0.62346  1.0000
  C   C373      1.0  0.81183  0.89579  0.66152  1.0000
  C   C374      1.0  0.85535  0.8745300000000001  0.68133  1.0000
  C   C375      1.0  0.85719  0.86829  0.71673  1.0000
  C   C376      1.0  0.81595  0.88351  0.73314  1.0000
  C   C377      1.0  0.77234  0.9045400000000002  0.7129300000000001  1.0000
  C   C378      1.0  0.7701399999999999  0.91047  0.67744  1.0000
  C   C379      1.0  0.9314999999999999  0.70194  0.8360300000000002  1.0000
  C   C380      1.0  0.9059099999999999  0.74469  0.8225000000000001  1.0000
  C   C381      1.0  0.85532  0.74381  0.80251  1.0000
  C   C382      1.0  0.83153  0.7835000000000002  0.78932  1.0000
  C   C383      1.0  0.85625  0.8252900000000001  0.7969100000000002  1.0000
  C   C384      1.0  0.9074100000000004  0.8254000000000001  0.8165600000000002  1.0000
  C   C385      1.0  0.93244  0.7856600000000002  0.82874  1.0000
  C   C386      1.0  0.9436  0.03830000000000001  0.85691  1.0000
  C   C387      1.0  0.9178900000000001  0.9992200000000001  0.8379400000000002  1.0000
  C   C388      1.0  0.9120399999999999  0.99665  0.80177  1.0000
  C   C389      1.0  0.8849000000000001  0.96053  0.78441  1.0000
  C   C390      1.0  0.8636  0.92662  0.8027  1.0000
  C   C391      1.0  0.8708099999999999  0.9293700000000003  0.83907  1.0000
  C   C392      1.0  0.89747  0.9652300000000003  0.85659  1.0000
  C   C393      1.0  0.57852  0.011290000000000003  0.14163  1.0000
  C   C394      1.0  0.60663  0.9718600000000001  0.13005  1.0000
  C   C395      1.0  0.6566299999999999  0.9771200000000002  0.12091000000000003  1.0000
  C   C396      1.0  0.68177  0.9406  0.10870000000000002  1.0000
  C   C397      1.0  0.65788  0.8980500000000002  0.10541000000000003  1.0000
  C   C398      1.0  0.6083900000000001  0.8930700000000003  0.11562000000000003  1.0000
  C   C399      1.0  0.5829  0.9294600000000002  0.12773  1.0000
  C   C400      1.0  0.92822  0.8703200000000002  0.11098000000000001  1.0000
  C   C401      1.0  0.87002  0.86465  0.1028  1.0000
  C   C402      1.0  0.84074  0.88588  0.0738  1.0000
  C   C403      1.0  0.78608  0.8813500000000001  0.06681  1.0000
  C   C404      1.0  0.7594299999999999  0.8553600000000002  0.08832000000000001  1.0000
  C   C405      1.0  0.7894899999999999  0.83374  0.11701000000000002  1.0000
  C   C406      1.0  0.84407  0.8384200000000003  0.12439000000000001  1.0000
  C   C407      1.0  0.58502  0.6753100000000002  0.11887000000000002  1.0000
  C   C408      1.0  0.61468  0.7157200000000002  0.11117  1.0000
  C   C409      1.0  0.6316100000000001  0.7475  0.13706  1.0000
  C   C410      1.0  0.65506  0.78725  0.1287  1.0000
  C   C411      1.0  0.66182  0.7963400000000003  0.09448  1.0000
  C   C412      1.0  0.6462  0.7633800000000001  0.06913  1.0000
  C   C413      1.0  0.6231  0.7235200000000003  0.07725  1.0000
  C   C414      1.0  0.56314  0.8625600000000002  0.93143  1.0000
  C   C415      1.0  0.5961999999999997  0.86075  0.96662  1.0000
  C   C416      1.0  0.5764399999999998  0.8813100000000003  0.99386  1.0000
  C   C417      1.0  0.60538  0.88057  0.02717  1.0000
  C   C418      1.0  0.6550899999999998  0.8597500000000002  0.034280000000000005  1.0000
  C   C419      1.0  0.67513  0.8402500000000003  0.006490000000000001  1.0000
  C   C420      1.0  0.6459400000000001  0.84038  0.9730000000000001  1.0000
  C   C421      1.0  0.83929  0.99211  0.56094  1.0000
  C   C422      1.0  0.86914  0.03460000000000001  0.57071  1.0000
  C   C423      1.0  0.9241799999999999  0.03645  0.57481  1.0000
  C   C424      1.0  0.9506100000000001  0.07636  0.58524  1.0000
  C   C425      1.0  0.9228599999999999  0.11522000000000002  0.59166  1.0000
  C   C426      1.0  0.86751  0.11287  0.58717  1.0000
  C   C427      1.0  0.84101  0.07321000000000003  0.57693  1.0000
  C   C428      1.0  0.9796100000000001  0.16793  0.7678000000000003  1.0000
  C   C429      1.0  0.9729199999999999  0.16976  0.7291100000000001  1.0000
  C   C430      1.0  0.9502699999999998  0.13351  0.70923  1.0000
  C   C431      1.0  0.94455  0.13474  0.67326  1.0000
  C   C432      1.0  0.9617199999999999  0.1719  0.6560500000000001  1.0000
  C   C433      1.0  0.98418  0.20830000000000004  0.6763800000000001  1.0000
  C   C434      1.0  0.9894  0.20744000000000007  0.71242  1.0000
  C   C435      1.0  0.80879  0.31156  0.52637  1.0000
  C   C436      1.0  0.84511  0.27865  0.5469100000000002  1.0000
  C   C437      1.0  0.8633500000000002  0.2844  0.5824500000000002  1.0000
  C   C438      1.0  0.8977599999999999  0.25312  0.60077  1.0000
  C   C439      1.0  0.9145699999999999  0.2152  0.5843300000000001  1.0000
  C   C440      1.0  0.89573  0.20999  0.54861  1.0000
  C   C441      1.0  0.86196  0.24117000000000005  0.53008  1.0000
  C   C442      1.0  0.17546  0.14682  0.56515  1.0000
  C   C443      1.0  0.12462000000000005  0.15483000000000005  0.5767000000000002  1.0000
  C   C444      1.0  0.07901999999999999  0.15613  0.5513  1.0000
  C   C445      1.0  0.03015  0.16313000000000005  0.56092  1.0000
  C   C446      1.0  0.024820000000000002  0.16733  0.59596  1.0000
  C   C447      1.0  0.07091000000000003  0.1659  0.62104  1.0000
  C   C448      1.0  0.12051999999999997  0.16052  0.61167  1.0000
  O   O1        1.0  0.27069  0.60684  0.53027  1.0000
  O   O2        1.0  0.23116  0.5523600000000002  0.456  1.0000
  O   O3        1.0  0.20283000000000004  0.5248000000000003  0.5036600000000001  1.0000
  O   O4        1.0  0.006770000000000002  0.3980300000000001  0.13583  1.0000
  O   O5        1.0  0.83101  0.4319  0.43784000000000006  1.0000
  O   O6        1.0  0.8227399999999999  0.3565600000000001  0.42779  1.0000
  O   O7        1.0  0.13574000000000003  0.17021000000000006  0.4443500000000001  1.0000
  O   O8        1.0  0.21037999999999998  0.19541000000000006  0.42638000000000004  1.0000
  O   O9        1.0  0.008490000000000013  0.44302000000000014  0.21345000000000003  1.0000
  O   O10       1.0  0.08083  0.39978  0.21189  1.0000
  O   O11       1.0  0.09096  0.56148  0.8367500000000001  1.0000
  O   O12       1.0  0.078  0.63645  0.8268300000000001  1.0000
  O   O13       1.0  0.35111999999999993  0.6089200000000002  0.6112300000000002  1.0000
  O   O14       1.0  0.26801  0.5817  0.6058100000000002  1.0000
  O   O15       1.0  0.40084  0.8313100000000002  0.83853  1.0000
  O   O16       1.0  0.48182  0.79755  0.8437000000000001  1.0000
  O   O17       1.0  0.44259999999999994  0.4590500000000001  0.8897900000000002  1.0000
  O   O18       1.0  0.46585  0.43149  0.84146  1.0000
  O   O19       1.0  0.10438999999999998  0.4518  0.1451  1.0000
  O   O20       1.0  0.03126000000000001  0.4951800000000001  0.14685000000000004  1.0000
  O   O21       1.0  0.45308  0.64751  0.13849000000000006  1.0000
  O   O22       1.0  0.44982  0.60678  0.08921  1.0000
  O   O23       1.0  0.06738  0.8502300000000003  0.09288  1.0000
  O   O24       1.0  0.07812  0.83156  0.14982  1.0000
  O   O25       1.0  0.07736000000000004  0.6625400000000002  0.9075700000000001  1.0000
  O   O26       1.0  0.02367000000000003  0.61152  0.9275200000000001  1.0000
  O   O27       1.0  0.36485  0.5426600000000003  0.55403  1.0000
  O   O28       1.0  0.2897  0.50525  0.56061  1.0000
  O   O29       1.0  0.4687  0.37097000000000013  0.7805900000000001  1.0000
  O   O30       1.0  0.49447  0.29908  0.78648  1.0000
  O   O31       1.0  0.2997799999999999  0.19318000000000005  0.49376  1.0000
  O   O32       1.0  0.28909  0.15682000000000004  0.54301  1.0000
  O   O33       1.0  0.71823  0.33827  0.58593  1.0000
  O   O34       1.0  0.67699  0.37266  0.53707  1.0000
  O   O35       1.0  0.22931  0.10685  0.46974000000000005  1.0000
  O   O36       1.0  0.26884  0.05236000000000001  0.544  1.0000
  O   O37       1.0  0.29717  0.0248  0.49634  1.0000
  O   O38       1.0  0.49321  0.89803  0.86416  1.0000
  O   O39       1.0  0.66898  0.9318900000000001  0.56216  1.0000
  O   O40       1.0  0.6772600000000001  0.8565600000000002  0.57222  1.0000
  O   O41       1.0  0.3642599999999999  0.67021  0.55565  1.0000
  O   O42       1.0  0.28962  0.6954100000000002  0.57362  1.0000
  O   O43       1.0  0.49150999999999995  0.9430200000000002  0.78655  1.0000
  O   O44       1.0  0.41917  0.8997800000000002  0.7881100000000002  1.0000
  O   O45       1.0  0.40905  0.061480000000000014  0.16325000000000003  1.0000
  O   O46       1.0  0.42201  0.13645000000000004  0.17316000000000004  1.0000
  O   O47       1.0  0.14889  0.10892000000000003  0.38877  1.0000
  O   O48       1.0  0.23199999999999998  0.08170000000000002  0.3941900000000001  1.0000
  O   O49       1.0  0.09916  0.3313200000000001  0.16147  1.0000
  O   O50       1.0  0.01818  0.29756  0.1563  1.0000
  O   O51       1.0  0.057390000000000004  0.9590400000000002  0.11025000000000001  1.0000
  O   O52       1.0  0.03416  0.93149  0.1586  1.0000
  O   O53       1.0  0.39560999999999996  0.9517900000000002  0.8549000000000001  1.0000
  O   O54       1.0  0.46874  0.9951800000000002  0.85315  1.0000
  O   O55       1.0  0.04692  0.14750000000000005  0.86148  1.0000
  O   O56       1.0  0.05018000000000006  0.10678000000000003  0.9107800000000001  1.0000
  O   O57       1.0  0.43263999999999997  0.35021  0.90711  1.0000
  O   O58       1.0  0.4218799999999999  0.3315700000000001  0.85017  1.0000
  O   O59       1.0  0.42257999999999996  0.16260000000000005  0.09243000000000001  1.0000
  O   O60       1.0  0.4763899999999999  0.11167  0.07248  1.0000
  O   O61       1.0  0.13515  0.04267  0.44597  1.0000
  O   O62       1.0  0.21029  0.00526  0.43939  1.0000
  O   O63       1.0  0.031310000000000004  0.8708700000000003  0.21939000000000003  1.0000
  O   O64       1.0  0.005480000000000003  0.7990200000000001  0.21351  1.0000
  O   O65       1.0  0.20020000000000002  0.69321  0.5063000000000001  1.0000
  O   O66       1.0  0.21093  0.65682  0.45710000000000006  1.0000
  O   O67       1.0  0.7817499999999998  0.83828  0.41408  1.0000
  O   O68       1.0  0.82301  0.87266  0.46294  1.0000
  O   O69       1.0  0.72932  0.3931500000000001  0.46974000000000005  1.0000
  O   O70       1.0  0.76884  0.44763  0.544  1.0000
  O   O71       1.0  0.79718  0.4752  0.49634  1.0000
  O   O72       1.0  0.99319  0.60196  0.86416  1.0000
  O   O73       1.0  0.16897999999999996  0.5681  0.56216  1.0000
  O   O74       1.0  0.17726  0.64343  0.57222  1.0000
  O   O75       1.0  0.86426  0.8297900000000001  0.55565  1.0000
  O   O76       1.0  0.78963  0.80459  0.5736300000000001  1.0000
  O   O77       1.0  0.99151  0.5569700000000002  0.78655  1.0000
  O   O78       1.0  0.9191700000000002  0.60021  0.7881100000000002  1.0000
  O   O79       1.0  0.90905  0.43852000000000013  0.16325000000000003  1.0000
  O   O80       1.0  0.92201  0.3635500000000001  0.17317  1.0000
  O   O81       1.0  0.64888  0.39108  0.38877  1.0000
  O   O82       1.0  0.7319900000000003  0.4183  0.3941900000000001  1.0000
  O   O83       1.0  0.59916  0.16868000000000005  0.16146  1.0000
  O   O84       1.0  0.51818  0.20244000000000006  0.1563  1.0000
  O   O85       1.0  0.55739  0.54096  0.11024  1.0000
  O   O86       1.0  0.5341600000000001  0.5685000000000002  0.15859000000000006  1.0000
  O   O87       1.0  0.8956  0.5482000000000002  0.8549000000000001  1.0000
  O   O88       1.0  0.9687399999999999  0.5048100000000001  0.85316  1.0000
  O   O89       1.0  0.5469200000000002  0.35249  0.8614700000000001  1.0000
  O   O90       1.0  0.55019  0.39320000000000005  0.9107700000000001  1.0000
  O   O91       1.0  0.93263  0.14978  0.90711  1.0000
  O   O92       1.0  0.92187  0.16843  0.85017  1.0000
  O   O93       1.0  0.92251  0.3373300000000001  0.09244000000000002  1.0000
  O   O94       1.0  0.97647  0.38813  0.07248  1.0000
  O   O95       1.0  0.6351499999999999  0.45733  0.44597  1.0000
  O   O96       1.0  0.7103  0.49473  0.43939  1.0000
  O   O97       1.0  0.53131  0.62915  0.21938000000000002  1.0000
  O   O98       1.0  0.50547  0.70101  0.21351  1.0000
  O   O99       1.0  0.70019  0.8067700000000002  0.5063200000000001  1.0000
  O   O100      1.0  0.71094  0.8431800000000003  0.4571400000000001  1.0000
  O   O101      1.0  0.28176  0.6617200000000002  0.41408  1.0000
  O   O102      1.0  0.32300999999999996  0.6273300000000003  0.46293  1.0000
  O   O103      1.0  0.7707  0.89315  0.53027  1.0000
  O   O104      1.0  0.7311599999999999  0.94763  0.456  1.0000
  O   O105      1.0  0.7028299999999998  0.9751900000000002  0.5036600000000001  1.0000
  O   O106      1.0  0.50679  0.10197000000000002  0.13584  1.0000
  O   O107      1.0  0.3310199999999999  0.0681  0.43784000000000006  1.0000
  O   O108      1.0  0.32275  0.14344000000000007  0.42778  1.0000
  O   O109      1.0  0.63575  0.32978000000000013  0.4443500000000001  1.0000
  O   O110      1.0  0.7103899999999999  0.30458  0.42638000000000004  1.0000
  O   O111      1.0  0.5084900000000001  0.05698  0.21345000000000003  1.0000
  O   O112      1.0  0.58083  0.10021000000000002  0.21189  1.0000
  O   O113      1.0  0.59096  0.9385100000000002  0.8367500000000001  1.0000
  O   O114      1.0  0.5780000000000001  0.8635400000000002  0.8268300000000001  1.0000
  O   O115      1.0  0.85111  0.89108  0.6112300000000002  1.0000
  O   O116      1.0  0.7680099999999999  0.9183000000000002  0.6058100000000002  1.0000
  O   O117      1.0  0.9008399999999999  0.66868  0.83853  1.0000
  O   O118      1.0  0.9818199999999999  0.70244  0.84369  1.0000
  O   O119      1.0  0.9426  0.04094  0.8897800000000001  1.0000
  O   O120      1.0  0.96585  0.0685  0.84144  1.0000
  O   O121      1.0  0.60439  0.04821000000000002  0.1451  1.0000
  O   O122      1.0  0.53126  0.00482  0.14685000000000004  1.0000
  O   O123      1.0  0.95307  0.85248  0.13849000000000006  1.0000
  O   O124      1.0  0.94982  0.8932200000000002  0.08921  1.0000
  O   O125      1.0  0.56738  0.64977  0.09288  1.0000
  O   O126      1.0  0.57812  0.6684300000000002  0.14982  1.0000
  O   O127      1.0  0.57737  0.8374400000000002  0.9075700000000001  1.0000
  O   O128      1.0  0.5236700000000001  0.8884600000000002  0.9275200000000001  1.0000
  O   O129      1.0  0.86485  0.95733  0.55403  1.0000
  O   O130      1.0  0.78971  0.9947400000000002  0.56061  1.0000
  O   O131      1.0  0.9687  0.12903  0.7806  1.0000
  O   O132      1.0  0.99448  0.20091000000000006  0.78648  1.0000
  O   O133      1.0  0.7997600000000001  0.30683  0.4938  1.0000
  O   O134      1.0  0.7891  0.34317  0.54307  1.0000
  O   O135      1.0  0.21823  0.16172000000000006  0.58593  1.0000
  O   O136      1.0  0.17699000000000004  0.12734000000000004  0.5370600000000001  1.0000
