data_image0
_chemical_formula_structural       Zn16H208C256N64O48
_chemical_formula_sum              "Zn16 H208 C256 N64 O48"
_cell_length_a       17.98832
_cell_length_b       17.99849
_cell_length_c       31.24692
_cell_angle_alpha    101.23475000000002
_cell_angle_beta     101.1392
_cell_angle_gamma    109.1698

_symmetry_space_group_name_H-M    'P 1'
_symmetry_Int_Tables_number       1

loop_
  _symmetry_equiv_pos_as_xyz
  'x,y,z'

loop_
  _atom_site_type_symbol
  _atom_site_label
  _atom_site_symmetry_multiplicity
  _atom_site_fract_x
  _atom_site_fract_y
  _atom_site_fract_z
  _atom_site_occupancy
  Zn  Zn1       1.0  0.6292200000000001  0.89231  0.4858800000000001  1.0000
  Zn  Zn2       1.0  0.49410000000000004  0.32032  0.80383  1.0000
  Zn  Zn3       1.0  0.16407000000000005  0.3728100000000001  0.51244  1.0000
  Zn  Zn4       1.0  0.0330500000000001  0.7696700000000001  0.7694800000000003  1.0000
  Zn  Zn5       1.0  0.6408000000000003  0.8777700000000003  0.9860400000000002  1.0000
  Zn  Zn6       1.0  0.06983000000000009  0.7474600000000001  0.3039800000000001  1.0000
  Zn  Zn7       1.0  0.12008000000000003  0.4125  0.01236  1.0000
  Zn  Zn8       1.0  0.5182500000000001  0.28369000000000005  0.26965000000000006  1.0000
  Zn  Zn9       1.0  0.4074800000000001  0.14423999999999995  0.51436  1.0000
  Zn  Zn10      1.0  0.51476  0.69189  0.19633  1.0000
  Zn  Zn11      1.0  0.85945  0.65172  0.4875000000000001  1.0000
  Zn  Zn12      1.0  0.9989300000000001  0.2637900000000001  0.23055000000000006  1.0000
  Zn  Zn13      1.0  0.8923600000000002  0.6556300000000003  0.014590000000000004  1.0000
  Zn  Zn14      1.0  0.4440800000000002  0.7667700000000003  0.6964600000000002  1.0000
  Zn  Zn15      1.0  0.4008200000000002  0.10820000000000014  0.9873500000000002  1.0000
  Zn  Zn16      1.0  0.0148200000000001  0.24898000000000006  0.7306100000000002  1.0000
  H   H1        1.0  0.5858500000000002  0.8025500000000003  0.5538400000000002  1.0000
  H   H2        1.0  0.5233100000000003  0.8133700000000004  0.6184300000000003  1.0000
  H   H3        1.0  0.49156000000000005  0.028880000000000045  0.58826  1.0000
  H   H4        1.0  0.55977  0.010820000000000015  0.52787  1.0000
  H   H5        1.0  0.5901900000000001  0.18989000000000011  0.7587600000000002  1.0000
  H   H6        1.0  0.5546300000000002  0.0520900000000002  0.7054900000000002  1.0000
  H   H7        1.0  0.32669000000000015  0.06808000000000008  0.6416600000000002  1.0000
  H   H8        1.0  0.3709900000000001  0.20222000000000012  0.6988000000000002  1.0000
  H   H9        1.0  0.84977  0.30732  0.80013  1.0000
  H   H10       1.0  0.9763300000000003  0.3301900000000001  0.8611500000000002  1.0000
  H   H11       1.0  0.85916  0.38882000000000005  0.9633200000000002  1.0000
  H   H12       1.0  0.73235  0.3616600000000001  0.9020400000000001  1.0000
  H   H13       1.0  0.26217  0.55752  0.55974  1.0000
  H   H14       1.0  0.39962  0.63663  0.61386  1.0000
  H   H15       1.0  0.44056000000000023  0.4077800000000002  0.5945500000000002  1.0000
  H   H16       1.0  0.30334  0.34013  0.54301  1.0000
  H   H17       1.0  0.44219  0.51462  0.69473  1.0000
  H   H18       1.0  0.42379999999999995  0.43006  0.74918  1.0000
  H   H19       1.0  0.61576  0.3607400000000001  0.73121  1.0000
  H   H20       1.0  0.6419700000000003  0.4406700000000001  0.6748700000000002  1.0000
  H   H21       1.0  0.09859000000000015  0.2714000000000001  0.5644100000000002  1.0000
  H   H22       1.0  0.015409999999999983  0.26649  0.61941  1.0000
  H   H23       1.0  0.96116  0.46673000000000003  0.58216  1.0000
  H   H24       1.0  0.04788000000000001  0.46455  0.52925  1.0000
  H   H25       1.0  0.049980000000000004  0.49871000000000004  0.69651  1.0000
  H   H26       1.0  0.09778  0.6393  0.74825  1.0000
  H   H27       1.0  0.8654100000000001  0.64458  0.71649  1.0000
  H   H28       1.0  0.80677  0.50381  0.66334  1.0000
  H   H29       1.0  0.93713  0.8709200000000005  0.73782  1.0000
  H   H30       1.0  0.9297900000000001  0.94456  0.6785200000000002  1.0000
  H   H31       1.0  0.11703000000000015  0.8688900000000003  0.6379600000000002  1.0000
  H   H32       1.0  0.11852000000000003  0.8012600000000002  0.7001100000000001  1.0000
  H   H33       1.0  0.89538  0.09529000000000011  0.6036400000000002  1.0000
  H   H34       1.0  0.75732  0.04955  0.54779  1.0000
  H   H35       1.0  0.74289  0.81075  0.5103400000000002  1.0000
  H   H36       1.0  0.8816300000000001  0.8461799999999999  0.56165  1.0000
  H   H37       1.0  0.51651  0.47882000000000013  0.4044300000000001  1.0000
  H   H38       1.0  0.5550200000000002  0.6238500000000002  0.4493000000000001  1.0000
  H   H39       1.0  0.6626300000000002  0.71005  0.3485700000000001  1.0000
  H   H40       1.0  0.6203000000000002  0.5646  0.3018500000000001  1.0000
  H   H41       1.0  0.59551  0.23086000000000004  0.39651000000000003  1.0000
  H   H42       1.0  0.63247  0.16573000000000007  0.4570300000000001  1.0000
  H   H43       1.0  0.5696000000000001  0.9406600000000002  0.3545500000000001  1.0000
  H   H44       1.0  0.53657  0.006629999999999987  0.29356  1.0000
  H   H45       1.0  0.36595000000000016  0.95485  0.6117200000000003  1.0000
  H   H46       1.0  0.4435100000000001  0.8743900000000001  0.65471  1.0000
  H   H47       1.0  0.5322100000000002  0.6381500000000001  0.6524600000000002  1.0000
  H   H48       1.0  0.5998300000000002  0.5279100000000002  0.6325700000000002  1.0000
  H   H49       1.0  0.93668  0.32372000000000023  0.6565300000000002  1.0000
  H   H50       1.0  0.8331200000000002  0.38068000000000013  0.6324700000000002  1.0000
  H   H51       1.0  0.06304000000000011  0.9543700000000002  0.6014700000000002  1.0000
  H   H52       1.0  0.0057000000000000115  0.06027000000000003  0.63628  1.0000
  H   H53       1.0  0.5514300000000001  0.8344800000000002  0.05436000000000001  1.0000
  H   H54       1.0  0.56273  0.77179  0.11883000000000003  1.0000
  H   H55       1.0  0.7781000000000002  0.7403800000000004  0.08779000000000003  1.0000
  H   H56       1.0  0.7595100000000001  0.8088700000000002  0.02764  1.0000
  H   H57       1.0  0.9395100000000001  0.83929  0.25816000000000006  1.0000
  H   H58       1.0  0.8015400000000003  0.8033300000000001  0.20491  1.0000
  H   H59       1.0  0.81808  0.57565  0.14100000000000004  1.0000
  H   H60       1.0  0.95236  0.62033  0.19806000000000007  1.0000
  H   H61       1.0  0.05771  0.10272000000000002  0.30052  1.0000
  H   H62       1.0  0.08149000000000009  0.22906000000000012  0.3620800000000001  1.0000
  H   H63       1.0  0.13982999999999998  0.11084000000000004  0.46344  1.0000
  H   H64       1.0  0.11152000000000006  0.9841  0.4018100000000001  1.0000
  H   H65       1.0  0.30493000000000003  0.5099600000000001  0.05919000000000001  1.0000
  H   H66       1.0  0.38503  0.6474  0.11309000000000002  1.0000
  H   H67       1.0  0.15707000000000004  0.69006  0.09470000000000003  1.0000
  H   H68       1.0  0.08837000000000005  0.5528400000000001  0.04332  1.0000
  H   H69       1.0  0.26342  0.6914  0.19455000000000006  1.0000
  H   H70       1.0  0.17815000000000006  0.67358  0.24871000000000004  1.0000
  H   H71       1.0  0.11167000000000005  0.8672300000000002  0.23112000000000002  1.0000
  H   H72       1.0  0.19260000000000002  0.8929200000000003  0.17516000000000007  1.0000
  H   H73       1.0  0.02014  0.3473  0.06498  1.0000
  H   H74       1.0  0.01578  0.26378  0.11968000000000002  1.0000
  H   H75       1.0  0.21614  0.21051  0.08181  1.0000
  H   H76       1.0  0.2134000000000001  0.29729  0.029070000000000006  1.0000
  H   H77       1.0  0.24709000000000006  0.2987900000000001  0.19595000000000007  1.0000
  H   H78       1.0  0.38731000000000015  0.34762  0.24822  1.0000
  H   H79       1.0  0.3949900000000001  0.11627000000000003  0.21670000000000006  1.0000
  H   H80       1.0  0.2545900000000001  0.05658000000000001  0.16304000000000002  1.0000
  H   H81       1.0  0.6190100000000001  0.18674000000000004  0.23782000000000006  1.0000
  H   H82       1.0  0.69241  0.17853  0.17834000000000005  1.0000
  H   H83       1.0  0.61824  0.36647  0.13801  1.0000
  H   H84       1.0  0.5507  0.3687500000000001  0.20025000000000007  1.0000
  H   H85       1.0  0.84415  0.14448  0.10359  1.0000
  H   H86       1.0  0.7985500000000002  0.006370000000000004  0.047730000000000015  1.0000
  H   H87       1.0  0.55992  0.99229  0.009790000000000002  1.0000
  H   H88       1.0  0.59528  0.13118  0.06097  1.0000
  H   H89       1.0  0.22790000000000007  0.7670400000000003  0.90521  1.0000
  H   H90       1.0  0.37297000000000013  0.80486  0.9496600000000002  1.0000
  H   H91       1.0  0.4589300000000001  0.9104700000000002  0.8482700000000002  1.0000
  H   H92       1.0  0.31333000000000016  0.8684400000000003  0.8018400000000002  1.0000
  H   H93       1.0  0.9808700000000002  0.8451500000000001  0.8965300000000003  1.0000
  H   H94       1.0  0.9159900000000001  0.8819400000000001  0.95726  1.0000
  H   H95       1.0  0.6907700000000001  0.8202300000000001  0.8553000000000002  1.0000
  H   H96       1.0  0.7565300000000003  0.7881000000000001  0.7940000000000003  1.0000
  H   H97       1.0  0.7045700000000001  0.6147700000000003  0.11112000000000002  1.0000
  H   H98       1.0  0.62394  0.6918400000000001  0.15452000000000002  1.0000
  H   H99       1.0  0.38778  0.78026  0.15210000000000007  1.0000
  H   H100      1.0  0.27936000000000005  0.8496400000000001  0.13279000000000005  1.0000
  H   H101      1.0  0.07294  0.18456  0.15621000000000004  1.0000
  H   H102      1.0  0.13098  0.08171  0.13166  1.0000
  H   H103      1.0  0.70396  0.3125500000000001  0.10182000000000002  1.0000
  H   H104      1.0  0.8088000000000001  0.25447  0.13631  1.0000
  H   H105      1.0  0.2494  0.032789999999999986  0.44628  1.0000
  H   H106      1.0  0.19544  0.90555  0.38163  1.0000
  H   H107      1.0  0.44096000000000013  0.90342  0.4120800000000001  1.0000
  H   H108      1.0  0.48357000000000017  0.031950000000000076  0.4727200000000001  1.0000
  H   H109      1.0  0.43234000000000006  0.83168  0.24147000000000002  1.0000
  H   H110      1.0  0.3476700000000002  0.8498800000000002  0.29454000000000014  1.0000
  H   H111      1.0  0.42623000000000016  0.6852200000000002  0.3583400000000001  1.0000
  H   H112      1.0  0.5034000000000001  0.6719  0.30137  1.0000
  H   H113      1.0  0.5086600000000002  0.0512  0.19947  1.0000
  H   H114      1.0  0.47115  0.11621  0.13814  1.0000
  H   H115      1.0  0.42593000000000014  0.89581  0.0364  1.0000
  H   H116      1.0  0.45929000000000003  0.8306100000000001  0.09789000000000003  1.0000
  H   H117      1.0  0.9965000000000002  0.70187  0.43996  1.0000
  H   H118      1.0  0.02185000000000017  0.7855100000000004  0.38614000000000004  1.0000
  H   H119      1.0  0.8123500000000003  0.8459700000000001  0.4054900000000001  1.0000
  H   H120      1.0  0.79605  0.76023  0.45681  1.0000
  H   H121      1.0  0.8197600000000003  0.7474  0.30558  1.0000
  H   H122      1.0  0.68095  0.6740800000000001  0.25071  1.0000
  H   H123      1.0  0.6288700000000004  0.8834900000000002  0.26812000000000014  1.0000
  H   H124      1.0  0.76482  0.9665600000000001  0.3248300000000001  1.0000
  H   H125      1.0  0.7064800000000002  0.5339900000000001  0.43552000000000013  1.0000
  H   H126      1.0  0.6461600000000001  0.3955500000000001  0.38078000000000006  1.0000
  H   H127      1.0  0.8837600000000001  0.37849000000000005  0.4179700000000001  1.0000
  H   H128      1.0  0.9348900000000002  0.5183500000000001  0.4707300000000001  1.0000
  H   H129      1.0  0.8002000000000004  0.35270000000000007  0.3037900000000001  1.0000
  H   H130      1.0  0.8887500000000004  0.34938  0.25185  1.0000
  H   H131      1.0  0.9279900000000003  0.14989000000000008  0.2836700000000001  1.0000
  H   H132      1.0  0.8405200000000002  0.14378000000000005  0.3368700000000001  1.0000
  H   H133      1.0  0.13156  0.19988000000000003  0.2628  1.0000
  H   H134      1.0  0.2647200000000001  0.25165000000000004  0.32213000000000014  1.0000
  H   H135      1.0  0.23075  0.48005000000000003  0.36252  1.0000
  H   H136      1.0  0.10068000000000003  0.41948  0.30038  1.0000
  H   H137      1.0  0.49099000000000004  0.29237000000000013  0.3966600000000001  1.0000
  H   H138      1.0  0.50154  0.21031000000000008  0.45240000000000014  1.0000
  H   H139      1.0  0.3002500000000001  0.2331600000000001  0.4901300000000001  1.0000
  H   H140      1.0  0.2843000000000001  0.3208900000000002  0.4391400000000001  1.0000
  H   H141      1.0  0.07557000000000015  0.11288000000000015  0.5957100000000002  1.0000
  H   H142      1.0  0.17576000000000003  0.10641000000000005  0.55104  1.0000
  H   H143      1.0  0.36298000000000025  0.3150400000000001  0.6519800000000002  1.0000
  H   H144      1.0  0.2640300000000002  0.3196700000000002  0.6984100000000002  1.0000
  H   H145      1.0  0.83522  0.2002000000000001  0.60385  1.0000
  H   H146      1.0  0.70955  0.17783000000000013  0.5438100000000002  1.0000
  H   H147      1.0  0.58797  0.21736000000000014  0.6468300000000002  1.0000
  H   H148      1.0  0.71517  0.24485000000000004  0.70739  1.0000
  H   H149      1.0  0.34282  0.75436  0.388  1.0000
  H   H150      1.0  0.22005000000000022  0.7896600000000004  0.3451200000000001  1.0000
  H   H151      1.0  0.9850600000000002  0.87999  0.3478000000000001  1.0000
  H   H152      1.0  0.89434  0.96726  0.36769000000000013  1.0000
  H   H153      1.0  0.66586  0.27905  0.34382  1.0000
  H   H154      1.0  0.7474000000000003  0.20003000000000007  0.3676700000000001  1.0000
  H   H155      1.0  0.3528700000000001  0.46231000000000017  0.39887  1.0000
  H   H156      1.0  0.4230000000000001  0.36916  0.36402  1.0000
  H   H157      1.0  0.7812400000000004  0.4981600000000001  0.9461900000000002  1.0000
  H   H158      1.0  0.6546400000000002  0.4448200000000001  0.8811900000000003  1.0000
  H   H159      1.0  0.65289  0.69039  0.91223  1.0000
  H   H160      1.0  0.7809700000000003  0.7324700000000002  0.9730300000000002  1.0000
  H   H161      1.0  0.5825300000000001  0.6823200000000001  0.7419500000000002  1.0000
  H   H162      1.0  0.5998100000000001  0.59735  0.7948700000000001  1.0000
  H   H163      1.0  0.43525000000000014  0.6766000000000001  0.8586000000000003  1.0000
  H   H164      1.0  0.42286000000000024  0.7541600000000003  0.8018600000000002  1.0000
  H   H165      1.0  0.8020800000000001  0.7585000000000002  0.69958  1.0000
  H   H166      1.0  0.86707  0.72079  0.63823  1.0000
  H   H167      1.0  0.64667  0.67563  0.53653  1.0000
  H   H168      1.0  0.5814700000000003  0.70913  0.59807  1.0000
  H   H169      1.0  0.4510900000000001  0.2458400000000002  0.9403800000000002  1.0000
  H   H170      1.0  0.5351200000000002  0.27216000000000024  0.8868000000000003  1.0000
  H   H171      1.0  0.5965300000000001  0.06299000000000013  0.9054700000000002  1.0000
  H   H172      1.0  0.51014  0.045640000000000056  0.9565800000000002  1.0000
  H   H173      1.0  0.49791  0.06977999999999998  0.80599  1.0000
  H   H174      1.0  0.4253600000000001  0.9304200000000001  0.7516500000000003  1.0000
  H   H175      1.0  0.6364300000000004  0.8810300000000001  0.7688600000000002  1.0000
  H   H176      1.0  0.71863  0.017809999999999996  0.82504  1.0000
  H   H177      1.0  0.28219000000000005  0.95499  0.9359900000000002  1.0000
  H   H178      1.0  0.14368999999999996  0.89561  0.88124  1.0000
  H   H179      1.0  0.12975000000000017  0.1347700000000001  0.9177600000000002  1.0000
  H   H180      1.0  0.2694100000000001  0.18482000000000007  0.9706300000000002  1.0000
  H   H181      1.0  0.10407  0.05163999999999999  0.80428  1.0000
  H   H182      1.0  0.10086999999999995  0.13960999999999998  0.75211  1.0000
  H   H183      1.0  0.9004300000000001  0.17833000000000016  0.7832800000000002  1.0000
  H   H184      1.0  0.8941900000000004  0.09137000000000016  0.8366900000000003  1.0000
  H   H185      1.0  0.9489100000000005  0.3808800000000001  0.76288  1.0000
  H   H186      1.0  0.9999600000000004  0.5140900000000002  0.8221300000000002  1.0000
  H   H187      1.0  0.22967000000000012  0.48256000000000016  0.8620200000000002  1.0000
  H   H188      1.0  0.1699000000000001  0.3523700000000001  0.8000100000000002  1.0000
  H   H189      1.0  0.0401200000000002  0.7407300000000003  0.8971000000000002  1.0000
  H   H190      1.0  0.9579600000000004  0.7504800000000003  0.9529700000000002  1.0000
  H   H191      1.0  0.9815200000000002  0.5492400000000001  0.9900400000000003  1.0000
  H   H192      1.0  0.06926000000000015  0.5338400000000002  0.9388400000000002  1.0000
  H   H193      1.0  0.86135  0.32387  0.09562  1.0000
  H   H194      1.0  0.85495  0.42385  0.05091000000000001  1.0000
  H   H195      1.0  0.06392  0.61095  0.15148  1.0000
  H   H196      1.0  0.06850000000000002  0.51239  0.19805000000000006  1.0000
  H   H197      1.0  0.94899  0.08349000000000001  0.10379000000000002  1.0000
  H   H198      1.0  0.9262200000000003  0.95739  0.043790000000000016  1.0000
  H   H199      1.0  0.9658  0.83647  0.14697  1.0000
  H   H200      1.0  0.9936800000000001  0.96417  0.20748000000000005  1.0000
  H   H201      1.0  0.5039100000000001  0.5929100000000002  0.8882300000000002  1.0000
  H   H202      1.0  0.5383500000000002  0.4696200000000001  0.8451800000000003  1.0000
  H   H203      1.0  0.6287600000000001  0.23589000000000013  0.8479000000000002  1.0000
  H   H204      1.0  0.7183100000000002  0.14738  0.86743  1.0000
  H   H205      1.0  0.028770000000000084  0.91673  0.8439800000000002  1.0000
  H   H206      1.0  0.9505200000000005  0.9996200000000002  0.8680300000000002  1.0000
  H   H207      1.0  0.21088000000000023  0.6038300000000002  0.8985400000000002  1.0000
  H   H208      1.0  0.1176400000000001  0.6737900000000002  0.8645  1.0000
  C   C1        1.0  0.5633600000000002  0.8511000000000001  0.5626100000000003  1.0000
  C   C2        1.0  0.52832  0.85684  0.59813  1.0000
  C   C3        1.0  0.49780000000000013  0.9196600000000003  0.60747  1.0000
  C   C4        1.0  0.50964  0.9766100000000001  0.5816600000000002  1.0000
  C   C5        1.0  0.5473100000000001  0.9666800000000001  0.54747  1.0000
  C   C6        1.0  0.5317300000000001  0.15984000000000007  0.7328000000000001  1.0000
  C   C7        1.0  0.5123600000000003  0.08351000000000013  0.7028800000000002  1.0000
  C   C8        1.0  0.43617  0.047040000000000005  0.67014  1.0000
  C   C9        1.0  0.38516  0.09190000000000001  0.6676  1.0000
  C   C10       1.0  0.4102400000000001  0.1672300000000001  0.6994800000000002  1.0000
  C   C11       1.0  0.70982  0.32333  0.81084  1.0000
  C   C12       1.0  0.7848200000000003  0.33496000000000015  0.8476600000000002  1.0000
  C   C13       1.0  0.8532700000000002  0.32508000000000015  0.8360400000000001  1.0000
  C   C14       1.0  0.9228  0.3373900000000001  0.8697400000000001  1.0000
  C   C15       1.0  0.92516  0.36133000000000004  0.9157600000000001  1.0000
  C   C16       1.0  0.8562600000000001  0.37020000000000014  0.9275500000000002  1.0000
  C   C17       1.0  0.78659  0.35613999999999996  0.89365  1.0000
  C   C18       1.0  0.9992800000000003  0.37985000000000024  0.9522500000000003  1.0000
  C   C19       1.0  0.30451000000000006  0.5274800000000001  0.5677000000000002  1.0000
  C   C20       1.0  0.3814  0.57149  0.59714  1.0000
  C   C21       1.0  0.43483  0.53027  0.60778  1.0000
  C   C22       1.0  0.40522000000000014  0.44485000000000025  0.5873800000000002  1.0000
  C   C23       1.0  0.3275  0.40592  0.55826  1.0000
  C   C24       1.0  0.54433  0.48518000000000006  0.68031  1.0000
  C   C25       1.0  0.4809700000000002  0.4804900000000001  0.7011600000000002  1.0000
  C   C26       1.0  0.47131000000000006  0.43351  0.73165  1.0000
  C   C27       1.0  0.5779400000000002  0.39477  0.72155  1.0000
  C   C28       1.0  0.5928500000000003  0.4400100000000001  0.6906100000000002  1.0000
  C   C29       1.0  0.06799000000000012  0.3141800000000001  0.5698000000000002  1.0000
  C   C30       1.0  0.021830000000000103  0.3115500000000001  0.6002500000000002  1.0000
  C   C31       1.0  0.9832600000000001  0.3683600000000001  0.6065900000000001  1.0000
  C   C32       1.0  0.99117  0.42326  0.57941  1.0000
  C   C33       1.0  0.039190000000000016  0.4219000000000001  0.54993  1.0000
  C   C34       1.0  0.92427  0.48983000000000004  0.67453  1.0000
  C   C35       1.0  0.00735000000000022  0.5291200000000004  0.6996100000000002  1.0000
  C   C36       1.0  0.03398  0.60734  0.72843  1.0000
  C   C37       1.0  0.9037  0.60997  0.71047  1.0000
  C   C38       1.0  0.8717800000000001  0.5317400000000001  0.6812200000000002  1.0000
  C   C39       1.0  0.9765  0.8728600000000003  0.71531  1.0000
  C   C40       1.0  0.9721100000000003  0.9133600000000001  0.6821100000000002  1.0000
  C   C41       1.0  0.02226000000000009  0.9120000000000001  0.6527400000000002  1.0000
  C   C42       1.0  0.07619000000000006  0.8707200000000004  0.65935  1.0000
  C   C43       1.0  0.07683000000000012  0.8325900000000002  0.6936300000000002  1.0000
  C   C44       1.0  0.90087  0.9745100000000001  0.5859900000000002  1.0000
  C   C45       1.0  0.8639600000000001  0.03220000000000013  0.5826600000000002  1.0000
  C   C46       1.0  0.7876200000000002  0.007220000000000102  0.5524600000000002  1.0000
  C   C47       1.0  0.7798400000000001  0.8734800000000004  0.5306  1.0000
  C   C48       1.0  0.8565800000000001  0.89302  0.55933  1.0000
  C   C49       1.0  0.5365500000000002  0.42621  0.32216  1.0000
  C   C50       1.0  0.5637300000000002  0.5127100000000002  0.3495800000000001  1.0000
  C   C51       1.0  0.54663  0.52933  0.39167000000000013  1.0000
  C   C52       1.0  0.56858  0.60973  0.41695  1.0000
  C   C53       1.0  0.60961  0.6749100000000001  0.4010900000000001  1.0000
  C   C54       1.0  0.62963  0.65864  0.35997  1.0000
  C   C55       1.0  0.60647  0.5780600000000002  0.33419  1.0000
  C   C56       1.0  0.6328  0.7619  0.4280800000000001  1.0000
  C   C57       1.0  0.53858  0.16013000000000005  0.3054100000000001  1.0000
  C   C58       1.0  0.5632300000000001  0.12254000000000005  0.34144000000000013  1.0000
  C   C59       1.0  0.5915900000000002  0.16796000000000008  0.3874800000000001  1.0000
  C   C60       1.0  0.61252  0.13217000000000007  0.42120000000000013  1.0000
  C   C61       1.0  0.6039  0.049840000000000065  0.4092300000000001  1.0000
  C   C62       1.0  0.57603  0.004450000000000043  0.3633000000000001  1.0000
  C   C63       1.0  0.5564200000000002  0.04067000000000006  0.3293800000000001  1.0000
  C   C64       1.0  0.6230800000000002  0.011490000000000044  0.4463300000000001  1.0000
  C   C65       1.0  0.6000300000000001  0.8120100000000002  0.06294000000000002  1.0000
  C   C66       1.0  0.60602  0.77688  0.09835000000000003  1.0000
  C   C67       1.0  0.66894  0.74641  0.10736  1.0000
  C   C68       1.0  0.72575  0.7583900000000002  0.08141000000000002  1.0000
  C   C69       1.0  0.7155400000000003  0.7962200000000003  0.047370000000000016  1.0000
  C   C70       1.0  0.90946  0.78079  0.23218000000000003  1.0000
  C   C71       1.0  0.8330900000000001  0.7611800000000002  0.20230000000000006  1.0000
  C   C72       1.0  0.7967500000000003  0.68495  0.16956  1.0000
  C   C73       1.0  0.84179  0.63412  0.16696  1.0000
  C   C74       1.0  0.91719  0.65941  0.1988  1.0000
  C   C75       1.0  0.07280000000000002  0.9615700000000001  0.31083  1.0000
  C   C76       1.0  0.08521  0.037000000000000005  0.34768  1.0000
  C   C77       1.0  0.07564000000000003  0.10576000000000003  0.33635  1.0000
  C   C78       1.0  0.08836000000000002  0.17521000000000006  0.37031  1.0000
  C   C79       1.0  0.11228000000000009  0.17722000000000004  0.4162400000000001  1.0000
  C   C80       1.0  0.12098999999999994  0.10816999999999997  0.42774  1.0000
  C   C81       1.0  0.10644999999999999  0.03857  0.39363  1.0000
  C   C82       1.0  0.13141000000000003  0.25146  0.4527400000000001  1.0000
  C   C83       1.0  0.27526000000000006  0.55262  0.06728  1.0000
  C   C84       1.0  0.31985  0.6295  0.09663000000000002  1.0000
  C   C85       1.0  0.2792500000000001  0.6834600000000001  0.10750000000000003  1.0000
  C   C86       1.0  0.19376  0.65433  0.08738  1.0000
  C   C87       1.0  0.15422  0.57652  0.05832  1.0000
  C   C88       1.0  0.23554999999999998  0.79426  0.18031000000000003  1.0000
  C   C89       1.0  0.22979000000000016  0.7306800000000003  0.20101000000000005  1.0000
  C   C90       1.0  0.18245000000000008  0.7213900000000001  0.23138000000000006  1.0000
  C   C91       1.0  0.14535000000000006  0.82895  0.22150000000000003  1.0000
  C   C92       1.0  0.19108  0.84351  0.19072  1.0000
  C   C93       1.0  0.06305  0.31677  0.07008  1.0000
  C   C94       1.0  0.060700000000000004  0.27047  0.10039000000000001  1.0000
  C   C95       1.0  0.11754000000000003  0.2319  0.10641000000000003  1.0000
  C   C96       1.0  0.17249000000000003  0.24032000000000003  0.0792  1.0000
  C   C97       1.0  0.17082000000000006  0.2884100000000001  0.04983  1.0000
  C   C98       1.0  0.23938000000000004  0.17347  0.17409  1.0000
  C   C99       1.0  0.2779100000000001  0.25658000000000003  0.19921000000000005  1.0000
  C   C100      1.0  0.3559600000000001  0.28383000000000014  0.22828000000000007  1.0000
  C   C101      1.0  0.35989000000000004  0.15404  0.21041000000000007  1.0000
  C   C102      1.0  0.2818800000000001  0.12158  0.18093  1.0000
  C   C103      1.0  0.6212100000000003  0.22605  0.21529000000000006  1.0000
  C   C104      1.0  0.6616000000000001  0.22120000000000004  0.18202000000000004  1.0000
  C   C105      1.0  0.6606400000000001  0.27137  0.15269  1.0000
  C   C106      1.0  0.6197800000000002  0.32567  0.15938  1.0000
  C   C107      1.0  0.5817  0.3267300000000001  0.19372000000000006  1.0000
  C   C108      1.0  0.7233800000000001  0.14998  0.08573000000000003  1.0000
  C   C109      1.0  0.78111  0.11307000000000006  0.08249000000000002  1.0000
  C   C110      1.0  0.7561800000000002  0.03666000000000001  0.05234  1.0000
  C   C111      1.0  0.62257  0.029100000000000004  0.030170000000000006  1.0000
  C   C112      1.0  0.6420500000000002  0.10592000000000004  0.05880000000000001  1.0000
  C   C113      1.0  0.17491000000000007  0.78645  0.8230000000000002  1.0000
  C   C114      1.0  0.2615900000000002  0.8132200000000004  0.8500400000000002  1.0000
  C   C115      1.0  0.2783500000000001  0.7965400000000001  0.8922200000000002  1.0000
  C   C116      1.0  0.35879  0.81804  0.91724  1.0000
  C   C117      1.0  0.42390000000000017  0.8583700000000002  0.9011000000000002  1.0000
  C   C118      1.0  0.40754000000000007  0.87792  0.8598600000000002  1.0000
  C   C119      1.0  0.3268700000000001  0.85504  0.83429  1.0000
  C   C120      1.0  0.5108900000000001  0.8814700000000003  0.9280100000000002  1.0000
  C   C121      1.0  0.9109300000000001  0.7905200000000002  0.8056  1.0000
  C   C122      1.0  0.87272  0.8140800000000001  0.8415900000000002  1.0000
  C   C123      1.0  0.91803  0.84152  0.88763  1.0000
  C   C124      1.0  0.88239  0.86232  0.92148  1.0000
  C   C125      1.0  0.80015  0.85407  0.9097100000000002  1.0000
  C   C126      1.0  0.7546000000000003  0.8265700000000004  0.8638500000000002  1.0000
  C   C127      1.0  0.7907500000000001  0.8072900000000001  0.8297600000000003  1.0000
  C   C128      1.0  0.7626  0.87379  0.94715  1.0000
  C   C129      1.0  0.28915  0.0014500000000000728  0.4375400000000001  1.0000
  C   C130      1.0  0.2592600000000002  0.9308700000000003  0.4019800000000001  1.0000
  C   C131      1.0  0.31269  0.89096  0.39262  1.0000
  C   C132      1.0  0.39544000000000007  0.9283600000000001  0.4186300000000001  1.0000
  C   C133      1.0  0.4198100000000001  0.00020000000000006766  0.45290000000000014  1.0000
  C   C134      1.0  0.42786  0.79916  0.26736  1.0000
  C   C135      1.0  0.38138  0.80995  0.29717  1.0000
  C   C136      1.0  0.37728  0.76648  0.32984000000000013  1.0000
  C   C137      1.0  0.42439000000000016  0.7177400000000002  0.3324300000000001  1.0000
  C   C138      1.0  0.46795  0.71068  0.3006600000000001  1.0000
  C   C139      1.0  0.51153  0.8995  0.18912  1.0000
  C   C140      1.0  0.48771000000000003  0.9379000000000002  0.15215  1.0000
  C   C141      1.0  0.49029  0.018319999999999993  0.1636  1.0000
  C   C142      1.0  0.46922  0.05389999999999999  0.12976  1.0000
  C   C143      1.0  0.44669  0.00985000000000001  0.08376000000000003  1.0000
  C   C144      1.0  0.44316  0.92895  0.07213000000000003  1.0000
  C   C145      1.0  0.46264000000000005  0.89338  0.10616000000000003  1.0000
  C   C146      1.0  0.42927  0.04768000000000001  0.047320000000000015  1.0000
  C   C147      1.0  0.95866  0.7364600000000002  0.43213000000000007  1.0000
  C   C148      1.0  0.9734600000000002  0.78411  0.40287000000000006  1.0000
  C   C149      1.0  0.9218300000000001  0.8271700000000001  0.3923700000000001  1.0000
  C   C150      1.0  0.85663  0.81783  0.41263  1.0000
  C   C151      1.0  0.8466400000000001  0.76907  0.4416000000000001  1.0000
  C   C152      1.0  0.8043100000000002  0.86377  0.31972  1.0000
  C   C153      1.0  0.77908  0.77956  0.29894000000000004  1.0000
  C   C154      1.0  0.7016900000000003  0.7391000000000002  0.26821  1.0000
  C   C155      1.0  0.67267  0.8555700000000002  0.2779900000000001  1.0000
  C   C156      1.0  0.7486800000000002  0.90171  0.30916  1.0000
  C   C157      1.0  0.7438200000000003  0.4979500000000001  0.4302200000000001  1.0000
  C   C158      1.0  0.7105100000000002  0.42117  0.39987  1.0000
  C   C159      1.0  0.76085  0.37612  0.39359  1.0000
  C   C160      1.0  0.84311  0.41135  0.42069  1.0000
  C   C161      1.0  0.87144  0.48902  0.4501  1.0000
  C   C162      1.0  0.8143500000000001  0.24952000000000008  0.3257300000000001  1.0000
  C   C163      1.0  0.82799  0.30739  0.30065  1.0000
  C   C164      1.0  0.8773500000000002  0.3056200000000001  0.27178  1.0000
  C   C165      1.0  0.89912  0.19392  0.28978  1.0000
  C   C166      1.0  0.8501400000000002  0.19085000000000005  0.31902000000000014  1.0000
  C   C167      1.0  0.15632  0.26184  0.2853  1.0000
  C   C168      1.0  0.23017000000000004  0.29057  0.3184800000000001  1.0000
  C   C169      1.0  0.25861  0.37024000000000007  0.3477800000000001  1.0000
  C   C170      1.0  0.21094000000000007  0.4177400000000001  0.3411400000000001  1.0000
  C   C171      1.0  0.13832000000000008  0.38412000000000013  0.30688000000000004  1.0000
  C   C172      1.0  0.38797000000000004  0.31545  0.4145000000000001  1.0000
  C   C173      1.0  0.44902000000000003  0.28192000000000006  0.4177000000000001  1.0000
  C   C174      1.0  0.4544100000000001  0.23579000000000003  0.4478100000000001  1.0000
  C   C175      1.0  0.34264  0.24985000000000007  0.4698500000000001  1.0000
  C   C176      1.0  0.3334  0.29802  0.4412800000000001  1.0000
  C   C177      1.0  0.10492000000000007  0.21560000000000007  0.67785  1.0000
  C   C178      1.0  0.16420000000000004  0.21543000000000007  0.65056  1.0000
  C   C179      1.0  0.13883000000000015  0.1559700000000001  0.6085100000000002  1.0000
  C   C180      1.0  0.19407  0.15256  0.58334  1.0000
  C   C181      1.0  0.2752200000000002  0.20949000000000012  0.5992600000000002  1.0000
  C   C182      1.0  0.30004  0.2707  0.64039  1.0000
  C   C183      1.0  0.24507000000000004  0.27346  0.66604  1.0000
  C   C184      1.0  0.3352400000000002  0.20568000000000017  0.5722700000000002  1.0000
  C   C185      1.0  0.8569800000000001  0.23453000000000007  0.6947700000000002  1.0000
  C   C186      1.0  0.7828200000000001  0.2233400000000001  0.6592200000000003  1.0000
  C   C187      1.0  0.7816100000000002  0.20564000000000007  0.6131100000000003  1.0000
  C   C188      1.0  0.7119900000000002  0.1934100000000001  0.5796500000000002  1.0000
  C   C189      1.0  0.6418700000000002  0.19699000000000003  0.59188  1.0000
  C   C190      1.0  0.64281  0.21478  0.63784  1.0000
  C   C191      1.0  0.7132300000000004  0.2287700000000002  0.6715600000000003  1.0000
  C   C192      1.0  0.56671  0.17991000000000004  0.55474  1.0000
  C   C193      1.0  0.75006  0.53802  0.9375100000000001  1.0000
  C   C194      1.0  0.67981  0.5084600000000002  0.9017800000000002  1.0000
  C   C195      1.0  0.6400300000000002  0.5620300000000004  0.8926000000000002  1.0000
  C   C196      1.0  0.67754  0.6447  0.9187400000000002  1.0000
  C   C197      1.0  0.7491100000000002  0.6687700000000001  0.9531200000000002  1.0000
  C   C198      1.0  0.5498900000000001  0.67801  0.76783  1.0000
  C   C199      1.0  0.5601400000000002  0.6313400000000002  0.7975400000000002  1.0000
  C   C200      1.0  0.5164200000000002  0.6273300000000003  0.8301300000000003  1.0000
  C   C201      1.0  0.46798000000000006  0.67475  0.8327600000000002  1.0000
  C   C202      1.0  0.46145000000000014  0.7185000000000001  0.8010900000000002  1.0000
  C   C203      1.0  0.65027  0.7629  0.6891  1.0000
  C   C204      1.0  0.6888300000000002  0.7380500000000002  0.65232  1.0000
  C   C205      1.0  0.7692  0.74036  0.66374  1.0000
  C   C206      1.0  0.8048300000000002  0.7191400000000001  0.6298500000000002  1.0000
  C   C207      1.0  0.7607100000000001  0.69658  0.58387  1.0000
  C   C208      1.0  0.6798400000000002  0.69306  0.5722700000000002  1.0000
  C   C209      1.0  0.6443100000000004  0.7127000000000001  0.6063300000000003  1.0000
  C   C210      1.0  0.79821  0.67914  0.54726  1.0000
  C   C211      1.0  0.48589000000000004  0.20826000000000014  0.9324500000000002  1.0000
  C   C212      1.0  0.5336300000000003  0.22351000000000013  0.9032500000000002  1.0000
  C   C213      1.0  0.5770300000000003  0.17227000000000015  0.8926000000000002  1.0000
  C   C214      1.0  0.568  0.10693000000000003  0.91269  1.0000
  C   C215      1.0  0.5189900000000002  0.09641000000000016  0.9415700000000002  1.0000
  C   C216      1.0  0.61497  0.055900000000000054  0.82002  1.0000
  C   C217      1.0  0.5305700000000001  0.02958000000000007  0.7994200000000001  1.0000
  C   C218      1.0  0.49057  0.95191  0.76898  1.0000
  C   C219      1.0  0.6079600000000001  0.92442  0.7786600000000002  1.0000
  C   C220      1.0  0.6536000000000003  0.0008700000000000958  0.8095100000000002  1.0000
  C   C221      1.0  0.2467100000000002  0.9927900000000001  0.9305500000000002  1.0000
  C   C222      1.0  0.1700200000000001  0.9600600000000001  0.9002  1.0000
  C   C223      1.0  0.12595000000000006  0.01121000000000001  0.89381  1.0000
  C   C224      1.0  0.16191000000000008  0.09360000000000011  0.9207200000000002  1.0000
  C   C225      1.0  0.23942000000000013  0.12130000000000009  0.9501300000000003  1.0000
  C   C226      1.0  0.00031000000000006684  0.0655100000000001  0.8258600000000001  1.0000
  C   C227      1.0  0.05853000000000011  0.07913000000000012  0.8009300000000003  1.0000
  C   C228      1.0  0.0568500000000001  0.12817000000000012  0.7719400000000002  1.0000
  C   C229      1.0  0.9445800000000001  0.14964000000000002  0.78957  1.0000
  C   C230      1.0  0.9414500000000001  0.10100000000000012  0.8189100000000002  1.0000
  C   C231      1.0  0.010979999999999985  0.4061  0.78525  1.0000
  C   C232      1.0  0.03927  0.47997000000000006  0.8184  1.0000
  C   C233      1.0  0.11907000000000018  0.5090500000000002  0.8475900000000002  1.0000
  C   C234      1.0  0.16717000000000012  0.4620900000000001  0.8408100000000002  1.0000
  C   C235      1.0  0.13398000000000007  0.38940000000000013  0.8065900000000001  1.0000
  C   C236      1.0  0.06348  0.63761  0.91454  1.0000
  C   C237      1.0  0.029770000000000067  0.69853  0.9179700000000002  1.0000
  C   C238      1.0  0.9836100000000004  0.7035200000000003  0.9481400000000002  1.0000
  C   C239      1.0  0.9980800000000002  0.5917200000000002  0.9698400000000003  1.0000
  C   C240      1.0  0.0462300000000001  0.5828000000000002  0.9411600000000002  1.0000
  C   C241      1.0  0.96397  0.3535  0.17783  1.0000
  C   C242      1.0  0.9638500000000001  0.41256  0.15042  1.0000
  C   C243      1.0  0.90445  0.3871100000000001  0.10839  1.0000
  C   C244      1.0  0.9010700000000001  0.44224  0.08319  1.0000
  C   C245      1.0  0.95801  0.52336  0.09906000000000001  1.0000
  C   C246      1.0  0.019419999999999993  0.54811  0.14007  1.0000
  C   C247      1.0  0.022120000000000025  0.4933100000000001  0.16577000000000006  1.0000
  C   C248      1.0  0.9540500000000001  0.58342  0.07218000000000002  1.0000
  C   C249      1.0  0.98327  0.10538000000000003  0.19482000000000005  1.0000
  C   C250      1.0  0.97221  0.03131  0.15923  1.0000
  C   C251      1.0  0.95446  0.030000000000000016  0.11312000000000003  1.0000
  C   C252      1.0  0.9419500000000001  0.9601900000000001  0.07967  1.0000
  C   C253      1.0  0.9453300000000001  0.89015  0.09198000000000003  1.0000
  C   C254      1.0  0.96328  0.89123  0.13794000000000006  1.0000
  C   C255      1.0  0.9775300000000001  0.9618200000000001  0.17161000000000007  1.0000
  C   C256      1.0  0.9282200000000002  0.81487  0.054930000000000014  1.0000
  N   N1        1.0  0.4816500000000002  0.2014000000000001  0.7325500000000003  1.0000
  N   N2        1.0  0.4076700000000001  0.9672300000000001  0.64194  1.0000
  N   N3        1.0  0.4586800000000001  0.9237800000000002  0.6410200000000003  1.0000
  N   N4        1.0  0.5722600000000002  0.9040200000000005  0.53662  1.0000
  N   N5        1.0  0.27634  0.44522000000000017  0.54755  1.0000
  N   N6        1.0  0.5100800000000003  0.5731300000000004  0.6372700000000002  1.0000
  N   N7        1.0  0.5608800000000003  0.5339900000000001  0.6513800000000002  1.0000
  N   N8        1.0  0.51801  0.39129000000000014  0.7422400000000002  1.0000
  N   N9        1.0  0.07839000000000013  0.3693700000000001  0.5449500000000003  1.0000
  N   N10       1.0  0.9432300000000001  0.36914000000000013  0.6393  1.0000
  N   N11       1.0  0.8946500000000001  0.4145700000000001  0.6426600000000002  1.0000
  N   N12       1.0  0.9841900000000001  0.64872  0.73382  1.0000
  N   N13       1.0  0.02739000000000005  0.83236  0.7213600000000002  1.0000
  N   N14       1.0  0.018319999999999986  0.9476200000000001  0.6177  1.0000
  N   N15       1.0  0.97759  0.00012999999999998129  0.6151  1.0000
  N   N16       1.0  0.7455900000000001  0.92904  0.5262  1.0000
  N   N17       1.0  0.95119  0.73086  0.23187000000000005  1.0000
  N   N18       1.0  0.71685  0.65626  0.14144  1.0000
  N   N19       1.0  0.67326  0.70714  0.14077000000000006  1.0000
  N   N20       1.0  0.6527800000000002  0.82112  0.03679  1.0000
  N   N21       1.0  0.19293  0.52485  0.04742  1.0000
  N   N22       1.0  0.3228400000000001  0.7586600000000002  0.13699000000000006  1.0000
  N   N23       1.0  0.28461  0.8102499999999999  0.15138  1.0000
  N   N24       1.0  0.14080000000000006  0.76874  0.24202000000000007  1.0000
  N   N25       1.0  0.11803000000000001  0.32736  0.04506000000000002  1.0000
  N   N26       1.0  0.11811  0.19122  0.13876  1.0000
  N   N27       1.0  0.16424000000000002  0.14335000000000006  0.14211  1.0000
  N   N28       1.0  0.39782  0.23454  0.23382  1.0000
  N   N29       1.0  0.58114  0.27733000000000013  0.22143000000000004  1.0000
  N   N30       1.0  0.6962000000000003  0.26718  0.11757000000000002  1.0000
  N   N31       1.0  0.7487400000000001  0.22643000000000002  0.11508000000000003  1.0000
  N   N32       1.0  0.6780400000000002  0.99458  0.02602000000000001  1.0000
  N   N33       1.0  0.4694100000000001  0.7491  0.2676800000000001  1.0000
  N   N34       1.0  0.3255400000000001  0.7663900000000001  0.3579000000000001  1.0000
  N   N35       1.0  0.2832000000000001  0.8184800000000001  0.3588400000000001  1.0000
  N   N36       1.0  0.36813000000000007  0.03628000000000007  0.4636400000000001  1.0000
  N   N37       1.0  0.8964800000000002  0.72844  0.4522100000000001  1.0000
  N   N38       1.0  0.9354900000000002  0.8733  0.3631100000000001  1.0000
  N   N39       1.0  0.8820000000000003  0.9096200000000001  0.3488500000000001  1.0000
  N   N40       1.0  0.64876  0.7749600000000002  0.2573700000000001  1.0000
  N   N41       1.0  0.82398  0.5333200000000001  0.45506000000000013  1.0000
  N   N42       1.0  0.7286  0.30311  0.36103000000000013  1.0000
  N   N43       1.0  0.77096  0.25146  0.35759000000000013  1.0000
  N   N44       1.0  0.91393  0.25094  0.2664  1.0000
  N   N45       1.0  0.10996000000000006  0.3068200000000001  0.27920000000000006  1.0000
  N   N46       1.0  0.32946000000000014  0.40124000000000004  0.3828100000000001  1.0000
  N   N47       1.0  0.38429  0.36277  0.3852800000000001  1.0000
  N   N48       1.0  0.40256000000000003  0.21989000000000003  0.4740600000000001  1.0000
  N   N49       1.0  0.5001000000000001  0.7198700000000001  0.7681700000000002  1.0000
  N   N50       1.0  0.5157300000000001  0.5753800000000002  0.8580600000000003  1.0000
  N   N51       1.0  0.5675500000000001  0.5327500000000001  0.8588900000000003  1.0000
  N   N52       1.0  0.78476  0.6168300000000001  0.9638400000000003  1.0000
  N   N53       1.0  0.47803000000000007  0.14590999999999993  0.95232  1.0000
  N   N54       1.0  0.6230600000000001  0.18660000000000007  0.8633300000000002  1.0000
  N   N55       1.0  0.66015  0.13389999999999996  0.84893  1.0000
  N   N56       1.0  0.5271300000000001  0.8995400000000001  0.7582100000000003  1.0000
  N   N57       1.0  0.28276000000000007  0.07303999999999997  0.9552400000000001  1.0000
  N   N58       1.0  0.053040000000000115  0.9795000000000001  0.8612800000000003  1.0000
  N   N59       1.0  0.0019599999999999596  0.022400000000000003  0.8578  1.0000
  N   N60       1.0  0.0019000000000001004  0.16438000000000014  0.7663200000000002  1.0000
  N   N61       1.0  0.05650999999999999  0.3603  0.77907  1.0000
  N   N62       1.0  0.1497200000000001  0.5798600000000002  0.8826600000000002  1.0000
  N   N63       1.0  0.11066000000000022  0.6341700000000003  0.8852100000000003  1.0000
  N   N64       1.0  0.96796  0.6514800000000003  0.9742500000000002  1.0000
  O   O1        1.0  0.7189900000000004  0.3331700000000002  0.7733100000000003  1.0000
  O   O2        1.0  0.64207  0.30392  0.82232  1.0000
  O   O3        1.0  0.06506000000000008  0.37413000000000013  0.9435200000000001  1.0000
  O   O4        1.0  0.9999300000000001  0.4040300000000002  0.9940400000000003  1.0000
  O   O5        1.0  0.56328  0.4105100000000001  0.2875  1.0000
  O   O6        1.0  0.4885099999999999  0.3682  0.33338  1.0000
  O   O7        1.0  0.5952100000000001  0.7711500000000003  0.4593000000000001  1.0000
  O   O8        1.0  0.6853100000000002  0.8188  0.4200800000000001  1.0000
  O   O9        1.0  0.56627  0.24139000000000005  0.31785000000000013  1.0000
  O   O10       1.0  0.49558000000000013  0.11843000000000002  0.26639000000000007  1.0000
  O   O11       1.0  0.5864600000000001  0.9323300000000001  0.4357800000000001  1.0000
  O   O12       1.0  0.67035  0.05531000000000007  0.48460000000000003  1.0000
  O   O13       1.0  0.08180000000000003  0.9701700000000001  0.27309  1.0000
  O   O14       1.0  0.053260000000000154  0.8939300000000003  0.3224100000000001  1.0000
  O   O15       1.0  0.12603000000000006  0.3172500000000001  0.4438300000000001  1.0000
  O   O16       1.0  0.15593000000000007  0.25233000000000005  0.4945000000000001  1.0000
  O   O17       1.0  0.1591900000000001  0.81149  0.7876700000000002  1.0000
  O   O18       1.0  0.11710000000000015  0.7405600000000001  0.8352500000000003  1.0000
  O   O19       1.0  0.5200700000000004  0.8438800000000003  0.9592100000000002  1.0000
  O   O20       1.0  0.5678100000000001  0.9338700000000002  0.9199800000000002  1.0000
  O   O21       1.0  0.9922100000000003  0.81835  0.8181400000000002  1.0000
  O   O22       1.0  0.8699100000000001  0.7478400000000001  0.7663800000000002  1.0000
  O   O23       1.0  0.68356  0.8364100000000001  0.9372200000000003  1.0000
  O   O24       1.0  0.8071300000000001  0.9221800000000004  0.9849100000000002  1.0000
  O   O25       1.0  0.5569300000000001  0.9458600000000001  0.22714000000000006  1.0000
  O   O26       1.0  0.48133  0.82022  0.17741000000000007  1.0000
  O   O27       1.0  0.43317  0.12247  0.05628000000000001  1.0000
  O   O28       1.0  0.41130000000000005  0.006720000000000001  0.005440000000000002  1.0000
  O   O29       1.0  0.12286  0.2774  0.71217  1.0000
  O   O30       1.0  0.03630000000000016  0.15547000000000016  0.6668000000000002  1.0000
  O   O31       1.0  0.31352000000000013  0.13664000000000007  0.5412300000000001  1.0000
  O   O32       1.0  0.3998900000000002  0.2664700000000001  0.5800300000000003  1.0000
  O   O33       1.0  0.92566  0.25057  0.68218  1.0000
  O   O34       1.0  0.8551500000000002  0.22950000000000007  0.7337200000000003  1.0000
  O   O35       1.0  0.49745000000000006  0.15098000000000006  0.56429  1.0000
  O   O36       1.0  0.5735200000000003  0.19240000000000004  0.51734  1.0000
  O   O37       1.0  0.6966300000000001  0.8107700000000002  0.72659  1.0000
  O   O38       1.0  0.5709600000000004  0.7312200000000003  0.6776500000000002  1.0000
  O   O39       1.0  0.8737100000000001  0.68488  0.5561300000000002  1.0000
  O   O40       1.0  0.7564200000000003  0.6596600000000002  0.5054500000000002  1.0000
  O   O41       1.0  0.025680000000000043  0.3721  0.21227  1.0000
  O   O42       1.0  0.9041200000000003  0.2847  0.16676000000000002  1.0000
  O   O43       1.0  0.88494  0.56164  0.041220000000000014  1.0000
  O   O44       1.0  0.014779999999999975  0.64813  0.07998  1.0000
  O   O45       1.0  0.9998  0.17408000000000004  0.18227000000000004  1.0000
  O   O46       1.0  0.9776600000000002  0.10344000000000003  0.23369000000000006  1.0000
  O   O47       1.0  0.8997  0.7457800000000001  0.06464000000000003  1.0000
  O   O48       1.0  0.9404000000000001  0.82135  0.01739  1.0000
