data_image0
_chemical_formula_structural       Zn24H272C480O124
_chemical_formula_sum              "Zn24 H272 C480 O124"
_cell_length_a       29.38206
_cell_length_b       30.65411
_cell_length_c       41.74576
_cell_angle_alpha    89.97717
_cell_angle_beta     89.97047
_cell_angle_gamma    89.98172

_symmetry_space_group_name_H-M    'P 1'
_symmetry_Int_Tables_number       1

loop_
  _symmetry_equiv_pos_as_xyz
  'x,y,z'

loop_
  _atom_site_type_symbol
  _atom_site_label
  _atom_site_symmetry_multiplicity
  _atom_site_fract_x
  _atom_site_fract_y
  _atom_site_fract_z
  _atom_site_occupancy
  Zn  Zn1       1.0  0.4309  0.16754  0.14357  1.0000
  Zn  Zn2       1.0  0.51712  0.10945999999999997  0.1467  1.0000
  Zn  Zn3       1.0  0.48561  0.6831099999999998  0.3644  1.0000
  Zn  Zn4       1.0  0.49484000000000006  0.17216999999999993  0.08539  1.0000
  Zn  Zn5       1.0  0.52171  0.7583499999999997  0.40348999999999996  1.0000
  Zn  Zn6       1.0  0.53103  0.21409999999999996  0.15137  1.0000
  Zn  Zn7       1.0  0.5692000000000003  0.66752  0.8561  1.0000
  Zn  Zn8       1.0  0.48304  0.60954  0.8535099999999999  1.0000
  Zn  Zn9       1.0  0.51413  0.18300999999999998  0.63578  1.0000
  Zn  Zn10      1.0  0.50533  0.67223  0.91453  1.0000
  Zn  Zn11      1.0  0.4781100000000001  0.25849  0.59648  1.0000
  Zn  Zn12      1.0  0.4695300000000001  0.7152  0.8497199999999999  1.0000
  Zn  Zn13      1.0  0.93073  0.16767999999999994  0.8562099999999999  1.0000
  Zn  Zn14      1.0  0.016880000000000006  0.10945999999999997  0.85429  1.0000
  Zn  Zn15      1.0  0.98574  0.6831099999999998  0.63568  1.0000
  Zn  Zn16      1.0  0.99443  0.17228999999999994  0.91469  1.0000
  Zn  Zn17      1.0  0.02191  0.7585099999999998  0.59645  1.0000
  Zn  Zn18      1.0  0.03052  0.21518999999999994  0.8497199999999999  1.0000
  Zn  Zn19      1.0  0.06941  0.66752  0.1438  1.0000
  Zn  Zn20      1.0  0.98291  0.60963  0.14671  1.0000
  Zn  Zn21      1.0  0.01431  0.18320999999999996  0.36387  1.0000
  Zn  Zn22      1.0  0.00561  0.67219  0.0856  1.0000
  Zn  Zn23      1.0  0.97855  0.25846  0.40339  1.0000
  Zn  Zn24      1.0  0.96948  0.71436  0.15162  1.0000
  H   H1        1.0  0.31146  0.22048999999999996  0.09632  1.0000
  H   H2        1.0  0.25721  0.26441  0.06323  1.0000
  H   H3        1.0  0.37030000000000013  0.33235  0.02072  1.0000
  H   H4        1.0  0.4239700000000001  0.28647  0.0527  1.0000
  H   H5        1.0  0.24146  0.26857  0.00494  1.0000
  H   H6        1.0  0.2511  0.5699599999999998  0.99261  1.0000
  H   H7        1.0  0.32962  0.5858499999999998  0.99467  1.0000
  H   H8        1.0  0.39378  0.6207999999999998  0.96479  1.0000
  H   H9        1.0  0.38945000000000013  0.51902  0.89473  1.0000
  H   H10       1.0  0.32552  0.4834  0.92422  1.0000
  H   H11       1.0  0.45474  0.8558599999999997  0.35455  1.0000
  H   H12       1.0  0.40411  0.9083  0.3265  1.0000
  H   H13       1.0  0.3248600000000001  0.8015599999999998  0.2895  1.0000
  H   H14       1.0  0.3769600000000001  0.7489799999999999  0.3162  1.0000
  H   H15       1.0  0.3933800000000001  0.92444  0.2714  1.0000
  H   H16       1.0  0.5747200000000002  0.08233  0.23446000000000003  1.0000
  H   H17       1.0  0.61273  0.07146999999999998  0.28752  1.0000
  H   H18       1.0  0.66891  0.20091999999999993  0.28098  1.0000
  H   H19       1.0  0.62932  0.21139999999999995  0.22845  1.0000
  H   H20       1.0  0.72931  0.15832999999999994  0.30558  1.0000
  H   H21       1.0  0.5567300000000002  0.03957  0.46969  1.0000
  H   H22       1.0  0.18271000000000004  0.34403  0.92418  1.0000
  H   H23       1.0  0.12227  0.3061999999999999  0.89267  1.0000
  H   H24       1.0  0.09832000000000003  0.21916  0.97116  1.0000
  H   H25       1.0  0.16024000000000002  0.25524  0.00254  1.0000
  H   H26       1.0  0.15288000000000004  0.56957  0.98298  1.0000
  H   H27       1.0  0.09287  0.61287  0.01163  1.0000
  H   H28       1.0  0.13627  0.5596199999999998  0.10127000000000001  1.0000
  H   H29       1.0  0.19640000000000002  0.51579  0.07314  1.0000
  H   H30       1.0  0.01764  0.8331099999999999  0.19441  1.0000
  H   H31       1.0  0.05834000000000002  0.89249  0.22350999999999996  1.0000
  H   H32       1.0  0.16459  0.8015399999999998  0.24844  1.0000
  H   H33       1.0  0.12411000000000003  0.7434799999999998  0.21755999999999998  1.0000
  H   H34       1.0  0.0785  0.91971  0.27143  1.0000
  H   H35       1.0  0.30919  0.040309999999999985  0.24208999999999997  1.0000
  H   H36       1.0  0.35159  0.09498  0.20915  1.0000
  H   H37       1.0  0.4556000000000001  0.00084  0.19011  1.0000
  H   H38       1.0  0.41286  0.94492  0.22149  1.0000
  H   H39       1.0  0.80381  0.11757  0.32037  1.0000
  H   H40       1.0  0.8841700000000002  0.14127999999999993  0.32786  1.0000
  H   H41       1.0  0.84349  0.22113999999999995  0.40753  1.0000
  H   H42       1.0  0.76317  0.19745999999999994  0.40029  1.0000
  H   H43       1.0  0.52598  0.21818  0.50301  1.0000
  H   H44       1.0  0.55233  0.17805999999999994  0.45475  1.0000
  H   H45       1.0  0.5986400000000002  0.07264999999999998  0.51487  1.0000
  H   H46       1.0  0.56938  0.11189999999999997  0.56279  1.0000
  H   H47       1.0  0.14477  0.04434999999999999  0.27779  1.0000
  H   H48       1.0  0.09967  0.10103999999999998  0.30577  1.0000
  H   H49       1.0  0.02509  0.0007099999999999999  0.35583  1.0000
  H   H50       1.0  0.07055  0.9441899999999998  0.32798  1.0000
  H   H51       1.0  0.99059  0.10101999999999997  0.38192  1.0000
  H   H52       1.0  0.63368  0.9525  0.40389  1.0000
  H   H53       1.0  0.60332  0.8769199999999998  0.40397999999999995  1.0000
  H   H54       1.0  0.47510000000000013  0.9246799999999997  0.44025  1.0000
  H   H55       1.0  0.50567  0.9996399999999999  0.44052  1.0000
  H   H56       1.0  0.46501  0.8180399999999998  0.42752999999999997  1.0000
  H   H57       1.0  0.15679  0.46797999999999995  0.03356  1.0000
  H   H58       1.0  0.30915  0.4250099999999999  0.02803  1.0000
  H   H59       1.0  0.23085  0.8622899999999998  0.30078  1.0000
  H   H60       1.0  0.19032000000000002  0.008569999999999996  0.30993  1.0000
  H   H61       1.0  0.75461  0.12648  0.41068  1.0000
  H   H62       1.0  0.62514  0.16956  0.4490700000000001  1.0000
  H   H63       1.0  0.60644  0.10038  0.34154  1.0000
  H   H64       1.0  0.87218  0.5254199999999999  0.38025  1.0000
  H   H65       1.0  0.18791000000000005  0.38943999999999995  0.9685199999999999  1.0000
  H   H66       1.0  0.31099  0.4453799999999999  0.9705499999999999  1.0000
  H   H67       1.0  0.26626  0.9785699999999998  0.23991999999999997  1.0000
  H   H68       1.0  0.20599000000000006  0.8629099999999997  0.24308999999999997  1.0000
  H   H69       1.0  0.6892  0.71981  0.90333  1.0000
  H   H70       1.0  0.7433  0.76302  0.93691  1.0000
  H   H71       1.0  0.63011  0.8304999999999998  0.9796799999999999  1.0000
  H   H72       1.0  0.57656  0.78543  0.9471199999999999  1.0000
  H   H73       1.0  0.75925  0.7674899999999998  0.99567  1.0000
  H   H74       1.0  0.74811  0.06916999999999997  0.00727  1.0000
  H   H75       1.0  0.66974  0.08476  0.005  1.0000
  H   H76       1.0  0.60589  0.12007  0.03493  1.0000
  H   H77       1.0  0.60999  0.01835  0.1051  1.0000
  H   H78       1.0  0.6736000000000002  0.9823699999999997  0.07556  1.0000
  H   H79       1.0  0.54497  0.35574999999999996  0.64549  1.0000
  H   H80       1.0  0.59564  0.40817999999999993  0.67346  1.0000
  H   H81       1.0  0.67512  0.30141  0.7103  1.0000
  H   H82       1.0  0.623  0.24887999999999993  0.68369  1.0000
  H   H83       1.0  0.60648  0.4243699999999999  0.72852  1.0000
  H   H84       1.0  0.42641  0.58339  0.76545  1.0000
  H   H85       1.0  0.3880800000000001  0.5728499999999997  0.71257  1.0000
  H   H86       1.0  0.33123000000000014  0.7019599999999998  0.71982  1.0000
  H   H87       1.0  0.37099000000000004  0.7121299999999998  0.7722499999999999  1.0000
  H   H88       1.0  0.27062  0.6588399999999999  0.6947  1.0000
  H   H89       1.0  0.44341  0.5402099999999997  0.53085  1.0000
  H   H90       1.0  0.81715  0.8434199999999997  0.07651  1.0000
  H   H91       1.0  0.87709  0.80528  0.10837  1.0000
  H   H92       1.0  0.90151  0.71815  0.03003  1.0000
  H   H93       1.0  0.84001  0.7544299999999998  0.99838  1.0000
  H   H94       1.0  0.84686  0.06906999999999998  0.01704  1.0000
  H   H95       1.0  0.9067800000000003  0.11245999999999998  0.98849  1.0000
  H   H96       1.0  0.86359  0.05938999999999999  0.89877  1.0000
  H   H97       1.0  0.80351  0.015539999999999997  0.9268099999999999  1.0000
  H   H98       1.0  0.98244  0.33438  0.8055999999999999  1.0000
  H   H99       1.0  0.94176  0.39325  0.77602  1.0000
  H   H100      1.0  0.83565  0.30207  0.75161  1.0000
  H   H101      1.0  0.87602  0.24442999999999995  0.7829199999999998  1.0000
  H   H102      1.0  0.92136  0.4201699999999999  0.72779  1.0000
  H   H103      1.0  0.69  0.54043  0.75757  1.0000
  H   H104      1.0  0.6476  0.5947699999999998  0.79082  1.0000
  H   H105      1.0  0.54488  0.49975999999999987  0.81087  1.0000
  H   H106      1.0  0.58755  0.4442599999999999  0.77906  1.0000
  H   H107      1.0  0.19593000000000005  0.6178499999999998  0.67972  1.0000
  H   H108      1.0  0.11558  0.6413599999999998  0.67148  1.0000
  H   H109      1.0  0.15723  0.7204899999999997  0.59161  1.0000
  H   H110      1.0  0.23755000000000007  0.69719  0.59974  1.0000
  H   H111      1.0  0.47415000000000007  0.71853  0.49704  1.0000
  H   H112      1.0  0.44798  0.67856  0.54544  1.0000
  H   H113      1.0  0.40142  0.5729999999999997  0.48567999999999995  1.0000
  H   H114      1.0  0.43055  0.61204  0.4375899999999999  1.0000
  H   H115      1.0  0.8541300000000002  0.54453  0.72073  1.0000
  H   H116      1.0  0.8993600000000003  0.6011199999999998  0.69256  1.0000
  H   H117      1.0  0.9756600000000002  0.5004  0.6442599999999999  1.0000
  H   H118      1.0  0.9297600000000003  0.4439899999999999  0.67199  1.0000
  H   H119      1.0  0.01111  0.59908  0.61818  1.0000
  H   H120      1.0  0.36611  0.4531499999999999  0.59654  1.0000
  H   H121      1.0  0.39613  0.37745  0.5961  1.0000
  H   H122      1.0  0.52437  0.4248299999999999  0.5597  1.0000
  H   H123      1.0  0.49419  0.49992  0.55979  1.0000
  H   H124      1.0  0.53425  0.3179899999999999  0.57214  1.0000
  H   H125      1.0  0.84319  0.9678599999999998  0.9665299999999999  1.0000
  H   H126      1.0  0.69072  0.9233799999999998  0.97167  1.0000
  H   H127      1.0  0.76906  0.3621899999999999  0.69911  1.0000
  H   H128      1.0  0.8094800000000002  0.50873  0.68896  1.0000
  H   H129      1.0  0.24562000000000006  0.62646  0.58961  1.0000
  H   H130      1.0  0.37509  0.67041  0.5511  1.0000
  H   H131      1.0  0.3941200000000001  0.6019999999999998  0.65879  1.0000
  H   H132      1.0  0.12747  0.02624  0.62052  1.0000
  H   H133      1.0  0.81198  0.8888299999999998  0.03177  1.0000
  H   H134      1.0  0.68887  0.94429  0.02922  1.0000
  H   H135      1.0  0.73355  0.4787999999999999  0.75964  1.0000
  H   H136      1.0  0.79403  0.3638  0.75691  1.0000
  H   H137      1.0  0.8113500000000002  0.22079999999999994  0.90365  1.0000
  H   H138      1.0  0.75728  0.26434  0.9371499999999999  1.0000
  H   H139      1.0  0.87037  0.3326899999999999  0.97901  1.0000
  H   H140      1.0  0.92403  0.2874199999999999  0.9464999999999999  1.0000
  H   H141      1.0  0.7423400000000002  0.2684699999999999  0.99563  1.0000
  H   H142      1.0  0.7512400000000002  0.5699599999999998  0.0072499999999999995  1.0000
  H   H143      1.0  0.8297  0.5859599999999998  0.00547  1.0000
  H   H144      1.0  0.8937000000000003  0.6209199999999999  0.0354  1.0000
  H   H145      1.0  0.8891900000000003  0.51909  0.10549  1.0000
  H   H146      1.0  0.8254400000000001  0.4834499999999999  0.07594  1.0000
  H   H147      1.0  0.9549  0.8558599999999997  0.64541  1.0000
  H   H148      1.0  0.90439  0.9083699999999998  0.67349  1.0000
  H   H149      1.0  0.82495  0.80174  0.71054  1.0000
  H   H150      1.0  0.8769100000000002  0.7491299999999997  0.68383  1.0000
  H   H151      1.0  0.89338  0.9245899999999999  0.72875  1.0000
  H   H152      1.0  0.07303  0.08333  0.7655  1.0000
  H   H153      1.0  0.11121  0.07279  0.71253  1.0000
  H   H154      1.0  0.16824  0.20182999999999995  0.71982  1.0000
  H   H155      1.0  0.12859  0.21191  0.77234  1.0000
  H   H156      1.0  0.22878  0.15907  0.69471  1.0000
  H   H157      1.0  0.05664  0.04012  0.53078  1.0000
  H   H158      1.0  0.68425  0.34337  0.07687  1.0000
  H   H159      1.0  0.62445  0.30489  0.10868999999999998  1.0000
  H   H160      1.0  0.6003100000000002  0.21812999999999994  0.030119999999999997  1.0000
  H   H161      1.0  0.66171  0.25473999999999997  0.99851  1.0000
  H   H162      1.0  0.65232  0.5694399999999997  0.0165  1.0000
  H   H163      1.0  0.59271  0.6125299999999998  0.98732  1.0000
  H   H164      1.0  0.6379100000000002  0.55938  0.89809  1.0000
  H   H165      1.0  0.69757  0.5156699999999997  0.92676  1.0000
  H   H166      1.0  0.51742  0.83357  0.80556  1.0000
  H   H167      1.0  0.55805  0.89282  0.77622  1.0000
  H   H168      1.0  0.6642400000000002  0.8017899999999998  0.7513099999999999  1.0000
  H   H169      1.0  0.62388  0.74387  0.78241  1.0000
  H   H170      1.0  0.57839  0.9200599999999998  0.7282  1.0000
  H   H171      1.0  0.80966  0.040449999999999986  0.7582199999999999  1.0000
  H   H172      1.0  0.85224  0.09483999999999997  0.79122  1.0000
  H   H173      1.0  0.9552200000000002  0.9999199999999999  0.81091  1.0000
  H   H174      1.0  0.9124000000000002  0.9443599999999998  0.77933  1.0000
  H   H175      1.0  0.3037200000000001  0.11819999999999997  0.67975  1.0000
  H   H176      1.0  0.38409  0.14146999999999996  0.67137  1.0000
  H   H177      1.0  0.34249  0.22078999999999993  0.59162  1.0000
  H   H178      1.0  0.26214  0.19759999999999994  0.59983  1.0000
  H   H179      1.0  0.023980000000000008  0.21720999999999993  0.49663000000000007  1.0000
  H   H180      1.0  0.051640000000000005  0.17830999999999994  0.54512  1.0000
  H   H181      1.0  0.09918  0.07279  0.48568999999999996  1.0000
  H   H182      1.0  0.0692  0.11099  0.43748  1.0000
  H   H183      1.0  0.64455  0.04487  0.72188  1.0000
  H   H184      1.0  0.59865  0.10124999999999998  0.69405  1.0000
  H   H185      1.0  0.52459  0.00033  0.6444  1.0000
  H   H186      1.0  0.5707100000000003  0.9440899999999998  0.67203  1.0000
  H   H187      1.0  0.48913  0.09899  0.61808  1.0000
  H   H188      1.0  0.13384  0.9533199999999997  0.59662  1.0000
  H   H189      1.0  0.10414  0.87752  0.59611  1.0000
  H   H190      1.0  0.9759  0.9245399999999998  0.55951  1.0000
  H   H191      1.0  0.005740000000000001  0.9997399999999999  0.55964  1.0000
  H   H192      1.0  0.9659300000000001  0.81809  0.57282  1.0000
  H   H193      1.0  0.65707  0.46794999999999987  0.9663799999999999  1.0000
  H   H194      1.0  0.80902  0.42513999999999996  0.9719100000000002  1.0000
  H   H195      1.0  0.73092  0.8623899999999998  0.69937  1.0000
  H   H196      1.0  0.69057  0.008899999999999998  0.68999  1.0000
  H   H197      1.0  0.25438  0.12646999999999994  0.58972  1.0000
  H   H198      1.0  0.12582  0.1699  0.55058  1.0000
  H   H199      1.0  0.10568000000000002  0.10174999999999997  0.65871  1.0000
  H   H200      1.0  0.37262  0.52635  0.62065  1.0000
  H   H201      1.0  0.6886  0.38912999999999986  0.03232  1.0000
  H   H202      1.0  0.81097  0.44541999999999987  0.029649999999999996  1.0000
  H   H203      1.0  0.7662  0.9785599999999998  0.76027  1.0000
  H   H204      1.0  0.70563  0.8630399999999998  0.75676  1.0000
  H   H205      1.0  0.18859  0.72052  0.09637  1.0000
  H   H206      1.0  0.24276000000000006  0.7641699999999998  0.06301  1.0000
  H   H207      1.0  0.12967  0.83294  0.02126  1.0000
  H   H208      1.0  0.07606  0.78748  0.05363  1.0000
  H   H209      1.0  0.25848  0.76864  0.00499  1.0000
  H   H210      1.0  0.24905000000000005  0.07005  0.9928  1.0000
  H   H211      1.0  0.17034000000000005  0.08591999999999997  0.99491  1.0000
  H   H212      1.0  0.10611000000000002  0.1208  0.96508  1.0000
  H   H213      1.0  0.1107  0.01902  0.89499  1.0000
  H   H214      1.0  0.17473  0.9835199999999997  0.92442  1.0000
  H   H215      1.0  0.04784  0.35559  0.35574999999999996  1.0000
  H   H216      1.0  0.09841  0.4080799999999999  0.32776  1.0000
  H   H217      1.0  0.17765000000000006  0.3015299999999999  0.29041  1.0000
  H   H218      1.0  0.12546  0.24879999999999994  0.31687  1.0000
  H   H219      1.0  0.10778  0.4237499999999999  0.27224  1.0000
  H   H220      1.0  0.9250500000000003  0.5822499999999998  0.23444999999999996  1.0000
  H   H221      1.0  0.8869500000000002  0.5714  0.2875  1.0000
  H   H222      1.0  0.8308500000000002  0.7009099999999998  0.28105  1.0000
  H   H223      1.0  0.8705600000000002  0.7114399999999997  0.22855  1.0000
  H   H224      1.0  0.77032  0.6579199999999997  0.30569  1.0000
  H   H225      1.0  0.9434500000000001  0.5401199999999998  0.46972  1.0000
  H   H226      1.0  0.31729  0.84399  0.92421  1.0000
  H   H227      1.0  0.3777600000000001  0.80599  0.89273  1.0000
  H   H228      1.0  0.4015100000000001  0.71905  0.9713  1.0000
  H   H229      1.0  0.33955  0.7552899999999998  0.00265  1.0000
  H   H230      1.0  0.34738  0.06959  0.9832200000000001  1.0000
  H   H231      1.0  0.40730000000000005  0.11276  0.01199  1.0000
  H   H232      1.0  0.3635100000000001  0.05948  0.10153999999999999  1.0000
  H   H233      1.0  0.3034700000000001  0.01575  0.0733  1.0000
  H   H234      1.0  0.48374  0.3332099999999999  0.19457000000000002  1.0000
  H   H235      1.0  0.44345  0.3924499999999999  0.22413  1.0000
  H   H236      1.0  0.33629  0.30204  0.24813999999999997  1.0000
  H   H237      1.0  0.37626  0.24420999999999995  0.21678  1.0000
  H   H238      1.0  0.42257000000000006  0.42002  0.27182  1.0000
  H   H239      1.0  0.1911  0.53975  0.24237  1.0000
  H   H240      1.0  0.14901  0.5945399999999997  0.20941999999999997  1.0000
  H   H241      1.0  0.04462  0.5008  0.19041  1.0000
  H   H242      1.0  0.08711000000000003  0.4448  0.22184  1.0000
  H   H243      1.0  0.69587  0.6174  0.32069  1.0000
  H   H244      1.0  0.61549  0.64101  0.3288  1.0000
  H   H245      1.0  0.65687  0.7201999999999997  0.40858999999999995  1.0000
  H   H246      1.0  0.73725  0.69684  0.40059  1.0000
  H   H247      1.0  0.9743600000000001  0.71834  0.50302  1.0000
  H   H248      1.0  0.94807  0.6782799999999998  0.45470999999999995  1.0000
  H   H249      1.0  0.90122  0.5730399999999998  0.51474  1.0000
  H   H250      1.0  0.9305000000000002  0.61214  0.56271  1.0000
  H   H251      1.0  0.35665  0.54545  0.27786  1.0000
  H   H252      1.0  0.40113  0.60153  0.30693  1.0000
  H   H253      1.0  0.4754700000000001  0.50019  0.35601  1.0000
  H   H254      1.0  0.4300100000000001  0.4442299999999999  0.32766  1.0000
  H   H255      1.0  0.51235  0.59941  0.38151  1.0000
  H   H256      1.0  0.86586  0.4524699999999999  0.40490999999999994  1.0000
  H   H257      1.0  0.89612  0.37685999999999986  0.40531999999999996  1.0000
  H   H258      1.0  0.02468  0.4247899999999999  0.44064  1.0000
  H   H259      1.0  0.99415  0.4997899999999999  0.44078999999999996  1.0000
  H   H260      1.0  0.0363  0.31945  0.42395  1.0000
  H   H261      1.0  0.34331  0.96791  0.03362  1.0000
  H   H262      1.0  0.19082000000000005  0.9251399999999997  0.02809  1.0000
  H   H263      1.0  0.27125  0.3639199999999999  0.30177  1.0000
  H   H264      1.0  0.31015  0.5108199999999999  0.30787  1.0000
  H   H265      1.0  0.74541  0.6263699999999998  0.41085  1.0000
  H   H266      1.0  0.87502  0.6701  0.44891  1.0000
  H   H267      1.0  0.8936  0.60071  0.34154  1.0000
  H   H268      1.0  0.62769  0.025329999999999995  0.38  1.0000
  H   H269      1.0  0.31215000000000004  0.8894599999999998  0.96857  1.0000
  H   H270      1.0  0.18914000000000006  0.9455499999999999  0.97071  1.0000
  H   H271      1.0  0.23386  0.4781899999999999  0.23907  1.0000
  H   H272      1.0  0.29532  0.36336  0.24303  1.0000
  C   C1        1.0  0.37089  0.25095  0.07642  1.0000
  C   C2        1.0  0.32378  0.24475999999999995  0.07942  1.0000
  C   C3        1.0  0.2937500000000001  0.26925  0.060899999999999996  1.0000
  C   C4        1.0  0.30998  0.3012299999999999  0.03952  1.0000
  C   C5        1.0  0.35728  0.30777999999999994  0.03709  1.0000
  C   C6        1.0  0.38733000000000006  0.28247  0.05496  1.0000
  C   C7        1.0  0.27734  0.3260099999999999  0.01961  1.0000
  C   C8        1.0  0.2797200000000001  0.37197999999999987  0.01642  1.0000
  C   C9        1.0  0.24701000000000004  0.3947799999999999  0.99812  1.0000
  C   C10       1.0  0.21327  0.3715099999999999  0.9821699999999999  1.0000
  C   C11       1.0  0.21062  0.3258299999999999  0.9841  1.0000
  C   C12       1.0  0.24240000000000006  0.304  0.00344  1.0000
  C   C13       1.0  0.24812000000000006  0.4431099999999999  0.99664  1.0000
  C   C14       1.0  0.21305000000000002  0.4680699999999999  0.01069  1.0000
  C   C15       1.0  0.21475  0.51408  0.00985  1.0000
  C   C16       1.0  0.25074  0.5344899999999998  0.99379  1.0000
  C   C17       1.0  0.28571  0.51049  0.9791  1.0000
  C   C18       1.0  0.28393  0.4647999999999999  0.98126  1.0000
  C   C19       1.0  0.3232  0.53197  0.96164  1.0000
  C   C20       1.0  0.34239  0.57125  0.9726799999999999  1.0000
  C   C21       1.0  0.37826  0.5907699999999998  0.95627  1.0000
  C   C22       1.0  0.39545  0.57185  0.92816  1.0000
  C   C23       1.0  0.37622  0.5329999999999998  0.9167799999999999  1.0000
  C   C24       1.0  0.34073  0.5132199999999998  0.93342  1.0000
  C   C25       1.0  0.4192400000000001  0.7989599999999999  0.33709  1.0000
  C   C26       1.0  0.42651  0.8441699999999998  0.34010999999999997  1.0000
  C   C27       1.0  0.39817  0.87339  0.32435  1.0000
  C   C28       1.0  0.36121  0.8586399999999997  0.30568  1.0000
  C   C29       1.0  0.35334  0.8133499999999998  0.30365  1.0000
  C   C30       1.0  0.38234  0.7839  0.31865  1.0000
  C   C31       1.0  0.33375  0.8906399999999998  0.28765  1.0000
  C   C32       1.0  0.35636  0.92392  0.2709  1.0000
  C   C33       1.0  0.3332  0.9557599999999998  0.25317  1.0000
  C   C34       1.0  0.28547  0.95455  0.25353  1.0000
  C   C35       1.0  0.26151  0.92224  0.27007  1.0000
  C   C36       1.0  0.28571  0.88962  0.28675  1.0000
  C   C37       1.0  0.5998  0.14743  0.22855  1.0000
  C   C38       1.0  0.59522  0.10796  0.24522000000000002  1.0000
  C   C39       1.0  0.61638  0.10222  0.27474  1.0000
  C   C40       1.0  0.64349  0.13549  0.28792  1.0000
  C   C41       1.0  0.6486500000000002  0.17469  0.27075  1.0000
  C   C42       1.0  0.62661  0.18081  0.24153  1.0000
  C   C43       1.0  0.66533  0.12979  0.31949  1.0000
  C   C44       1.0  0.6414200000000002  0.11094999999999997  0.34518  1.0000
  C   C45       1.0  0.66037  0.1072  0.37579  1.0000
  C   C46       1.0  0.70502  0.12237999999999997  0.38096  1.0000
  C   C47       1.0  0.73025  0.14068999999999995  0.35547  1.0000
  C   C48       1.0  0.7099000000000001  0.144  0.32515  1.0000
  C   C49       1.0  0.6179400000000003  0.04476  0.40072  1.0000
  C   C50       1.0  0.5898400000000003  0.026579999999999993  0.42458  1.0000
  C   C51       1.0  0.57781  0.05298999999999999  0.45066  1.0000
  C   C52       1.0  0.59196  0.09649  0.45311  1.0000
  C   C53       1.0  0.61954  0.11397999999999997  0.42850999999999995  1.0000
  C   C54       1.0  0.63297  0.08798999999999998  0.4022  1.0000
  C   C55       1.0  0.17550000000000004  0.30254  0.9656699999999999  1.0000
  C   C56       1.0  0.16413  0.31679  0.93457  1.0000
  C   C57       1.0  0.13054  0.29583  0.91689  1.0000
  C   C58       1.0  0.1065  0.26074999999999987  0.93027  1.0000
  C   C59       1.0  0.11755000000000003  0.24624999999999994  0.9611899999999999  1.0000
  C   C60       1.0  0.1521  0.2664299999999999  0.97848  1.0000
  C   C61       1.0  0.17864  0.5397899999999998  0.026109999999999998  1.0000
  C   C62       1.0  0.14931000000000003  0.56741  0.00888  1.0000
  C   C63       1.0  0.11584000000000003  0.59149  0.02471  1.0000
  C   C64       1.0  0.11114000000000003  0.58861  0.05806999999999999  1.0000
  C   C65       1.0  0.14017000000000002  0.5609999999999998  0.07537  1.0000
  C   C66       1.0  0.17338  0.53664  0.05958  1.0000
  C   C67       1.0  0.06861  0.7849599999999998  0.20436  1.0000
  C   C68       1.0  0.04975000000000001  0.8268399999999998  0.20651  1.0000
  C   C69       1.0  0.07241  0.8596499999999998  0.22318999999999997  1.0000
  C   C70       1.0  0.11426000000000001  0.85126  0.23843  1.0000
  C   C71       1.0  0.13263  0.80892  0.23644  1.0000
  C   C72       1.0  0.11019  0.77626  0.21952000000000002  1.0000
  C   C73       1.0  0.21092  0.9220399999999997  0.27016  1.0000
  C   C74       1.0  0.1864  0.95637  0.2847  1.0000
  C   C75       1.0  0.13826  0.95543  0.28528  1.0000
  C   C76       1.0  0.11552  0.92013  0.27096  1.0000
  C   C77       1.0  0.13881  0.8863599999999998  0.25539  1.0000
  C   C78       1.0  0.18672  0.8879799999999998  0.25567  1.0000
  C   C79       1.0  0.35819  0.9887499999999998  0.23436  1.0000
  C   C80       1.0  0.3409500000000001  0.03126999999999999  0.23044  1.0000
  C   C81       1.0  0.3645800000000001  0.06204  0.21237  1.0000
  C   C82       1.0  0.40622  0.051119999999999985  0.19804  1.0000
  C   C83       1.0  0.42358  0.008849999999999997  0.20177999999999996  1.0000
  C   C84       1.0  0.39978  0.97802  0.21959  1.0000
  C   C85       1.0  0.77786  0.15510999999999994  0.36011  1.0000
  C   C86       1.0  0.8125900000000003  0.1401  0.33953  1.0000
  C   C87       1.0  0.85754  0.15321999999999997  0.3437  1.0000
  C   C88       1.0  0.8689200000000002  0.18239  0.36843  1.0000
  C   C89       1.0  0.83454  0.19801999999999995  0.38883  1.0000
  C   C90       1.0  0.78973  0.18429999999999994  0.38486999999999993  1.0000
  C   C91       1.0  0.54568  0.16746999999999995  0.53592  1.0000
  C   C92       1.0  0.5421  0.18640999999999994  0.5054  1.0000
  C   C93       1.0  0.55761  0.16399999999999995  0.47842999999999997  1.0000
  C   C94       1.0  0.57763  0.12231999999999997  0.48132  1.0000
  C   C95       1.0  0.5822  0.10425999999999998  0.51223  1.0000
  C   C96       1.0  0.5661600000000002  0.12621  0.53906  1.0000
  C   C97       1.0  0.11159  0.9899199999999998  0.30138  1.0000
  C   C98       1.0  0.11942000000000001  0.03472999999999998  0.29548  1.0000
  C   C99       1.0  0.09381  0.06669  0.3108  1.0000
  C   C100      1.0  0.0596  0.05499  0.33291  1.0000
  C   C101      1.0  0.0513  0.010279999999999996  0.33884  1.0000
  C   C102      1.0  0.07674  0.9785799999999998  0.32318  1.0000
  C   C103      1.0  0.06935  0.23861999999999994  0.91201  1.0000
  C   C104      1.0  0.40371  0.22398999999999994  0.09542  1.0000
  C   C105      1.0  0.04538  0.74952  0.18553  1.0000
  C   C106      1.0  0.4502800000000001  0.7681199999999998  0.35294  1.0000
  C   C107      1.0  0.07623  0.6152099999999998  0.07577  1.0000
  C   C108      1.0  0.91646  0.19718  0.37299  1.0000
  C   C109      1.0  0.52697  0.18963  0.56467  1.0000
  C   C110      1.0  0.57504  0.15358  0.19734  1.0000
  C   C111      1.0  0.43355  0.59369  0.91056  1.0000
  C   C112      1.0  0.43222000000000005  0.08424999999999998  0.17892  1.0000
  C   C113      1.0  0.03402  0.08932999999999999  0.34907  1.0000
  C   C114      1.0  0.53741  0.8955  0.42265  1.0000
  C   C115      1.0  0.57224  0.98162  0.4228700000000001  1.0000
  C   C116      1.0  0.59897  0.9463799999999998  0.41183000000000003  1.0000
  C   C117      1.0  0.58221  0.9039499999999998  0.41201  1.0000
  C   C118      1.0  0.50996  0.9307099999999998  0.43276999999999993  1.0000
  C   C119      1.0  0.52731  0.9727299999999998  0.43302999999999997  1.0000
  C   C120      1.0  0.5195  0.8512699999999997  0.42293  1.0000
  C   C121      1.0  0.62964  0.75025  0.9231099999999999  1.0000
  C   C122      1.0  0.67677  0.7438799999999998  0.9203400000000002  1.0000
  C   C123      1.0  0.70677  0.7679799999999998  0.9391800000000001  1.0000
  C   C124      1.0  0.69054  0.79977  0.96072  1.0000
  C   C125      1.0  0.64321  0.8062299999999998  0.96311  1.0000
  C   C126      1.0  0.6132  0.7813599999999998  0.9449  1.0000
  C   C127      1.0  0.72313  0.8246599999999997  0.98065  1.0000
  C   C128      1.0  0.7205700000000002  0.87067  0.98364  1.0000
  C   C129      1.0  0.75314  0.89385  0.0018299999999999998  1.0000
  C   C130      1.0  0.7868300000000003  0.87075  0.01805  1.0000
  C   C131      1.0  0.7896100000000003  0.8250399999999998  0.01639  1.0000
  C   C132      1.0  0.75808  0.80293  0.9970099999999998  1.0000
  C   C133      1.0  0.75179  0.94226  0.00318  1.0000
  C   C134      1.0  0.7868000000000002  0.9674799999999998  0.9892299999999999  1.0000
  C   C135      1.0  0.78491  0.0135  0.99009  1.0000
  C   C136      1.0  0.7487000000000003  0.03369999999999999  0.00606  1.0000
  C   C137      1.0  0.7137800000000001  0.00951  0.02068  1.0000
  C   C138      1.0  0.71583  0.9638299999999997  0.01851  1.0000
  C   C139      1.0  0.67617  0.030929999999999992  0.0381  1.0000
  C   C140      1.0  0.6570100000000002  0.07023999999999997  0.02704  1.0000
  C   C141      1.0  0.6213  0.08997999999999998  0.04349  1.0000
  C   C142      1.0  0.60415  0.07124999999999997  0.07168  1.0000
  C   C143      1.0  0.6232  0.03227  0.08301999999999998  1.0000
  C   C144      1.0  0.6585500000000002  0.01227  0.06634  1.0000
  C   C145      1.0  0.58056  0.29885999999999996  0.66291  1.0000
  C   C146      1.0  0.57324  0.3440699999999999  0.65992  1.0000
  C   C147      1.0  0.6016  0.3732699999999999  0.67563  1.0000
  C   C148      1.0  0.63864  0.35854999999999987  0.69424  1.0000
  C   C149      1.0  0.64656  0.31325999999999987  0.69625  1.0000
  C   C150      1.0  0.6175400000000002  0.28381  0.68129  1.0000
  C   C151      1.0  0.66613  0.39065  0.71216  1.0000
  C   C152      1.0  0.6435000000000002  0.4238999999999999  0.72894  1.0000
  C   C153      1.0  0.6666100000000003  0.45575  0.74664  1.0000
  C   C154      1.0  0.71436  0.4547599999999999  0.74607  1.0000
  C   C155      1.0  0.73834  0.42255  0.7294499999999999  1.0000
  C   C156      1.0  0.7141800000000001  0.38974  0.71297  1.0000
  C   C157      1.0  0.40107  0.64834  0.77186  1.0000
  C   C158      1.0  0.40573  0.60908  0.75492  1.0000
  C   C159      1.0  0.38435000000000014  0.60349  0.72546  1.0000
  C   C160      1.0  0.3569400000000001  0.6367  0.71247  1.0000
  C   C161      1.0  0.35171  0.6757199999999998  0.72985  1.0000
  C   C162      1.0  0.37394  0.6816699999999998  0.7590499999999999  1.0000
  C   C163      1.0  0.33499  0.6309099999999997  0.6809  1.0000
  C   C164      1.0  0.35901  0.6122099999999998  0.6552  1.0000
  C   C165      1.0  0.34002  0.60812  0.62462  1.0000
  C   C166      1.0  0.29522  0.6227899999999997  0.61938  1.0000
  C   C167      1.0  0.26991  0.64099  0.64487  1.0000
  C   C168      1.0  0.29024000000000005  0.6446299999999998  0.67519  1.0000
  C   C169      1.0  0.38235  0.5456499999999997  0.59984  1.0000
  C   C170      1.0  0.41025  0.52726  0.57596  1.0000
  C   C171      1.0  0.4223500000000001  0.5536499999999998  0.54987  1.0000
  C   C172      1.0  0.40824  0.5971599999999998  0.54732  1.0000
  C   C173      1.0  0.3807  0.61488  0.57185  1.0000
  C   C174      1.0  0.3674400000000001  0.58894  0.59825  1.0000
  C   C175      1.0  0.82455  0.8018299999999998  0.0351  1.0000
  C   C176      1.0  0.83569  0.81606  0.06624  1.0000
  C   C177      1.0  0.869  0.7949299999999998  0.08413  1.0000
  C   C178      1.0  0.89308  0.75976  0.07094  1.0000
  C   C179      1.0  0.88228  0.74529  0.03996  1.0000
  C   C180      1.0  0.84797  0.7656  0.02247  1.0000
  C   C181      1.0  0.82106  0.039359999999999985  0.9739  1.0000
  C   C182      1.0  0.8503900000000002  0.06695999999999998  0.99114  1.0000
  C   C183      1.0  0.88386  0.09112  0.97535  1.0000
  C   C184      1.0  0.8886500000000003  0.08839  0.9419799999999999  1.0000
  C   C185      1.0  0.85966  0.06077999999999999  0.92467  1.0000
  C   C186      1.0  0.8264400000000002  0.03636  0.94042  1.0000
  C   C187      1.0  0.93163  0.28583999999999987  0.79588  1.0000
  C   C188      1.0  0.95038  0.3277799999999999  0.79352  1.0000
  C   C189      1.0  0.92767  0.36044  0.7766299999999999  1.0000
  C   C190      1.0  0.8858100000000002  0.35197  0.76143  1.0000
  C   C191      1.0  0.8675100000000002  0.30964  0.76366  1.0000
  C   C192      1.0  0.89  0.2771499999999999  0.7807699999999999  1.0000
  C   C193      1.0  0.7889400000000002  0.4224299999999999  0.72924  1.0000
  C   C194      1.0  0.81334  0.4565499999999999  0.71435  1.0000
  C   C195      1.0  0.86145  0.4556599999999999  0.71393  1.0000
  C   C196      1.0  0.88433  0.42054  0.72842  1.0000
  C   C197      1.0  0.86118  0.3869399999999999  0.74428  1.0000
  C   C198      1.0  0.81325  0.38864  0.7440599999999999  1.0000
  C   C199      1.0  0.6416  0.48848999999999987  0.76571  1.0000
  C   C200      1.0  0.65854  0.5311199999999998  0.76951  1.0000
  C   C201      1.0  0.63495  0.5616899999999998  0.7877699999999999  1.0000
  C   C202      1.0  0.59368  0.5505099999999998  0.80251  1.0000
  C   C203      1.0  0.5766300000000002  0.50809  0.79895  1.0000
  C   C204      1.0  0.6003800000000002  0.4774499999999999  0.78088  1.0000
  C   C205      1.0  0.2223  0.65519  0.64  1.0000
  C   C206      1.0  0.18736  0.64022  0.66039  1.0000
  C   C207      1.0  0.14242  0.65316  0.65576  1.0000
  C   C208      1.0  0.13128  0.6819399999999998  0.63073  1.0000
  C   C209      1.0  0.16591  0.6975799999999998  0.61052  1.0000
  C   C210      1.0  0.21072  0.68413  0.61499  1.0000
  C   C211      1.0  0.45437  0.6676599999999998  0.46431999999999995  1.0000
  C   C212      1.0  0.45802  0.6867599999999998  0.49476999999999993  1.0000
  C   C213      1.0  0.44258  0.6644599999999998  0.52181  1.0000
  C   C214      1.0  0.42257000000000006  0.6227899999999997  0.51902  1.0000
  C   C215      1.0  0.4178700000000001  0.6046  0.48817999999999995  1.0000
  C   C216      1.0  0.4338400000000001  0.62644  0.46128  1.0000
  C   C217      1.0  0.88803  0.4900199999999999  0.69776  1.0000
  C   C218      1.0  0.8797600000000002  0.53485  0.7032499999999999  1.0000
  C   C219      1.0  0.9054100000000003  0.5667  0.6879  1.0000
  C   C220      1.0  0.9400700000000002  0.5546  0.66627  1.0000
  C   C221      1.0  0.9488600000000003  0.50993  0.66079  1.0000
  C   C222      1.0  0.9232800000000001  0.4783999999999999  0.67639  1.0000
  C   C223      1.0  0.93026  0.7377399999999997  0.08933  1.0000
  C   C224      1.0  0.59675  0.7240899999999998  0.90352  1.0000
  C   C225      1.0  0.95481  0.25015999999999994  0.81471  1.0000
  C   C226      1.0  0.54955  0.2680499999999999  0.64705  1.0000
  C   C227      1.0  0.92362  0.11506999999999998  0.92431  1.0000
  C   C228      1.0  0.08372000000000002  0.69636  0.62567  1.0000
  C   C229      1.0  0.47305  0.68972  0.43553  1.0000
  C   C230      1.0  0.42584  0.6540299999999998  0.80321  1.0000
  C   C231      1.0  0.56631  0.09342  0.08941  1.0000
  C   C232      1.0  0.56791  0.5837999999999998  0.8216899999999999  1.0000
  C   C233      1.0  0.96605  0.58844  0.65007  1.0000
  C   C234      1.0  0.46205  0.39578  0.57742  1.0000
  C   C235      1.0  0.4276000000000001  0.4821499999999999  0.57755  1.0000
  C   C236      1.0  0.40077  0.4469499999999999  0.58852  1.0000
  C   C237      1.0  0.41736  0.40445  0.58818  1.0000
  C   C238      1.0  0.4896000000000001  0.43096  0.56735  1.0000
  C   C239      1.0  0.47244000000000014  0.4730799999999999  0.56726  1.0000
  C   C240      1.0  0.47963  0.35137  0.57705  1.0000
  C   C241      1.0  0.8708300000000001  0.25160999999999994  0.9230699999999998  1.0000
  C   C242      1.0  0.8237300000000002  0.24516  0.9204299999999999  1.0000
  C   C243      1.0  0.7938  0.26944  0.9391800000000001  1.0000
  C   C244      1.0  0.81013  0.3014399999999999  0.96046  1.0000
  C   C245      1.0  0.8574100000000002  0.30819999999999986  0.96258  1.0000
  C   C246      1.0  0.88739  0.2831799999999999  0.9444399999999998  1.0000
  C   C247      1.0  0.77764  0.3260599999999999  0.98059  1.0000
  C   C248      1.0  0.77983  0.3720399999999999  0.9837199999999999  1.0000
  C   C249      1.0  0.7472  0.3947499999999999  0.00218  1.0000
  C   C250      1.0  0.7138400000000003  0.3713299999999999  0.01846  1.0000
  C   C251      1.0  0.71149  0.3256099999999999  0.01666  1.0000
  C   C252      1.0  0.7430800000000002  0.3039099999999999  0.9970699999999999  1.0000
  C   C253      1.0  0.74818  0.4430999999999999  0.0035499999999999998  1.0000
  C   C254      1.0  0.71318  0.46803  0.9893899999999999  1.0000
  C   C255      1.0  0.71492  0.51405  0.99012  1.0000
  C   C256      1.0  0.75086  0.5344899999999998  0.00618  1.0000
  C   C257      1.0  0.7857600000000002  0.51053  0.021  1.0000
  C   C258      1.0  0.7839500000000003  0.46483999999999986  0.01891  1.0000
  C   C259      1.0  0.82317  0.5320399999999997  0.0385  1.0000
  C   C260      1.0  0.84238  0.5713399999999997  0.02748  1.0000
  C   C261      1.0  0.8781800000000002  0.5908799999999997  0.04394  1.0000
  C   C262      1.0  0.8953400000000002  0.57196  0.07206  1.0000
  C   C263      1.0  0.87605  0.5331  0.08343  1.0000
  C   C264      1.0  0.84063  0.5133  0.06675  1.0000
  C   C265      1.0  0.91935  0.79902  0.66292  1.0000
  C   C266      1.0  0.92666  0.8442199999999997  0.6599  1.0000
  C   C267      1.0  0.89836  0.8734799999999998  0.67566  1.0000
  C   C268      1.0  0.8613300000000002  0.8588299999999998  0.69434  1.0000
  C   C269      1.0  0.85344  0.8135399999999998  0.69639  1.0000
  C   C270      1.0  0.8824000000000002  0.7840399999999997  0.68138  1.0000
  C   C271      1.0  0.8338000000000001  0.8908699999999998  0.71235  1.0000
  C   C272      1.0  0.85636  0.9240699999999997  0.72921  1.0000
  C   C273      1.0  0.83318  0.9557699999999998  0.74707  1.0000
  C   C274      1.0  0.78542  0.9546299999999998  0.7466  1.0000
  C   C275      1.0  0.7614800000000002  0.9224399999999998  0.72991  1.0000
  C   C276      1.0  0.78575  0.88985  0.71323  1.0000
  C   C277      1.0  0.09859  0.14815  0.7719299999999999  1.0000
  C   C278      1.0  0.09379  0.10895999999999997  0.75495  1.0000
  C   C279      1.0  0.11508  0.1034  0.72544  1.0000
  C   C280      1.0  0.14256000000000005  0.13656999999999994  0.71245  1.0000
  C   C281      1.0  0.14781  0.17556  0.72986  1.0000
  C   C282      1.0  0.12568  0.18148  0.7591  1.0000
  C   C283      1.0  0.16459  0.13086999999999993  0.68087  1.0000
  C   C284      1.0  0.14074  0.11212999999999997  0.65514  1.0000
  C   C285      1.0  0.1598  0.10814  0.62456  1.0000
  C   C286      1.0  0.20458  0.12293999999999997  0.61936  1.0000
  C   C287      1.0  0.22972  0.14126999999999995  0.64486  1.0000
  C   C288      1.0  0.20928  0.14481999999999995  0.67517  1.0000
  C   C289      1.0  0.11766  0.04556  0.59975  1.0000
  C   C290      1.0  0.08978  0.02719  0.57586  1.0000
  C   C291      1.0  0.07773  0.05354  0.54976  1.0000
  C   C292      1.0  0.09185  0.09703  0.54719  1.0000
  C   C293      1.0  0.11932  0.11473999999999997  0.57172  1.0000
  C   C294      1.0  0.13249  0.08887999999999997  0.59818  1.0000
  C   C295      1.0  0.67689  0.30201  0.03536  1.0000
  C   C296      1.0  0.66579  0.3160199999999999  0.06657  1.0000
  C   C297      1.0  0.63258  0.29469  0.08442  1.0000
  C   C298      1.0  0.60863  0.25954  0.07112  1.0000
  C   C299      1.0  0.6194800000000003  0.24524999999999994  0.0401  1.0000
  C   C300      1.0  0.6537000000000002  0.26574  0.02264  1.0000
  C   C301      1.0  0.67897  0.53969  0.97361  1.0000
  C   C302      1.0  0.6492500000000002  0.5672399999999997  0.99057  1.0000
  C   C303      1.0  0.61598  0.5912099999999998  0.97445  1.0000
  C   C304      1.0  0.6118900000000002  0.5883399999999999  0.94105  1.0000
  C   C305      1.0  0.64131  0.5607899999999998  0.92402  1.0000
  C   C306      1.0  0.67429  0.5364999999999998  0.9401  1.0000
  C   C307      1.0  0.5683000000000002  0.7853  0.7955799999999998  1.0000
  C   C308      1.0  0.54946  0.8271899999999998  0.79337  1.0000
  C   C309      1.0  0.5721  0.85997  0.77658  1.0000
  C   C310      1.0  0.6139300000000001  0.8515399999999997  0.7613  1.0000
  C   C311      1.0  0.6322900000000002  0.8091999999999998  0.76334  1.0000
  C   C312      1.0  0.6098800000000002  0.7765999999999997  0.78037  1.0000
  C   C313      1.0  0.71084  0.9222299999999998  0.72972  1.0000
  C   C314      1.0  0.6864  0.9566099999999997  0.71517  1.0000
  C   C315      1.0  0.6382800000000002  0.9557499999999998  0.71453  1.0000
  C   C316      1.0  0.61541  0.92044  0.72876  1.0000
  C   C317      1.0  0.6385800000000003  0.8866299999999998  0.74436  1.0000
  C   C318      1.0  0.6865  0.8881999999999999  0.74417  1.0000
  C   C319      1.0  0.8582  0.9885399999999998  0.76611  1.0000
  C   C320      1.0  0.8412500000000003  0.031169999999999993  0.76999  1.0000
  C   C321      1.0  0.86493  0.06177999999999999  0.78814  1.0000
  C   C322      1.0  0.90633  0.05064  0.80271  1.0000
  C   C323      1.0  0.92339  0.00822  0.7991  1.0000
  C   C324      1.0  0.89954  0.97756  0.78114  1.0000
  C   C325      1.0  0.27735  0.15551999999999994  0.64003  1.0000
  C   C326      1.0  0.3123000000000001  0.14051  0.66039  1.0000
  C   C327      1.0  0.35726  0.15334  0.65569  1.0000
  C   C328      1.0  0.3684800000000001  0.18209999999999996  0.63065  1.0000
  C   C329      1.0  0.33382  0.19783999999999993  0.61052  1.0000
  C   C330      1.0  0.28898  0.18448  0.61503  1.0000
  C   C331      1.0  0.04443  0.1664  0.46405  1.0000
  C   C332      1.0  0.04066  0.18567999999999996  0.49444999999999995  1.0000
  C   C333      1.0  0.05678  0.16395  0.52153  1.0000
  C   C334      1.0  0.07738  0.12252  0.51886  1.0000
  C   C335      1.0  0.08218  0.10414999999999998  0.48808  1.0000
  C   C336      1.0  0.06571  0.12551  0.46111  1.0000
  C   C337      1.0  0.6115900000000001  0.99019  0.69843  1.0000
  C   C338      1.0  0.61917  0.03505  0.70429  1.0000
  C   C339      1.0  0.5931900000000002  0.06682  0.68906  1.0000
  C   C340      1.0  0.55899  0.054659999999999986  0.66711  1.0000
  C   C341      1.0  0.55095  0.00997  0.66122  1.0000
  C   C342      1.0  0.57671  0.9784999999999998  0.67678  1.0000
  C   C343      1.0  0.57145  0.23748  0.08948  1.0000
  C   C344      1.0  0.9036100000000001  0.22485  0.90386  1.0000
  C   C345      1.0  0.54516  0.7497599999999998  0.8144899999999999  1.0000
  C   C346      1.0  0.95038  0.76815  0.64706  1.0000
  C   C347      1.0  0.57726  0.61492  0.92303  1.0000
  C   C348      1.0  0.41612  0.19642  0.62563  1.0000
  C   C349      1.0  0.02569  0.18842999999999993  0.4352599999999999  1.0000
  C   C350      1.0  0.07397  0.15387999999999993  0.8033399999999999  1.0000
  C   C351      1.0  0.9335500000000001  0.59372  0.08959  1.0000
  C   C352      1.0  0.93218  0.08389999999999997  0.8218399999999999  1.0000
  C   C353      1.0  0.53294  0.08845  0.65086  1.0000
  C   C354      1.0  0.03829  0.89569  0.57728  1.0000
  C   C355      1.0  0.07238000000000003  0.9821299999999998  0.57747  1.0000
  C   C356      1.0  0.09928  0.94701  0.58851  1.0000
  C   C357      1.0  0.08289  0.9044599999999998  0.58812  1.0000
  C   C358      1.0  0.01062  0.9307899999999998  0.56718  1.0000
  C   C359      1.0  0.02759  0.9729599999999998  0.56713  1.0000
  C   C360      1.0  0.02083  0.8512699999999997  0.57702  1.0000
  C   C361      1.0  0.12916  0.7515399999999998  0.07696  1.0000
  C   C362      1.0  0.17625  0.74495  0.0796  1.0000
  C   C363      1.0  0.20624000000000006  0.76926  0.06091  1.0000
  C   C364      1.0  0.18999  0.8014199999999998  0.03968  1.0000
  C   C365      1.0  0.1427  0.8082799999999998  0.03755  1.0000
  C   C366      1.0  0.11270000000000002  0.78321  0.05562999999999999  1.0000
  C   C367      1.0  0.22261  0.82611  0.0197  1.0000
  C   C368      1.0  0.22027  0.8720799999999997  0.01649  1.0000
  C   C369      1.0  0.25304  0.8948699999999998  0.9982199999999999  1.0000
  C   C370      1.0  0.28677  0.87157  0.98224  1.0000
  C   C371      1.0  0.28935  0.82588  0.98416  1.0000
  C   C372      1.0  0.25755  0.8040699999999997  0.00351  1.0000
  C   C373      1.0  0.25198  0.9432  0.99676  1.0000
  C   C374      1.0  0.28705  0.9681099999999998  0.01079  1.0000
  C   C375      1.0  0.28536  0.014119999999999997  0.01  1.0000
  C   C376      1.0  0.24940000000000007  0.03458  0.99396  1.0000
  C   C377      1.0  0.21443  0.01063  0.97927  1.0000
  C   C378      1.0  0.21619  0.9649399999999998  0.98141  1.0000
  C   C379      1.0  0.17692  0.0321  0.9618399999999999  1.0000
  C   C380      1.0  0.15761  0.07132  0.9729100000000002  1.0000
  C   C381      1.0  0.1217  0.09079  0.9565199999999999  1.0000
  C   C382      1.0  0.10458000000000003  0.07184  0.92842  1.0000
  C   C383      1.0  0.12391000000000003  0.03302  0.91703  1.0000
  C   C384      1.0  0.15945  0.013309999999999997  0.9336299999999998  1.0000
  C   C385      1.0  0.08324  0.2987  0.33804  1.0000
  C   C386      1.0  0.07605  0.3438999999999999  0.34126  1.0000
  C   C387      1.0  0.10430000000000003  0.37318  0.32552  1.0000
  C   C388      1.0  0.14112  0.3585799999999999  0.30666  1.0000
  C   C389      1.0  0.14911  0.3132899999999999  0.30456  1.0000
  C   C390      1.0  0.12009  0.28372  0.31947  1.0000
  C   C391      1.0  0.16802  0.39082  0.28838  1.0000
  C   C392      1.0  0.14479  0.4235699999999999  0.27144  1.0000
  C   C393      1.0  0.16737  0.4553699999999999  0.25331  1.0000
  C   C394      1.0  0.21513000000000004  0.45438  0.25318  1.0000
  C   C395      1.0  0.23967  0.4227  0.26996  1.0000
  C   C396      1.0  0.21604  0.3904699999999999  0.28743  1.0000
  C   C397      1.0  0.90011  0.6474499999999997  0.22859  1.0000
  C   C398      1.0  0.90459  0.60793  0.24522000000000002  1.0000
  C   C399      1.0  0.88339  0.6021799999999999  0.27474  1.0000
  C   C400      1.0  0.8563  0.63547  0.28794  1.0000
  C   C401      1.0  0.8511600000000001  0.6746999999999997  0.27081  1.0000
  C   C402      1.0  0.87328  0.68082  0.2416  1.0000
  C   C403      1.0  0.8345000000000002  0.62971  0.31953  1.0000
  C   C404      1.0  0.8585500000000003  0.6110599999999998  0.34521  1.0000
  C   C405      1.0  0.8396800000000002  0.6073  0.37585  1.0000
  C   C406      1.0  0.79497  0.62227  0.38107  1.0000
  C   C407      1.0  0.7696400000000002  0.64039  0.35557999999999995  1.0000
  C   C408      1.0  0.78986  0.6437099999999998  0.32522  1.0000
  C   C409      1.0  0.88202  0.54493  0.40090000000000003  1.0000
  C   C410      1.0  0.91005  0.52678  0.4248  1.0000
  C   C411      1.0  0.9222700000000003  0.55339  0.45070999999999994  1.0000
  C   C412      1.0  0.9081600000000001  0.5969099999999998  0.45307  1.0000
  C   C413      1.0  0.8805600000000002  0.6143699999999997  0.4285  1.0000
  C   C414      1.0  0.86713  0.5882399999999998  0.40227  1.0000
  C   C415      1.0  0.32443  0.8025299999999997  0.96573  1.0000
  C   C416      1.0  0.33584  0.81673  0.93461  1.0000
  C   C417      1.0  0.36944  0.79569  0.9169599999999999  1.0000
  C   C418      1.0  0.39346  0.76064  0.9304  1.0000
  C   C419      1.0  0.38232  0.74617  0.96131  1.0000
  C   C420      1.0  0.34776  0.76642  0.97858  1.0000
  C   C421      1.0  0.32142  0.03977999999999999  0.02631  1.0000
  C   C422      1.0  0.35082  0.06738999999999998  0.00912  1.0000
  C   C423      1.0  0.3842500000000001  0.09137999999999998  0.025009999999999998  1.0000
  C   C424      1.0  0.38884  0.08846  0.05837  1.0000
  C   C425      1.0  0.35972  0.0609  0.07564  1.0000
  C   C426      1.0  0.32656  0.03659999999999999  0.05979  1.0000
  C   C427      1.0  0.43231  0.28532  0.20402  1.0000
  C   C428      1.0  0.4515200000000001  0.327  0.20658  1.0000
  C   C429      1.0  0.42905  0.35977  0.22347  1.0000
  C   C430      1.0  0.38699  0.35159  0.23849999999999996  1.0000
  C   C431      1.0  0.36832  0.3094  0.23619999999999997  1.0000
  C   C432      1.0  0.39055  0.2768  0.21904999999999997  1.0000
  C   C433      1.0  0.29026  0.4228099999999999  0.2697  1.0000
  C   C434      1.0  0.31463  0.45748999999999995  0.28386  1.0000
  C   C435      1.0  0.36277  0.45628999999999986  0.28483  1.0000
  C   C436      1.0  0.38557000000000013  0.4206399999999999  0.27096  1.0000
  C   C437      1.0  0.36243  0.38684  0.25536  1.0000
  C   C438      1.0  0.31452  0.38858  0.25546  1.0000
  C   C439      1.0  0.14204  0.48833  0.2346  1.0000
  C   C440      1.0  0.15934  0.53082  0.23069  1.0000
  C   C441      1.0  0.13587000000000005  0.5616699999999998  0.21261  1.0000
  C   C442      1.0  0.0942  0.5510299999999998  0.19822  1.0000
  C   C443      1.0  0.07667000000000003  0.5088099999999999  0.20202999999999996  1.0000
  C   C444      1.0  0.10036  0.47784  0.21988999999999997  1.0000
  C   C445      1.0  0.72208  0.6547399999999998  0.36041  1.0000
  C   C446      1.0  0.6872200000000002  0.6397899999999997  0.33998  1.0000
  C   C447      1.0  0.6423  0.6528  0.34452  1.0000
  C   C448      1.0  0.6311200000000002  0.68166  0.36948  1.0000
  C   C449      1.0  0.66566  0.69726  0.38972999999999997  1.0000
  C   C450      1.0  0.71046  0.68375  0.38535  1.0000
  C   C451      1.0  0.9544200000000002  0.66763  0.53586  1.0000
  C   C452      1.0  0.95814  0.6866299999999997  0.50537  1.0000
  C   C453      1.0  0.9426400000000003  0.6642899999999998  0.47838  1.0000
  C   C454      1.0  0.9225100000000002  0.62269  0.48127  1.0000
  C   C455      1.0  0.9177600000000001  0.6046  0.51216  1.0000
  C   C456      1.0  0.9338  0.62646  0.539  1.0000
  C   C457      1.0  0.38937000000000005  0.49050999999999995  0.30118  1.0000
  C   C458      1.0  0.3816  0.5354499999999998  0.29571  1.0000
  C   C459      1.0  0.40692  0.5670699999999997  0.31158  1.0000
  C   C460      1.0  0.44099  0.55473  0.33361  1.0000
  C   C461      1.0  0.44929  0.50998  0.33908  1.0000
  C   C462      1.0  0.4239400000000001  0.4786699999999999  0.32305  1.0000
  C   C463      1.0  0.4307  0.73855  0.91217  1.0000
  C   C464      1.0  0.09629  0.7248799999999999  0.09616  1.0000
  C   C465      1.0  0.45539  0.24997  0.18493999999999997  1.0000
  C   C466      1.0  0.052  0.2679899999999999  0.35386  1.0000
  C   C467      1.0  0.42387000000000014  0.11496999999999997  0.07599  1.0000
  C   C468      1.0  0.58361  0.6962599999999998  0.37439  1.0000
  C   C469      1.0  0.9730800000000002  0.6897099999999998  0.56462  1.0000
  C   C470      1.0  0.92494  0.65362  0.19737  1.0000
  C   C471      1.0  0.06649  0.09354999999999997  0.9107599999999999  1.0000
  C   C472      1.0  0.06881  0.5846599999999997  0.17902  1.0000
  C   C473      1.0  0.46689000000000014  0.5885099999999998  0.34994  1.0000
  C   C474      1.0  0.96229  0.39551  0.4234899999999999  1.0000
  C   C475      1.0  0.9274600000000002  0.4816999999999999  0.42342  1.0000
  C   C476      1.0  0.9006000000000002  0.44636  0.41275999999999996  1.0000
  C   C477      1.0  0.9173600000000001  0.4039099999999999  0.41309999999999997  1.0000
  C   C478      1.0  0.98976  0.43081  0.43334  1.0000
  C   C479      1.0  0.9724100000000002  0.4728499999999999  0.43351999999999996  1.0000
  C   C480      1.0  0.9805400000000002  0.35137  0.42315  1.0000
  O   O1        1.0  0.4963900000000001  0.16660999999999998  0.1333  1.0000
  O   O2        1.0  0.17753  0.44617  0.024559999999999995  1.0000
  O   O3        1.0  0.06586  0.71344  0.18316999999999997  1.0000
  O   O4        1.0  0.31331  0.3938699999999999  0.03244  1.0000
  O   O5        1.0  0.00637  0.7595999999999998  0.17371  1.0000
  O   O6        1.0  0.26353  0.85737  0.30354  1.0000
  O   O7        1.0  0.41343  0.12129  0.17532  1.0000
  O   O8        1.0  0.21127  0.9890099999999997  0.29886  1.0000
  O   O9        1.0  0.4710700000000001  0.07193  0.16856  1.0000
  O   O10       1.0  0.72302  0.11667  0.41102  1.0000
  O   O11       1.0  0.47901  0.7837899999999998  0.37322999999999995  1.0000
  O   O12       1.0  0.6342000000000002  0.15621999999999994  0.42881  1.0000
  O   O13       1.0  0.4475400000000001  0.7273499999999999  0.34581  1.0000
  O   O14       1.0  0.525  0.16689999999999994  0.59051  1.0000
  O   O15       1.0  0.51356  0.22935999999999995  0.5619  1.0000
  O   O16       1.0  0.55871  0.11907  0.18500999999999998  1.0000
  O   O17       1.0  0.57266  0.19252  0.18665  1.0000
  O   O18       1.0  0.94805  0.17751999999999996  0.35733  1.0000
  O   O19       1.0  0.92275  0.22899  0.39255999999999996  1.0000
  O   O20       1.0  0.04996  0.6393899999999998  0.05856999999999999  1.0000
  O   O21       1.0  0.07513  0.6122599999999998  0.10595  1.0000
  O   O22       1.0  0.45243  0.62583  0.92384  1.0000
  O   O23       1.0  0.44342  0.5775799999999998  0.88281  1.0000
  O   O24       1.0  0.44539  0.22527999999999995  0.08783  1.0000
  O   O25       1.0  0.3864100000000001  0.20128999999999994  0.11851  1.0000
  O   O26       1.0  0.0411  0.21661  0.92838  1.0000
  O   O27       1.0  0.06995  0.24426  0.88147  1.0000
  O   O28       1.0  0.03897  0.12919  0.3426  1.0000
  O   O29       1.0  0.00463  0.07556  0.37176  1.0000
  O   O30       1.0  0.54335  0.81797  0.41723999999999994  1.0000
  O   O31       1.0  0.4748500000000001  0.84833  0.43017  1.0000
  O   O32       1.0  0.50394  0.66668  0.86677  1.0000
  O   O33       1.0  0.8225600000000002  0.9458899999999998  0.97544  1.0000
  O   O34       1.0  0.93406  0.21423999999999996  0.8171499999999999  1.0000
  O   O35       1.0  0.6867800000000002  0.8921399999999998  0.9675199999999999  1.0000
  O   O36       1.0  0.99401  0.25982  0.82638  1.0000
  O   O37       1.0  0.73638  0.3572999999999999  0.69641  1.0000
  O   O38       1.0  0.58649  0.6210499999999998  0.82456  1.0000
  O   O39       1.0  0.78851  0.4888399999999999  0.69967  1.0000
  O   O40       1.0  0.52947  0.5714899999999998  0.83279  1.0000
  O   O41       1.0  0.27725  0.61673  0.58931  1.0000
  O   O42       1.0  0.52078  0.28375  0.62678  1.0000
  O   O43       1.0  0.36593  0.6571499999999998  0.57136  1.0000
  O   O44       1.0  0.55239  0.22726999999999994  0.65419  1.0000
  O   O45       1.0  0.47504  0.66692  0.40975999999999996  1.0000
  O   O46       1.0  0.48641000000000006  0.7294499999999998  0.43818  1.0000
  O   O47       1.0  0.4431200000000001  0.61937  0.81477  1.0000
  O   O48       1.0  0.42723  0.6925  0.8148199999999999  1.0000
  O   O49       1.0  0.05199  0.67716  0.64144  1.0000
  O   O50       1.0  0.07739  0.72743  0.60552  1.0000
  O   O51       1.0  0.94996  0.13912  0.94153  1.0000
  O   O52       1.0  0.9247500000000002  0.11223999999999998  0.89413  1.0000
  O   O53       1.0  0.54758  0.12568  0.07614  1.0000
  O   O54       1.0  0.55654  0.07743999999999997  0.11723000000000001  1.0000
  O   O55       1.0  0.5549500000000003  0.7256599999999997  0.91071  1.0000
  O   O56       1.0  0.614  0.7016599999999997  0.8802599999999999  1.0000
  O   O57       1.0  0.9590000000000002  0.7165299999999998  0.0729  1.0000
  O   O58       1.0  0.92944  0.74259  0.11992000000000001  1.0000
  O   O59       1.0  0.9611400000000002  0.6283599999999998  0.65607  1.0000
  O   O60       1.0  0.9958300000000002  0.5739399999999998  0.62791  1.0000
  O   O61       1.0  0.45554  0.31816  0.58271  1.0000
  O   O62       1.0  0.52434  0.3483199999999999  0.56984  1.0000
  O   O63       1.0  0.99591  0.16680999999999996  0.86687  1.0000
  O   O64       1.0  0.67771  0.44613  0.97548  1.0000
  O   O65       1.0  0.56578  0.7137899999999998  0.8168199999999999  1.0000
  O   O66       1.0  0.81323  0.39399  0.9675299999999999  1.0000
  O   O67       1.0  0.50611  0.7596999999999999  0.82638  1.0000
  O   O68       1.0  0.7636  0.8575499999999998  0.69649  1.0000
  O   O69       1.0  0.91352  0.12116999999999997  0.82474  1.0000
  O   O70       1.0  0.71136  0.9892399999999998  0.70109  1.0000
  O   O71       1.0  0.9706100000000002  0.0716  0.8328599999999999  1.0000
  O   O72       1.0  0.22276  0.11674999999999998  0.58934  1.0000
  O   O73       1.0  0.97921  0.7838099999999998  0.62679  1.0000
  O   O74       1.0  0.1341  0.15699999999999995  0.57115  1.0000
  O   O75       1.0  0.94755  0.7273799999999998  0.65419  1.0000
  O   O76       1.0  0.02495  0.16636999999999993  0.4091000000000001  1.0000
  O   O77       1.0  0.01127  0.22769999999999996  0.43826999999999994  1.0000
  O   O78       1.0  0.056680000000000015  0.11930999999999997  0.8149799999999999  1.0000
  O   O79       1.0  0.07274000000000001  0.19242999999999993  0.81487  1.0000
  O   O80       1.0  0.44781  0.17721  0.64142  1.0000
  O   O81       1.0  0.42256  0.22748999999999994  0.60547  1.0000
  O   O82       1.0  0.55021  0.63848  0.94008  1.0000
  O   O83       1.0  0.57731  0.6124399999999999  0.89282  1.0000
  O   O84       1.0  0.95249  0.6257799999999998  0.07622  1.0000
  O   O85       1.0  0.94347  0.57759  0.11734999999999998  1.0000
  O   O86       1.0  0.94544  0.22705999999999996  0.91074  1.0000
  O   O87       1.0  0.8862  0.20127999999999993  0.8813  1.0000
  O   O88       1.0  0.54268  0.21635999999999994  0.07303  1.0000
  O   O89       1.0  0.5723500000000001  0.24232999999999993  0.12008  1.0000
  O   O90       1.0  0.53683  0.12832  0.6574  1.0000
  O   O91       1.0  0.50431  0.07391  0.62798  1.0000
  O   O92       1.0  0.04497  0.8180999999999998  0.58275  1.0000
  O   O93       1.0  0.97614  0.84822  0.56986  1.0000
  O   O94       1.0  0.00412  0.6666499999999999  0.13344  1.0000
  O   O95       1.0  0.32256  0.94615  0.02461  1.0000
  O   O96       1.0  0.4342400000000001  0.21437  0.18181999999999998  1.0000
  O   O97       1.0  0.18664000000000006  0.8939799999999998  0.03248  1.0000
  O   O98       1.0  0.49495  0.25961  0.17376  1.0000
  O   O99       1.0  0.23863000000000006  0.35933  0.30507  1.0000
  O   O100      1.0  0.08862000000000003  0.62119  0.17518  1.0000
  O   O101      1.0  0.28947000000000006  0.49055  0.29727  1.0000
  O   O102      1.0  0.029560000000000006  0.5733699999999998  0.16884  1.0000
  O   O103      1.0  0.7770300000000002  0.6166  0.41115  1.0000
  O   O104      1.0  0.02485  0.28366999999999987  0.3752599999999999  1.0000
  O   O105      1.0  0.8658800000000001  0.65664  0.42873  1.0000
  O   O106      1.0  0.05282  0.22756  0.3457  1.0000
  O   O107      1.0  0.97501  0.66694  0.59043  1.0000
  O   O108      1.0  0.9864600000000002  0.72944  0.56189  1.0000
  O   O109      1.0  0.94126  0.6190999999999998  0.18502  1.0000
  O   O110      1.0  0.9273900000000003  0.6925599999999997  0.18667  1.0000
  O   O111      1.0  0.5519  0.67715  0.35857  1.0000
  O   O112      1.0  0.57731  0.7274199999999997  0.39446999999999993  1.0000
  O   O113      1.0  0.4502800000000001  0.13875  0.05863  1.0000
  O   O114      1.0  0.4248600000000001  0.11227999999999998  0.10620999999999998  1.0000
  O   O115      1.0  0.04754000000000001  0.12579999999999994  0.92386  1.0000
  O   O116      1.0  0.05665  0.07721999999999997  0.8830499999999999  1.0000
  O   O117      1.0  0.05447  0.72714  0.08931999999999998  1.0000
  O   O118      1.0  0.11376  0.70126  0.11868999999999999  1.0000
  O   O119      1.0  0.4590100000000001  0.71658  0.9285  1.0000
  O   O120      1.0  0.4302100000000001  0.7441499999999998  0.88163  1.0000
  O   O121      1.0  0.46123  0.6284199999999998  0.34416  1.0000
  O   O122      1.0  0.49741000000000013  0.5741499999999998  0.37171  1.0000
  O   O123      1.0  0.9567600000000003  0.31812  0.41713  1.0000
  O   O124      1.0  0.02535  0.3485199999999999  0.42993999999999993  1.0000
