data_image0
_chemical_formula_structural       Zn16H240C384N24O100
_chemical_formula_sum              "Zn16 H240 C384 N24 O100"
_cell_length_a       23.84578
_cell_length_b       25.7108
_cell_length_c       43.92143
_cell_angle_alpha    90.0
_cell_angle_beta     90.44331
_cell_angle_gamma    90.0

_symmetry_space_group_name_H-M    'P 1'
_symmetry_Int_Tables_number       1

loop_
  _symmetry_equiv_pos_as_xyz
  'x,y,z'

loop_
  _atom_site_type_symbol
  _atom_site_label
  _atom_site_symmetry_multiplicity
  _atom_site_fract_x
  _atom_site_fract_y
  _atom_site_fract_z
  _atom_site_occupancy
  Zn  Zn1       1.0  0.69191  0.21961  0.83571  1.0000
  Zn  Zn2       1.0  0.75951  0.12829  0.80234  1.0000
  Zn  Zn3       1.0  0.8252600000000001  0.22563000000000002  0.83438  1.0000
  Zn  Zn4       1.0  0.7684200000000002  0.13517  0.87357  1.0000
  Zn  Zn5       1.0  0.19191000000000005  0.28039  0.33571  1.0000
  Zn  Zn6       1.0  0.2595100000000001  0.37171  0.30234  1.0000
  Zn  Zn7       1.0  0.32526  0.27437  0.33437999999999996  1.0000
  Zn  Zn8       1.0  0.26843  0.36482999999999993  0.37357  1.0000
  Zn  Zn9       1.0  0.8080800000000002  0.7196099999999999  0.66429  1.0000
  Zn  Zn10      1.0  0.7404800000000002  0.6282899999999999  0.6976599999999998  1.0000
  Zn  Zn11      1.0  0.6747300000000003  0.72563  0.66562  1.0000
  Zn  Zn12      1.0  0.7315600000000001  0.63517  0.62643  1.0000
  Zn  Zn13      1.0  0.3080800000000001  0.7803900000000001  0.16428999999999996  1.0000
  Zn  Zn14      1.0  0.24048000000000005  0.8717100000000001  0.19765999999999997  1.0000
  Zn  Zn15      1.0  0.17473000000000002  0.77437  0.16562  1.0000
  Zn  Zn16      1.0  0.23157000000000003  0.86483  0.12642999999999996  1.0000
  H   H1        1.0  0.66374  0.13211  0.9504499999999999  1.0000
  H   H2        1.0  0.6186200000000001  0.28083  0.9133199999999999  1.0000
  H   H3        1.0  0.6435500000000001  0.1099  0.0016199999999999997  1.0000
  H   H4        1.0  0.57694  0.13353  0.012949999999999996  1.0000
  H   H5        1.0  0.63893  0.16176  0.028199999999999992  1.0000
  H   H6        1.0  0.5287000000000001  0.32123  0.9722199999999999  1.0000
  H   H7        1.0  0.5744100000000001  0.34553000000000006  0.94374  1.0000
  H   H8        1.0  0.5964  0.34437999999999996  0.9824799999999999  1.0000
  H   H9        1.0  0.41769000000000006  0.20497  0.03946  1.0000
  H   H10       1.0  0.38093000000000005  0.21337  0.09282  1.0000
  H   H11       1.0  0.62447  0.32581  0.13618  1.0000
  H   H12       1.0  0.66217  0.31339  0.08303999999999999  1.0000
  H   H13       1.0  0.4201200000000001  0.23659  0.26004  1.0000
  H   H14       1.0  0.36459  0.38477000000000006  0.22639999999999996  1.0000
  H   H15       1.0  0.4640200000000001  0.18503  0.18889  1.0000
  H   H16       1.0  0.47221  0.17847999999999997  0.22895  1.0000
  H   H17       1.0  0.52351  0.21221  0.20743  1.0000
  H   H18       1.0  0.45521000000000006  0.39273  0.16383  1.0000
  H   H19       1.0  0.38804  0.41313  0.17619  1.0000
  H   H20       1.0  0.39413000000000004  0.36243  0.14902  1.0000
  H   H21       1.0  0.61636  0.26884  0.75309  1.0000
  H   H22       1.0  0.63372  0.10586  0.73379  1.0000
  H   H23       1.0  0.6115400000000001  0.31538  0.68418  1.0000
  H   H24       1.0  0.5704400000000001  0.32575  0.71708  1.0000
  H   H25       1.0  0.53866  0.30123  0.68323  1.0000
  H   H26       1.0  0.54546  0.09947  0.6708499999999998  1.0000
  H   H27       1.0  0.6068100000000001  0.0706  0.68671  1.0000
  H   H28       1.0  0.61184  0.11254000000000002  0.65465  1.0000
  H   H29       1.0  0.6654000000000001  0.25501  0.58899  1.0000
  H   H30       1.0  0.6333100000000002  0.26709  0.53437  1.0000
  H   H31       1.0  0.37351  0.19016000000000002  0.57265  1.0000
  H   H32       1.0  0.40491  0.18055  0.6275099999999999  1.0000
  H   H33       1.0  0.42157000000000006  0.21533  0.40526999999999996  1.0000
  H   H34       1.0  0.38622000000000006  0.3649  0.44379  1.0000
  H   H35       1.0  0.51582  0.17155  0.4634699999999999  1.0000
  H   H36       1.0  0.4700800000000001  0.15001  0.43386  1.0000
  H   H37       1.0  0.4473200000000001  0.14937  0.47231999999999996  1.0000
  H   H38       1.0  0.41985  0.38794  0.49337  1.0000
  H   H39       1.0  0.4770900000000001  0.35231  0.50894  1.0000
  H   H40       1.0  0.4074400000000001  0.3359500000000001  0.51908  1.0000
  H   H41       1.0  0.66075  0.37789  0.8295499999999999  1.0000
  H   H42       1.0  0.8346200000000001  0.38601  0.8544899999999997  1.0000
  H   H43       1.0  0.6027000000000001  0.4526  0.8301999999999999  1.0000
  H   H44       1.0  0.6384  0.50434  0.81196  1.0000
  H   H45       1.0  0.62443  0.50781  0.85162  1.0000
  H   H46       1.0  0.8525100000000002  0.51977  0.8471099999999999  1.0000
  H   H47       1.0  0.8771700000000001  0.46604  0.8687999999999999  1.0000
  H   H48       1.0  0.83191  0.51276  0.88557  1.0000
  H   H49       1.0  0.75697  0.6287700000000002  0.77316  1.0000
  H   H50       1.0  0.75603  0.72649  0.77336  1.0000
  H   H51       1.0  0.70635  0.72596  0.92396  1.0000
  H   H52       1.0  0.7068900000000002  0.62775  0.92388  1.0000
  H   H53       1.0  0.63334  0.89298  0.79796  1.0000
  H   H54       1.0  0.6085300000000001  0.88321  0.83551  1.0000
  H   H55       1.0  0.64677  0.83349  0.81736  1.0000
  H   H56       1.0  0.6741200000000003  0.97673  0.81727  1.0000
  H   H57       1.0  0.81142  0.8508100000000001  0.90182  1.0000
  H   H58       1.0  0.8653500000000001  0.8875199999999999  0.88417  1.0000
  H   H59       1.0  0.8397700000000002  0.82923  0.86697  1.0000
  H   H60       1.0  0.8229800000000003  0.96911  0.87273  1.0000
  H   H61       1.0  0.16374  0.36789  0.45045  1.0000
  H   H62       1.0  0.11862  0.21917  0.41332  1.0000
  H   H63       1.0  0.14356000000000002  0.3901  0.50162  1.0000
  H   H64       1.0  0.07694  0.36647  0.51295  1.0000
  H   H65       1.0  0.13893  0.33823999999999993  0.5282  1.0000
  H   H66       1.0  0.028699999999999996  0.17877  0.47222  1.0000
  H   H67       1.0  0.07442  0.15447  0.44374  1.0000
  H   H68       1.0  0.09641  0.15562  0.48248  1.0000
  H   H69       1.0  0.91768  0.29503  0.53946  1.0000
  H   H70       1.0  0.8809200000000001  0.28663  0.59282  1.0000
  H   H71       1.0  0.12446  0.17419  0.63618  1.0000
  H   H72       1.0  0.16216  0.18661000000000003  0.5830399999999999  1.0000
  H   H73       1.0  0.9201200000000003  0.26341  0.76004  1.0000
  H   H74       1.0  0.8645900000000001  0.11523  0.7263999999999999  1.0000
  H   H75       1.0  0.96401  0.31497  0.68889  1.0000
  H   H76       1.0  0.97221  0.32152  0.72894  1.0000
  H   H77       1.0  0.02351  0.28779  0.7074199999999999  1.0000
  H   H78       1.0  0.9552000000000002  0.10726  0.66383  1.0000
  H   H79       1.0  0.88804  0.08687  0.67619  1.0000
  H   H80       1.0  0.8941200000000001  0.13757  0.64902  1.0000
  H   H81       1.0  0.11636  0.23116000000000003  0.25309  1.0000
  H   H82       1.0  0.13373000000000002  0.39414000000000005  0.23379  1.0000
  H   H83       1.0  0.11155000000000001  0.18462000000000003  0.18417999999999998  1.0000
  H   H84       1.0  0.07044  0.17424999999999996  0.21708  1.0000
  H   H85       1.0  0.03866000000000001  0.19876  0.18322999999999998  1.0000
  H   H86       1.0  0.045470000000000003  0.40053  0.17084999999999997  1.0000
  H   H87       1.0  0.10681000000000002  0.42939999999999995  0.18670999999999996  1.0000
  H   H88       1.0  0.11184000000000001  0.38746  0.15465  1.0000
  H   H89       1.0  0.1654  0.24499  0.08899  1.0000
  H   H90       1.0  0.13332  0.2329  0.03437  1.0000
  H   H91       1.0  0.8735100000000002  0.30984  0.07265  1.0000
  H   H92       1.0  0.90491  0.31945  0.12751  1.0000
  H   H93       1.0  0.92157  0.28467  0.9052599999999998  1.0000
  H   H94       1.0  0.8862200000000002  0.1351  0.9437899999999999  1.0000
  H   H95       1.0  0.01581  0.32844999999999996  0.9634699999999999  1.0000
  H   H96       1.0  0.97008  0.34999  0.93386  1.0000
  H   H97       1.0  0.9473200000000003  0.35063  0.9723199999999999  1.0000
  H   H98       1.0  0.91985  0.11206000000000002  0.9933699999999999  1.0000
  H   H99       1.0  0.9770900000000001  0.14769  0.00894  1.0000
  H   H100      1.0  0.90744  0.16405000000000003  0.01908  1.0000
  H   H101      1.0  0.16076  0.12211000000000001  0.32955  1.0000
  H   H102      1.0  0.33463000000000004  0.11399  0.35449  1.0000
  H   H103      1.0  0.10271000000000001  0.0474  0.3302  1.0000
  H   H104      1.0  0.13841  0.9956500000000001  0.31195999999999996  1.0000
  H   H105      1.0  0.12443000000000001  0.99219  0.35162  1.0000
  H   H106      1.0  0.3525100000000001  0.98022  0.3471099999999999  1.0000
  H   H107      1.0  0.37718  0.03396  0.3688  1.0000
  H   H108      1.0  0.33191000000000004  0.98724  0.38557  1.0000
  H   H109      1.0  0.25697000000000003  0.87123  0.27316  1.0000
  H   H110      1.0  0.25603  0.7735  0.27336  1.0000
  H   H111      1.0  0.20635  0.77404  0.42396  1.0000
  H   H112      1.0  0.20690000000000003  0.87224  0.42388  1.0000
  H   H113      1.0  0.13334000000000001  0.60702  0.29796  1.0000
  H   H114      1.0  0.10853  0.61678  0.33551  1.0000
  H   H115      1.0  0.14678  0.66651  0.31736  1.0000
  H   H116      1.0  0.17413  0.52326  0.31726999999999994  1.0000
  H   H117      1.0  0.31142  0.6491899999999999  0.4018199999999999  1.0000
  H   H118      1.0  0.36536  0.61247  0.38416999999999996  1.0000
  H   H119      1.0  0.3397700000000001  0.67076  0.36697  1.0000
  H   H120      1.0  0.32298000000000004  0.53088  0.37273  1.0000
  H   H121      1.0  0.83625  0.63211  0.54955  1.0000
  H   H122      1.0  0.8813700000000001  0.78083  0.5866799999999999  1.0000
  H   H123      1.0  0.85643  0.6099  0.49837999999999993  1.0000
  H   H124      1.0  0.9230500000000001  0.63353  0.48704999999999987  1.0000
  H   H125      1.0  0.8610600000000003  0.66176  0.4718  1.0000
  H   H126      1.0  0.97129  0.82123  0.52778  1.0000
  H   H127      1.0  0.92558  0.84553  0.55626  1.0000
  H   H128      1.0  0.90358  0.84438  0.5175199999999999  1.0000
  H   H129      1.0  0.08231000000000001  0.70497  0.46054  1.0000
  H   H130      1.0  0.11907000000000002  0.71337  0.40718  1.0000
  H   H131      1.0  0.8755300000000003  0.82581  0.3638199999999999  1.0000
  H   H132      1.0  0.8378300000000001  0.81339  0.41696  1.0000
  H   H133      1.0  0.07987000000000001  0.73659  0.23995999999999995  1.0000
  H   H134      1.0  0.13540000000000002  0.8847600000000001  0.2736  1.0000
  H   H135      1.0  0.03598  0.68502  0.31110999999999994  1.0000
  H   H136      1.0  0.027780000000000003  0.67848  0.27105  1.0000
  H   H137      1.0  0.9764800000000001  0.7122099999999999  0.29257  1.0000
  H   H138      1.0  0.04479  0.89273  0.33617  1.0000
  H   H139      1.0  0.11195  0.9131300000000001  0.32381  1.0000
  H   H140      1.0  0.10587  0.86242  0.35098  1.0000
  H   H141      1.0  0.88363  0.76883  0.74691  1.0000
  H   H142      1.0  0.86627  0.60586  0.7662099999999998  1.0000
  H   H143      1.0  0.88844  0.81537  0.8158199999999999  1.0000
  H   H144      1.0  0.9295500000000001  0.82574  0.7829199999999998  1.0000
  H   H145      1.0  0.96133  0.80123  0.8167699999999999  1.0000
  H   H146      1.0  0.95452  0.59947  0.8291499999999999  1.0000
  H   H147      1.0  0.8931800000000001  0.5706  0.81329  1.0000
  H   H148      1.0  0.88815  0.61253  0.84535  1.0000
  H   H149      1.0  0.83459  0.75501  0.91101  1.0000
  H   H150      1.0  0.86668  0.76709  0.96563  1.0000
  H   H151      1.0  0.12648  0.69016  0.92735  1.0000
  H   H152      1.0  0.09508000000000003  0.68055  0.8724899999999999  1.0000
  H   H153      1.0  0.07842  0.7153199999999998  0.09474  1.0000
  H   H154      1.0  0.11378  0.8649  0.056209999999999996  1.0000
  H   H155      1.0  0.9841800000000003  0.67155  0.03653  1.0000
  H   H156      1.0  0.02991  0.65001  0.06614  1.0000
  H   H157      1.0  0.052670000000000015  0.64937  0.02768  1.0000
  H   H158      1.0  0.08014  0.8879400000000001  0.00663  1.0000
  H   H159      1.0  0.022900000000000004  0.8523099999999999  0.9910599999999999  1.0000
  H   H160      1.0  0.09255000000000001  0.83595  0.98092  1.0000
  H   H161      1.0  0.83923  0.8778900000000001  0.67045  1.0000
  H   H162      1.0  0.66536  0.88601  0.64551  1.0000
  H   H163      1.0  0.8972800000000002  0.9526  0.6698  1.0000
  H   H164      1.0  0.86158  0.00434  0.68804  1.0000
  H   H165      1.0  0.87556  0.00781  0.6483799999999998  1.0000
  H   H166      1.0  0.6474800000000002  0.01977  0.65289  1.0000
  H   H167      1.0  0.6228100000000001  0.96604  0.6312  1.0000
  H   H168      1.0  0.66808  0.01276  0.61443  1.0000
  H   H169      1.0  0.74302  0.12877  0.72684  1.0000
  H   H170      1.0  0.74396  0.2265  0.7266399999999998  1.0000
  H   H171      1.0  0.79364  0.22596  0.57604  1.0000
  H   H172      1.0  0.7931000000000001  0.12775  0.57612  1.0000
  H   H173      1.0  0.8666500000000003  0.39298  0.70204  1.0000
  H   H174      1.0  0.89146  0.38322  0.66449  1.0000
  H   H175      1.0  0.85321  0.33349  0.68263  1.0000
  H   H176      1.0  0.82587  0.47673  0.68273  1.0000
  H   H177      1.0  0.6885700000000002  0.35081  0.59818  1.0000
  H   H178      1.0  0.6346300000000001  0.38752  0.61583  1.0000
  H   H179      1.0  0.6602200000000001  0.32923  0.63303  1.0000
  H   H180      1.0  0.6770100000000001  0.46911  0.62727  1.0000
  H   H181      1.0  0.33625000000000005  0.86789  0.04955  1.0000
  H   H182      1.0  0.38137  0.71917  0.08668  1.0000
  H   H183      1.0  0.35644  0.8901000000000001  0.99838  1.0000
  H   H184      1.0  0.42305000000000004  0.86646  0.98705  1.0000
  H   H185      1.0  0.3610600000000001  0.83823  0.9717999999999999  1.0000
  H   H186      1.0  0.47129000000000004  0.67877  0.02778  1.0000
  H   H187      1.0  0.42558  0.65447  0.05626  1.0000
  H   H188      1.0  0.40359  0.65562  0.01752  1.0000
  H   H189      1.0  0.5823  0.79502  0.96054  1.0000
  H   H190      1.0  0.61907  0.78663  0.9071799999999999  1.0000
  H   H191      1.0  0.37553  0.67419  0.8638199999999999  1.0000
  H   H192      1.0  0.33782000000000006  0.68661  0.91696  1.0000
  H   H193      1.0  0.57987  0.76341  0.7399599999999998  1.0000
  H   H194      1.0  0.6354000000000001  0.61523  0.7735999999999998  1.0000
  H   H195      1.0  0.53597  0.81497  0.81111  1.0000
  H   H196      1.0  0.52778  0.82152  0.77105  1.0000
  H   H197      1.0  0.47648  0.7877900000000001  0.79257  1.0000
  H   H198      1.0  0.54479  0.60726  0.83617  1.0000
  H   H199      1.0  0.6119500000000001  0.58687  0.82381  1.0000
  H   H200      1.0  0.6058600000000001  0.6375700000000001  0.85098  1.0000
  H   H201      1.0  0.38363  0.73116  0.24690999999999996  1.0000
  H   H202      1.0  0.3662700000000001  0.89413  0.26621  1.0000
  H   H203      1.0  0.38845  0.68462  0.31582  1.0000
  H   H204      1.0  0.42955  0.67425  0.28292  1.0000
  H   H205      1.0  0.46134000000000003  0.69876  0.31677  1.0000
  H   H206      1.0  0.4545300000000001  0.9005300000000002  0.32915  1.0000
  H   H207      1.0  0.39318  0.9294  0.31329  1.0000
  H   H208      1.0  0.38815000000000005  0.88746  0.34535  1.0000
  H   H209      1.0  0.33459  0.74499  0.41101  1.0000
  H   H210      1.0  0.36668  0.7329000000000001  0.46563  1.0000
  H   H211      1.0  0.6264800000000001  0.8098400000000001  0.42735  1.0000
  H   H212      1.0  0.59508  0.8194400000000001  0.37249  1.0000
  H   H213      1.0  0.57842  0.78467  0.5947399999999999  1.0000
  H   H214      1.0  0.61377  0.6350900000000002  0.55621  1.0000
  H   H215      1.0  0.48418  0.82845  0.53653  1.0000
  H   H216      1.0  0.52991  0.84998  0.56614  1.0000
  H   H217      1.0  0.55267  0.85063  0.52768  1.0000
  H   H218      1.0  0.58014  0.61205  0.50663  1.0000
  H   H219      1.0  0.5229000000000001  0.6476900000000001  0.49106  1.0000
  H   H220      1.0  0.59255  0.6640500000000001  0.48092  1.0000
  H   H221      1.0  0.33924  0.62211  0.17044999999999996  1.0000
  H   H222      1.0  0.16537  0.61399  0.14551  1.0000
  H   H223      1.0  0.39729  0.5474  0.1698  1.0000
  H   H224      1.0  0.3615900000000001  0.49566  0.18803999999999998  1.0000
  H   H225      1.0  0.37556  0.49219000000000007  0.14838  1.0000
  H   H226      1.0  0.14749000000000004  0.48022  0.15289  1.0000
  H   H227      1.0  0.12282000000000003  0.53396  0.1312  1.0000
  H   H228      1.0  0.16808  0.48724  0.11442999999999999  1.0000
  H   H229      1.0  0.24302  0.37123000000000006  0.22684  1.0000
  H   H230      1.0  0.24397000000000005  0.2735  0.22663999999999998  1.0000
  H   H231      1.0  0.29364  0.27404  0.07604  1.0000
  H   H232      1.0  0.2931  0.37225  0.07612  1.0000
  H   H233      1.0  0.3666500000000001  0.10702  0.20204  1.0000
  H   H234      1.0  0.39147  0.11678000000000001  0.16448999999999997  1.0000
  H   H235      1.0  0.35322  0.16651  0.18263999999999997  1.0000
  H   H236      1.0  0.32587  0.02327  0.18273  1.0000
  H   H237      1.0  0.18858  0.14919  0.09818  1.0000
  H   H238      1.0  0.13464  0.11248  0.11582999999999999  1.0000
  H   H239      1.0  0.16022  0.17075999999999997  0.13303  1.0000
  H   H240      1.0  0.17701  0.03089  0.12727  1.0000
  C   C1        1.0  0.6709300000000001  0.19042  0.89984  1.0000
  C   C2        1.0  0.6435100000000001  0.20500000000000002  0.92909  1.0000
  C   C3        1.0  0.6444400000000001  0.17002  0.95353  1.0000
  C   C4        1.0  0.6208000000000001  0.18328  0.98147  1.0000
  C   C5        1.0  0.5978000000000001  0.23332  0.9843899999999999  1.0000
  C   C6        1.0  0.5966300000000001  0.26949  0.96049  1.0000
  C   C7        1.0  0.6190900000000001  0.25417  0.93254  1.0000
  C   C8        1.0  0.6201000000000001  0.14514  0.007469999999999999  1.0000
  C   C9        1.0  0.57263  0.32305999999999996  0.96493  1.0000
  C   C10       1.0  0.51783  0.23232  0.01878  1.0000
  C   C11       1.0  0.49682  0.23948  0.0502  1.0000
  C   C12       1.0  0.5315200000000001  0.26219  0.0729  1.0000
  C   C13       1.0  0.58671  0.27877  0.06619  1.0000
  C   C14       1.0  0.61021  0.27094  0.035309999999999994  1.0000
  C   C15       1.0  0.44317000000000006  0.22249000000000002  0.05739  1.0000
  C   C16       1.0  0.4226800000000001  0.22751  0.08718  1.0000
  C   C17       1.0  0.45573  0.25046  0.10974999999999999  1.0000
  C   C18       1.0  0.51049  0.26836  0.10301999999999999  1.0000
  C   C19       1.0  0.54492  0.29182  0.12561  1.0000
  C   C20       1.0  0.59892  0.30799  0.11839  1.0000
  C   C21       1.0  0.61983  0.30129  0.08882999999999999  1.0000
  C   C22       1.0  0.43339000000000005  0.25676  0.14082  1.0000
  C   C23       1.0  0.52357  0.29981  0.15688999999999997  1.0000
  C   C24       1.0  0.44344999999999996  0.29281  0.19157  1.0000
  C   C25       1.0  0.4467500000000001  0.25493  0.21447999999999998  1.0000
  C   C26       1.0  0.41921  0.26517  0.24180999999999997  1.0000
  C   C27       1.0  0.3892800000000001  0.31152  0.246  1.0000
  C   C28       1.0  0.38782  0.34894  0.22282  1.0000
  C   C29       1.0  0.41485999999999995  0.34007000000000004  0.19517  1.0000
  C   C30       1.0  0.47828000000000004  0.20494  0.20968  1.0000
  C   C31       1.0  0.41293  0.37918  0.16973  1.0000
  C   C32       1.0  0.65766  0.1779  0.7759299999999998  1.0000
  C   C33       1.0  0.62707  0.18640000000000004  0.7465199999999999  1.0000
  C   C34       1.0  0.61074  0.23636  0.73748  1.0000
  C   C35       1.0  0.58961  0.24538  0.70806  1.0000
  C   C36       1.0  0.58327  0.20234  0.68867  1.0000
  C   C37       1.0  0.59737  0.15146  0.69752  1.0000
  C   C38       1.0  0.62013  0.14433  0.72659  1.0000
  C   C39       1.0  0.5765  0.29978  0.69757  1.0000
  C   C40       1.0  0.58999  0.1061  0.67626  1.0000
  C   C41       1.0  0.6033100000000001  0.22697  0.63626  1.0000
  C   C42       1.0  0.5842700000000001  0.2319  0.60432  1.0000
  C   C43       1.0  0.5278800000000001  0.22099000000000002  0.5964  1.0000
  C   C44       1.0  0.4889700000000001  0.20438999999999996  0.6186  1.0000
  C   C45       1.0  0.50653  0.1987  0.65094  1.0000
  C   C46       1.0  0.62216  0.24758  0.5822  1.0000
  C   C47       1.0  0.60445  0.25408  0.55187  1.0000
  C   C48       1.0  0.54898  0.24452  0.5435799999999998  1.0000
  C   C49       1.0  0.51005  0.22708  0.56554  1.0000
  C   C50       1.0  0.45379  0.2156  0.55744  1.0000
  C   C51       1.0  0.41648000000000013  0.19867  0.57954  1.0000
  C   C52       1.0  0.4339400000000001  0.19331  0.61004  1.0000
  C   C53       1.0  0.53053  0.25439  0.51179  1.0000
  C   C54       1.0  0.4341800000000001  0.22255999999999998  0.52554  1.0000
  C   C55       1.0  0.45153  0.2611  0.47588999999999987  1.0000
  C   C56       1.0  0.4496  0.22544  0.45178  1.0000
  C   C57       1.0  0.42475  0.24181  0.42449  1.0000
  C   C58       1.0  0.40151000000000003  0.29165  0.4218599999999999  1.0000
  C   C59       1.0  0.40486000000000005  0.32654  0.44627  1.0000
  C   C60       1.0  0.43051000000000006  0.31201  0.47366999999999987  1.0000
  C   C61       1.0  0.4720200000000001  0.17112  0.45553  1.0000
  C   C62       1.0  0.4339500000000001  0.34903  0.50018  1.0000
  C   C63       1.0  0.75314  0.31925  0.8367  1.0000
  C   C64       1.0  0.74832  0.37658  0.8412699999999997  1.0000
  C   C65       1.0  0.6967  0.40121  0.83638  1.0000
  C   C66       1.0  0.6913200000000002  0.45502  0.83955  1.0000
  C   C67       1.0  0.73911  0.48339999999999994  0.84821  1.0000
  C   C68       1.0  0.7909500000000002  0.45962000000000003  0.85448  1.0000
  C   C69       1.0  0.79495  0.4058  0.85055  1.0000
  C   C70       1.0  0.63622  0.48143  0.8330799999999999  1.0000
  C   C71       1.0  0.8408500000000002  0.49121  0.8645399999999998  1.0000
  C   C72       1.0  0.74534  0.56512  0.82072  1.0000
  C   C73       1.0  0.7421600000000003  0.6225299999999999  0.82104  1.0000
  C   C74       1.0  0.73211  0.64943  0.84865  1.0000
  C   C75       1.0  0.72325  0.62223  0.87625  1.0000
  C   C76       1.0  0.7241400000000002  0.56457  0.87682  1.0000
  C   C77       1.0  0.7497400000000001  0.65009  0.79416  1.0000
  C   C78       1.0  0.74892  0.7047400000000001  0.79422  1.0000
  C   C79       1.0  0.7404500000000002  0.73198  0.8210899999999999  1.0000
  C   C80       1.0  0.73106  0.7048499999999999  0.8486199999999999  1.0000
  C   C81       1.0  0.7219300000000001  0.73193  0.8761899999999998  1.0000
  C   C82       1.0  0.71333  0.70435  0.90303  1.0000
  C   C83       1.0  0.71376  0.6497  0.9030499999999998  1.0000
  C   C84       1.0  0.74422  0.7894600000000002  0.82107  1.0000
  C   C85       1.0  0.72092  0.78968  0.8766299999999999  1.0000
  C   C86       1.0  0.73742  0.8712900000000001  0.84888  1.0000
  C   C87       1.0  0.6438000000000001  0.87566  0.82011  1.0000
  C   C88       1.0  0.704  0.95372  0.8303899999999999  1.0000
  C   C89       1.0  0.8277500000000001  0.8640699999999999  0.8797999999999999  1.0000
  C   C90       1.0  0.78812  0.9493899999999998  0.86155  1.0000
  C   C91       1.0  0.7839  0.89522  0.8630699999999998  1.0000
  C   C92       1.0  0.6962000000000003  0.8999400000000001  0.8331499999999998  1.0000
  C   C93       1.0  0.74911  0.9785  0.8447599999999997  1.0000
  C   C94       1.0  0.7553500000000002  0.03609  0.8424399999999999  1.0000
  C   C95       1.0  0.35697  0.31942  0.27466  1.0000
  C   C96       1.0  0.3693800000000001  0.30612  0.39383  1.0000
  C   C97       1.0  0.17094000000000006  0.30958  0.39984  1.0000
  C   C98       1.0  0.14351  0.29499  0.42909  1.0000
  C   C99       1.0  0.14444000000000004  0.32998  0.45352999999999993  1.0000
  C   C100      1.0  0.12080000000000002  0.31672  0.48147  1.0000
  C   C101      1.0  0.09780000000000003  0.26668  0.48439  1.0000
  C   C102      1.0  0.09663000000000001  0.23051  0.46049  1.0000
  C   C103      1.0  0.1191  0.24583  0.4325399999999999  1.0000
  C   C104      1.0  0.12010000000000003  0.35486  0.50747  1.0000
  C   C105      1.0  0.07264000000000002  0.17694  0.46493  1.0000
  C   C106      1.0  0.01783  0.26768  0.51878  1.0000
  C   C107      1.0  0.99682  0.26052  0.5502  1.0000
  C   C108      1.0  0.031520000000000006  0.2378  0.5729  1.0000
  C   C109      1.0  0.0867  0.22123  0.56619  1.0000
  C   C110      1.0  0.11020000000000003  0.22906  0.53531  1.0000
  C   C111      1.0  0.94316  0.27751  0.55739  1.0000
  C   C112      1.0  0.9226800000000001  0.27249  0.58718  1.0000
  C   C113      1.0  0.95573  0.24954  0.60975  1.0000
  C   C114      1.0  0.01049  0.23164000000000004  0.60302  1.0000
  C   C115      1.0  0.044920000000000015  0.20818  0.62561  1.0000
  C   C116      1.0  0.09891000000000003  0.19200000000000003  0.61839  1.0000
  C   C117      1.0  0.11983000000000002  0.19870999999999997  0.58883  1.0000
  C   C118      1.0  0.93339  0.24324  0.6408199999999998  1.0000
  C   C119      1.0  0.02356  0.20019  0.65689  1.0000
  C   C120      1.0  0.9434500000000002  0.20719  0.69157  1.0000
  C   C121      1.0  0.94674  0.24507  0.71448  1.0000
  C   C122      1.0  0.91921  0.23483  0.74181  1.0000
  C   C123      1.0  0.88927  0.18848  0.7459999999999998  1.0000
  C   C124      1.0  0.8878200000000003  0.15106  0.72282  1.0000
  C   C125      1.0  0.9148500000000003  0.15992  0.69517  1.0000
  C   C126      1.0  0.97828  0.29506  0.70968  1.0000
  C   C127      1.0  0.9129300000000001  0.12082  0.66972  1.0000
  C   C128      1.0  0.15766  0.32210000000000005  0.27593  1.0000
  C   C129      1.0  0.12707  0.3136  0.24651999999999996  1.0000
  C   C130      1.0  0.11074000000000003  0.26364  0.23747999999999997  1.0000
  C   C131      1.0  0.08961  0.25462  0.20806  1.0000
  C   C132      1.0  0.08327000000000001  0.29766  0.18866999999999998  1.0000
  C   C133      1.0  0.09737000000000001  0.34854  0.19752  1.0000
  C   C134      1.0  0.12013  0.35566999999999993  0.22658999999999999  1.0000
  C   C135      1.0  0.07651000000000001  0.20022  0.19757  1.0000
  C   C136      1.0  0.08999000000000001  0.3939  0.17626  1.0000
  C   C137      1.0  0.10331  0.27303  0.13626  1.0000
  C   C138      1.0  0.08428000000000002  0.2681  0.10432  1.0000
  C   C139      1.0  0.02788  0.27901  0.09639999999999999  1.0000
  C   C140      1.0  0.9889700000000002  0.29561  0.1186  1.0000
  C   C141      1.0  0.0065400000000000015  0.3013  0.15094  1.0000
  C   C142      1.0  0.12216000000000002  0.25242  0.0822  1.0000
  C   C143      1.0  0.10445  0.24592  0.05187  1.0000
  C   C144      1.0  0.04898000000000002  0.25547  0.04358  1.0000
  C   C145      1.0  0.01006  0.27292  0.06554  1.0000
  C   C146      1.0  0.9537900000000001  0.2844  0.05744  1.0000
  C   C147      1.0  0.9164800000000001  0.30132  0.07954  1.0000
  C   C148      1.0  0.9339500000000002  0.30669  0.11003999999999999  1.0000
  C   C149      1.0  0.030530000000000005  0.24561  0.01179  1.0000
  C   C150      1.0  0.9341900000000001  0.27744  0.025539999999999993  1.0000
  C   C151      1.0  0.95153  0.2389  0.97589  1.0000
  C   C152      1.0  0.9496000000000001  0.27456  0.9517799999999997  1.0000
  C   C153      1.0  0.9247400000000001  0.25819  0.92449  1.0000
  C   C154      1.0  0.90151  0.20835  0.92186  1.0000
  C   C155      1.0  0.9048600000000002  0.17346  0.94627  1.0000
  C   C156      1.0  0.9305100000000003  0.18799  0.97367  1.0000
  C   C157      1.0  0.9720100000000003  0.32888  0.95553  1.0000
  C   C158      1.0  0.9339500000000002  0.15097  0.00018  1.0000
  C   C159      1.0  0.25315  0.18075  0.3367  1.0000
  C   C160      1.0  0.24833000000000005  0.12342  0.34127  1.0000
  C   C161      1.0  0.19671  0.09879  0.33638  1.0000
  C   C162      1.0  0.19132000000000002  0.04498  0.33955  1.0000
  C   C163      1.0  0.23911000000000004  0.0166  0.34820999999999996  1.0000
  C   C164      1.0  0.29095  0.04038  0.35448  1.0000
  C   C165      1.0  0.29496  0.0942  0.35055  1.0000
  C   C166      1.0  0.13623  0.01857  0.33308  1.0000
  C   C167      1.0  0.3408600000000001  0.00879  0.3645399999999999  1.0000
  C   C168      1.0  0.24533999999999997  0.9348700000000001  0.32072  1.0000
  C   C169      1.0  0.24217  0.8774700000000001  0.32104  1.0000
  C   C170      1.0  0.23211  0.85057  0.34865  1.0000
  C   C171      1.0  0.22326000000000004  0.87777  0.37625  1.0000
  C   C172      1.0  0.22415000000000002  0.9354299999999999  0.37681999999999993  1.0000
  C   C173      1.0  0.24975000000000003  0.84991  0.29416  1.0000
  C   C174      1.0  0.24892  0.79525  0.29422  1.0000
  C   C175      1.0  0.24045  0.76801  0.32109  1.0000
  C   C176      1.0  0.23107000000000005  0.7951500000000001  0.34861999999999993  1.0000
  C   C177      1.0  0.22193000000000002  0.76806  0.37618999999999997  1.0000
  C   C178      1.0  0.21333  0.7956400000000001  0.40303  1.0000
  C   C179      1.0  0.21376  0.8503  0.40304999999999996  1.0000
  C   C180      1.0  0.24422  0.71054  0.32107  1.0000
  C   C181      1.0  0.22093000000000004  0.71032  0.37663  1.0000
  C   C182      1.0  0.23743  0.6287099999999999  0.34888  1.0000
  C   C183      1.0  0.14381  0.62434  0.32011  1.0000
  C   C184      1.0  0.204  0.54628  0.33038999999999996  1.0000
  C   C185      1.0  0.32776000000000005  0.6359300000000001  0.3798  1.0000
  C   C186      1.0  0.28812  0.55061  0.3615499999999999  1.0000
  C   C187      1.0  0.2839000000000001  0.60478  0.36307  1.0000
  C   C188      1.0  0.19621  0.60006  0.33315  1.0000
  C   C189      1.0  0.24911000000000005  0.52149  0.34476  1.0000
  C   C190      1.0  0.25536  0.46391000000000004  0.34244  1.0000
  C   C191      1.0  0.8569700000000001  0.18058  0.77466  1.0000
  C   C192      1.0  0.86938  0.19388  0.89383  1.0000
  C   C193      1.0  0.8290500000000002  0.69042  0.60016  1.0000
  C   C194      1.0  0.85648  0.705  0.57091  1.0000
  C   C195      1.0  0.85555  0.67002  0.54647  1.0000
  C   C196      1.0  0.8791900000000001  0.6832800000000001  0.51853  1.0000
  C   C197      1.0  0.90219  0.73331  0.51561  1.0000
  C   C198      1.0  0.9033600000000003  0.76949  0.53951  1.0000
  C   C199      1.0  0.8809000000000001  0.75417  0.56746  1.0000
  C   C200      1.0  0.87989  0.6451399999999999  0.49253  1.0000
  C   C201      1.0  0.92735  0.82306  0.53507  1.0000
  C   C202      1.0  0.98216  0.73232  0.48122  1.0000
  C   C203      1.0  0.003170000000000002  0.73948  0.4498  1.0000
  C   C204      1.0  0.96848  0.76219  0.4270999999999999  1.0000
  C   C205      1.0  0.9132900000000003  0.77877  0.4338099999999999  1.0000
  C   C206      1.0  0.8897900000000002  0.7709399999999998  0.46468999999999994  1.0000
  C   C207      1.0  0.05683  0.72249  0.44261  1.0000
  C   C208      1.0  0.07732000000000001  0.7275  0.41282  1.0000
  C   C209      1.0  0.04427  0.75046  0.39024999999999993  1.0000
  C   C210      1.0  0.9895  0.76835  0.39698  1.0000
  C   C211      1.0  0.9550700000000002  0.79182  0.37438999999999995  1.0000
  C   C212      1.0  0.90108  0.80799  0.38161  1.0000
  C   C213      1.0  0.8801600000000002  0.80129  0.41116999999999987  1.0000
  C   C214      1.0  0.0666  0.75676  0.35918  1.0000
  C   C215      1.0  0.97643  0.79981  0.34310999999999997  1.0000
  C   C216      1.0  0.05654  0.7928100000000001  0.30843  1.0000
  C   C217      1.0  0.053250000000000006  0.7549199999999999  0.28552  1.0000
  C   C218      1.0  0.08078  0.76517  0.25819  1.0000
  C   C219      1.0  0.11072000000000003  0.81152  0.254  1.0000
  C   C220      1.0  0.11218000000000003  0.84894  0.27718  1.0000
  C   C221      1.0  0.08514  0.84007  0.30483  1.0000
  C   C222      1.0  0.021710000000000004  0.70494  0.29032  1.0000
  C   C223      1.0  0.08706000000000003  0.8791800000000001  0.33027  1.0000
  C   C224      1.0  0.84233  0.6779  0.72407  1.0000
  C   C225      1.0  0.87292  0.6863900000000001  0.75348  1.0000
  C   C226      1.0  0.88925  0.73636  0.7625199999999999  1.0000
  C   C227      1.0  0.91038  0.74537  0.79194  1.0000
  C   C228      1.0  0.91672  0.70234  0.81133  1.0000
  C   C229      1.0  0.90262  0.65146  0.8024799999999999  1.0000
  C   C230      1.0  0.8798600000000002  0.64433  0.7734099999999999  1.0000
  C   C231      1.0  0.9234800000000001  0.79978  0.80243  1.0000
  C   C232      1.0  0.9100000000000003  0.6061  0.8237399999999999  1.0000
  C   C233      1.0  0.8966800000000003  0.7269699999999999  0.86374  1.0000
  C   C234      1.0  0.9157100000000001  0.7319  0.8956799999999999  1.0000
  C   C235      1.0  0.97211  0.72099  0.9036  1.0000
  C   C236      1.0  0.01102  0.70439  0.8814  1.0000
  C   C237      1.0  0.9934500000000002  0.6987  0.84906  1.0000
  C   C238      1.0  0.8778300000000002  0.74758  0.9178  1.0000
  C   C239      1.0  0.8955400000000002  0.7540800000000001  0.9481299999999999  1.0000
  C   C240      1.0  0.9510100000000001  0.7445200000000001  0.95642  1.0000
  C   C241      1.0  0.98994  0.72708  0.9344599999999998  1.0000
  C   C242      1.0  0.04620000000000001  0.7156  0.94256  1.0000
  C   C243      1.0  0.08351  0.6986699999999999  0.92046  1.0000
  C   C244      1.0  0.06604  0.69331  0.88996  1.0000
  C   C245      1.0  0.9694600000000001  0.75439  0.9882099999999999  1.0000
  C   C246      1.0  0.06581  0.72256  0.97446  1.0000
  C   C247      1.0  0.04846  0.7611  0.02411  1.0000
  C   C248      1.0  0.05039  0.72544  0.04822  1.0000
  C   C249      1.0  0.07525000000000001  0.74181  0.07551  1.0000
  C   C250      1.0  0.09848000000000003  0.79164  0.07814  1.0000
  C   C251      1.0  0.09514000000000003  0.82654  0.053729999999999986  1.0000
  C   C252      1.0  0.06948000000000001  0.8120000000000002  0.026329999999999996  1.0000
  C   C253      1.0  0.027980000000000005  0.67111  0.04447  1.0000
  C   C254      1.0  0.06604  0.8490300000000001  0.9998199999999999  1.0000
  C   C255      1.0  0.7468500000000002  0.81925  0.6633  1.0000
  C   C256      1.0  0.75167  0.87658  0.65873  1.0000
  C   C257      1.0  0.80328  0.90121  0.6636199999999999  1.0000
  C   C258      1.0  0.8086700000000002  0.95502  0.66045  1.0000
  C   C259      1.0  0.76088  0.98339  0.65179  1.0000
  C   C260      1.0  0.7090400000000001  0.95962  0.64552  1.0000
  C   C261      1.0  0.7050400000000002  0.90579  0.64945  1.0000
  C   C262      1.0  0.86376  0.9814200000000001  0.66692  1.0000
  C   C263      1.0  0.65914  0.99121  0.63546  1.0000
  C   C264      1.0  0.75465  0.06512  0.67928  1.0000
  C   C265      1.0  0.75782  0.12253  0.6789599999999999  1.0000
  C   C266      1.0  0.76788  0.14943  0.6513499999999999  1.0000
  C   C267      1.0  0.77673  0.12223  0.62375  1.0000
  C   C268      1.0  0.7758500000000002  0.06457  0.62318  1.0000
  C   C269      1.0  0.7502500000000002  0.15009  0.70584  1.0000
  C   C270      1.0  0.75107  0.20474  0.70578  1.0000
  C   C271      1.0  0.7595400000000001  0.23199000000000003  0.6789099999999999  1.0000
  C   C272      1.0  0.7689200000000003  0.20485000000000003  0.65138  1.0000
  C   C273      1.0  0.7780600000000002  0.23193  0.62381  1.0000
  C   C274      1.0  0.78666  0.20436  0.59697  1.0000
  C   C275      1.0  0.78623  0.1497  0.59695  1.0000
  C   C276      1.0  0.75577  0.28946  0.67893  1.0000
  C   C277      1.0  0.77907  0.28968  0.62337  1.0000
  C   C278      1.0  0.76256  0.37129  0.65112  1.0000
  C   C279      1.0  0.85618  0.37566  0.67989  1.0000
  C   C280      1.0  0.79599  0.45372000000000007  0.6696099999999999  1.0000
  C   C281      1.0  0.67224  0.36407  0.6202  1.0000
  C   C282      1.0  0.7118700000000002  0.44939  0.63845  1.0000
  C   C283      1.0  0.71609  0.39522000000000007  0.63693  1.0000
  C   C284      1.0  0.80379  0.39994  0.66685  1.0000
  C   C285      1.0  0.7508800000000002  0.47851  0.65524  1.0000
  C   C286      1.0  0.7446300000000001  0.53609  0.65756  1.0000
  C   C287      1.0  0.14303  0.81942  0.22534  1.0000
  C   C288      1.0  0.13061000000000003  0.80612  0.10617  1.0000
  C   C289      1.0  0.3290600000000001  0.80957  0.10016  1.0000
  C   C290      1.0  0.35648000000000013  0.79499  0.07091  1.0000
  C   C291      1.0  0.35556  0.82998  0.04647  1.0000
  C   C292      1.0  0.37919  0.81671  0.01853  1.0000
  C   C293      1.0  0.4022  0.76668  0.01561  1.0000
  C   C294      1.0  0.40336  0.7305  0.03951  1.0000
  C   C295      1.0  0.3809  0.74583  0.06746  1.0000
  C   C296      1.0  0.37989  0.8548600000000001  0.9925299999999999  1.0000
  C   C297      1.0  0.42736000000000013  0.67694  0.03507  1.0000
  C   C298      1.0  0.48216000000000003  0.76768  0.9812199999999999  1.0000
  C   C299      1.0  0.50317  0.76052  0.9497999999999999  1.0000
  C   C300      1.0  0.46847  0.7378  0.9271  1.0000
  C   C301      1.0  0.4132800000000001  0.72123  0.93381  1.0000
  C   C302      1.0  0.38979  0.7290600000000002  0.96469  1.0000
  C   C303      1.0  0.55683  0.77751  0.9426099999999998  1.0000
  C   C304      1.0  0.57731  0.77249  0.91282  1.0000
  C   C305      1.0  0.5442600000000001  0.74953  0.8902499999999999  1.0000
  C   C306      1.0  0.4895000000000001  0.73164  0.89698  1.0000
  C   C307      1.0  0.4550700000000001  0.70818  0.8743899999999999  1.0000
  C   C308      1.0  0.4010700000000001  0.692  0.8816099999999999  1.0000
  C   C309      1.0  0.38016000000000005  0.6987  0.91117  1.0000
  C   C310      1.0  0.5666  0.7432300000000001  0.8591799999999999  1.0000
  C   C311      1.0  0.4764300000000001  0.70019  0.8431099999999999  1.0000
  C   C312      1.0  0.5565400000000001  0.70719  0.80843  1.0000
  C   C313      1.0  0.55324  0.74507  0.78552  1.0000
  C   C314      1.0  0.5807800000000001  0.73483  0.7581899999999999  1.0000
  C   C315      1.0  0.61071  0.6884800000000001  0.754  1.0000
  C   C316      1.0  0.6121700000000001  0.65106  0.77718  1.0000
  C   C317      1.0  0.58513  0.65992  0.8048299999999999  1.0000
  C   C318      1.0  0.52171  0.79506  0.7903199999999999  1.0000
  C   C319      1.0  0.58706  0.62082  0.8302699999999997  1.0000
  C   C320      1.0  0.34234  0.8220900000000001  0.22406999999999996  1.0000
  C   C321      1.0  0.37292000000000003  0.8136  0.25348  1.0000
  C   C322      1.0  0.38925000000000004  0.76363  0.26252  1.0000
  C   C323      1.0  0.4103900000000001  0.75462  0.29194  1.0000
  C   C324      1.0  0.41672  0.7976600000000001  0.31133  1.0000
  C   C325      1.0  0.4026200000000001  0.8485400000000001  0.30248  1.0000
  C   C326      1.0  0.3798600000000001  0.8556600000000001  0.27341  1.0000
  C   C327      1.0  0.42349  0.70021  0.30243  1.0000
  C   C328      1.0  0.4100000000000001  0.89389  0.32374  1.0000
  C   C329      1.0  0.39669  0.77302  0.36374  1.0000
  C   C330      1.0  0.41572  0.7681  0.3956799999999999  1.0000
  C   C331      1.0  0.47212  0.77901  0.4036  1.0000
  C   C332      1.0  0.5110200000000001  0.79561  0.3814  1.0000
  C   C333      1.0  0.4934600000000001  0.8013  0.34906  1.0000
  C   C334      1.0  0.37783000000000005  0.75241  0.41779999999999995  1.0000
  C   C335      1.0  0.39554000000000006  0.74591  0.4481299999999999  1.0000
  C   C336      1.0  0.45101  0.75547  0.45642  1.0000
  C   C337      1.0  0.48994000000000004  0.77291  0.43445999999999996  1.0000
  C   C338      1.0  0.54621  0.7844  0.44256  1.0000
  C   C339      1.0  0.58351  0.80132  0.42046  1.0000
  C   C340      1.0  0.5660500000000002  0.80669  0.38996  1.0000
  C   C341      1.0  0.4694700000000001  0.7456000000000002  0.48820999999999987  1.0000
  C   C342      1.0  0.5658100000000001  0.77744  0.47446  1.0000
  C   C343      1.0  0.54846  0.7389000000000001  0.52411  1.0000
  C   C344      1.0  0.55039  0.7745600000000001  0.54822  1.0000
  C   C345      1.0  0.57525  0.75819  0.57551  1.0000
  C   C346      1.0  0.59848  0.70835  0.57814  1.0000
  C   C347      1.0  0.59513  0.67346  0.55373  1.0000
  C   C348      1.0  0.56948  0.6879900000000001  0.52633  1.0000
  C   C349      1.0  0.52798  0.82888  0.54447  1.0000
  C   C350      1.0  0.56604  0.65097  0.49982  1.0000
  C   C351      1.0  0.24685000000000007  0.68075  0.1633  1.0000
  C   C352      1.0  0.25167  0.62342  0.15872999999999998  1.0000
  C   C353      1.0  0.30329000000000006  0.59879  0.16362  1.0000
  C   C354      1.0  0.30867  0.54498  0.16045  1.0000
  C   C355      1.0  0.26088  0.5166  0.15178999999999998  1.0000
  C   C356      1.0  0.20904000000000003  0.54038  0.14552  1.0000
  C   C357      1.0  0.20504000000000003  0.5942  0.14945  1.0000
  C   C358      1.0  0.3637700000000001  0.51857  0.16692  1.0000
  C   C359      1.0  0.15914  0.50878  0.13546  1.0000
  C   C360      1.0  0.25465  0.43487999999999993  0.17928  1.0000
  C   C361      1.0  0.25783000000000006  0.37747  0.17896  1.0000
  C   C362      1.0  0.26788  0.35057  0.15135  1.0000
  C   C363      1.0  0.27673999999999993  0.37777  0.12374999999999999  1.0000
  C   C364      1.0  0.27585000000000004  0.43543  0.12317999999999998  1.0000
  C   C365      1.0  0.25025000000000003  0.34991000000000005  0.20584  1.0000
  C   C366      1.0  0.25107  0.29526  0.20578  1.0000
  C   C367      1.0  0.25954000000000005  0.26801  0.17891  1.0000
  C   C368      1.0  0.26893  0.29515  0.15138  1.0000
  C   C369      1.0  0.27806000000000003  0.26806  0.12381  1.0000
  C   C370      1.0  0.28666  0.29564  0.09697  1.0000
  C   C371      1.0  0.28623000000000004  0.3503  0.09694999999999998  1.0000
  C   C372      1.0  0.25578000000000006  0.21054  0.17893  1.0000
  C   C373      1.0  0.27907  0.21032000000000003  0.12337  1.0000
  C   C374      1.0  0.26257  0.12871  0.15112  1.0000
  C   C375      1.0  0.35619  0.12434  0.17988999999999997  1.0000
  C   C376      1.0  0.29599  0.04628  0.16960999999999998  1.0000
  C   C377      1.0  0.17224  0.13593  0.1202  1.0000
  C   C378      1.0  0.21187000000000003  0.05061  0.13845  1.0000
  C   C379      1.0  0.21609  0.10478  0.13693  1.0000
  C   C380      1.0  0.30379000000000006  0.10006  0.16685  1.0000
  C   C381      1.0  0.25088000000000005  0.021490000000000002  0.15524  1.0000
  C   C382      1.0  0.24464000000000005  0.96391  0.15756  1.0000
  C   C383      1.0  0.6430200000000001  0.68058  0.72534  1.0000
  C   C384      1.0  0.63061  0.69388  0.60617  1.0000
  N   N1        1.0  0.57413  0.2472  0.01364  1.0000
  N   N2        1.0  0.46823  0.2824  0.16216  1.0000
  N   N3        1.0  0.56344  0.21018000000000003  0.65765  1.0000
  N   N4        1.0  0.4734100000000001  0.24482  0.50526  1.0000
  N   N5        1.0  0.73571  0.53972  0.84889  1.0000
  N   N6        1.0  0.7337600000000002  0.81496  0.84919  1.0000
  N   N7        1.0  0.07413  0.2528  0.51364  1.0000
  N   N8        1.0  0.96823  0.2176  0.66216  1.0000
  N   N9        1.0  0.06344  0.28982  0.15765  1.0000
  N   N10       1.0  0.9734100000000002  0.25518  0.00526  1.0000
  N   N11       1.0  0.23571  0.96028  0.34889  1.0000
  N   N12       1.0  0.23376000000000005  0.68503  0.34919  1.0000
  N   N13       1.0  0.9258600000000002  0.74719  0.48636  1.0000
  N   N14       1.0  0.03176  0.7824  0.33784  1.0000
  N   N15       1.0  0.9365500000000001  0.7101800000000001  0.8423499999999998  1.0000
  N   N16       1.0  0.02658  0.74482  0.9947399999999998  1.0000
  N   N17       1.0  0.76428  0.03972  0.65111  1.0000
  N   N18       1.0  0.7662300000000002  0.31496  0.65081  1.0000
  N   N19       1.0  0.42586000000000007  0.7528  0.98636  1.0000
  N   N20       1.0  0.5317600000000001  0.71759  0.83784  1.0000
  N   N21       1.0  0.43656000000000006  0.7898100000000001  0.34235  1.0000
  N   N22       1.0  0.52659  0.75518  0.49473999999999996  1.0000
  N   N23       1.0  0.26428  0.4602800000000001  0.15111  1.0000
  N   N24       1.0  0.2662300000000001  0.18503  0.15080999999999997  1.0000
  O   O1        1.0  0.76121  0.17742  0.83641  1.0000
  O   O2        1.0  0.6563900000000001  0.21594  0.8759899999999999  1.0000
  O   O3        1.0  0.7070800000000003  0.15369  0.90132  1.0000
  O   O4        1.0  0.48893000000000003  0.21358  0.99828  1.0000
  O   O5        1.0  0.6583100000000001  0.28346  0.028699999999999996  1.0000
  O   O6        1.0  0.38664  0.24146  0.14841  1.0000
  O   O7        1.0  0.5510900000000001  0.32048  0.17729  1.0000
  O   O8        1.0  0.64749  0.20847  0.7981599999999999  1.0000
  O   O9        1.0  0.6932100000000002  0.14061  0.77586  1.0000
  O   O10       1.0  0.65165  0.23711999999999997  0.6442  1.0000
  O   O11       1.0  0.47448  0.18488  0.67114  1.0000
  O   O12       1.0  0.5623400000000001  0.27091  0.49218  1.0000
  O   O13       1.0  0.38674  0.21108000000000002  0.51682  1.0000
  O   O14       1.0  0.8023000000000002  0.29943  0.8378999999999999  1.0000
  O   O15       1.0  0.7074800000000001  0.29444  0.83182  1.0000
  O   O16       1.0  0.7158500000000001  0.53893  0.8999999999999999  1.0000
  O   O17       1.0  0.7557900000000001  0.53942  0.79785  1.0000
  O   O18       1.0  0.7102700000000001  0.81481  0.89984  1.0000
  O   O19       1.0  0.7559700000000001  0.81488  0.7983499999999998  1.0000
  O   O20       1.0  0.37469  0.27649  0.37063999999999997  1.0000
  O   O21       1.0  0.33822000000000013  0.34653  0.39546999999999993  1.0000
  O   O22       1.0  0.32465000000000005  0.35928000000000004  0.27586  1.0000
  O   O23       1.0  0.36368000000000006  0.28507  0.29543  1.0000
  O   O24       1.0  0.7443800000000003  0.05702  0.8166599999999999  1.0000
  O   O25       1.0  0.7709500000000002  0.05987  0.86667  1.0000
  O   O26       1.0  0.26122000000000006  0.32258  0.33641  1.0000
  O   O27       1.0  0.15639  0.28406  0.37599  1.0000
  O   O28       1.0  0.20708  0.34631  0.40132  1.0000
  O   O29       1.0  0.9889400000000002  0.28642  0.49827999999999995  1.0000
  O   O30       1.0  0.1583  0.21654000000000004  0.5287  1.0000
  O   O31       1.0  0.8866400000000001  0.25854  0.6484099999999999  1.0000
  O   O32       1.0  0.05109  0.17951  0.67729  1.0000
  O   O33       1.0  0.14749000000000004  0.29153  0.29816  1.0000
  O   O34       1.0  0.19322  0.35939  0.27586  1.0000
  O   O35       1.0  0.15165000000000003  0.26288  0.1442  1.0000
  O   O36       1.0  0.9744800000000001  0.31512000000000007  0.17114  1.0000
  O   O37       1.0  0.062340000000000007  0.22909  0.9921799999999998  1.0000
  O   O38       1.0  0.88674  0.28892  0.01682  1.0000
  O   O39       1.0  0.3023  0.20055999999999996  0.3379  1.0000
  O   O40       1.0  0.20748000000000003  0.20556  0.33182  1.0000
  O   O41       1.0  0.21586  0.96106  0.4  1.0000
  O   O42       1.0  0.25579  0.96058  0.29785  1.0000
  O   O43       1.0  0.21027  0.68519  0.39984  1.0000
  O   O44       1.0  0.25598  0.68511  0.29835  1.0000
  O   O45       1.0  0.8746900000000001  0.22351  0.87064  1.0000
  O   O46       1.0  0.8382200000000002  0.15347  0.89547  1.0000
  O   O47       1.0  0.82464  0.14072  0.77586  1.0000
  O   O48       1.0  0.86367  0.21492  0.79543  1.0000
  O   O49       1.0  0.24439000000000002  0.44297  0.31665999999999994  1.0000
  O   O50       1.0  0.27096000000000003  0.44013  0.36666999999999994  1.0000
  O   O51       1.0  0.73878  0.6774199999999999  0.66359  1.0000
  O   O52       1.0  0.8436000000000001  0.7159400000000001  0.62401  1.0000
  O   O53       1.0  0.79291  0.6536900000000001  0.59868  1.0000
  O   O54       1.0  0.011050000000000003  0.7135699999999999  0.50172  1.0000
  O   O55       1.0  0.84169  0.7834600000000002  0.47129999999999994  1.0000
  O   O56       1.0  0.11336000000000002  0.74146  0.35158999999999996  1.0000
  O   O57       1.0  0.9489  0.82048  0.32271  1.0000
  O   O58       1.0  0.8525000000000003  0.7084700000000002  0.70184  1.0000
  O   O59       1.0  0.8067800000000002  0.64061  0.72414  1.0000
  O   O60       1.0  0.84834  0.7371200000000001  0.8557999999999999  1.0000
  O   O61       1.0  0.02551000000000001  0.6848800000000002  0.82886  1.0000
  O   O62       1.0  0.9376500000000002  0.77091  0.00782  1.0000
  O   O63       1.0  0.11325000000000003  0.71108  0.98318  1.0000
  O   O64       1.0  0.6976900000000001  0.79943  0.6621  1.0000
  O   O65       1.0  0.7925100000000002  0.79443  0.66818  1.0000
  O   O66       1.0  0.7841300000000002  0.03894  0.6  1.0000
  O   O67       1.0  0.7442000000000002  0.03942  0.70215  1.0000
  O   O68       1.0  0.7897200000000002  0.31481  0.60016  1.0000
  O   O69       1.0  0.7440100000000002  0.31488  0.70165  1.0000
  O   O70       1.0  0.12531  0.77649  0.12936  1.0000
  O   O71       1.0  0.16177  0.84653  0.10453  1.0000
  O   O72       1.0  0.17535  0.85928  0.22414  1.0000
  O   O73       1.0  0.13632  0.78507  0.20457  1.0000
  O   O74       1.0  0.7556  0.55702  0.68334  1.0000
  O   O75       1.0  0.72903  0.55987  0.63333  1.0000
  O   O76       1.0  0.23878  0.8225800000000001  0.16359  1.0000
  O   O77       1.0  0.34361  0.7840599999999999  0.12400999999999998  1.0000
  O   O78       1.0  0.29291  0.84631  0.09868  1.0000
  O   O79       1.0  0.5110600000000001  0.78642  0.0017199999999999997  1.0000
  O   O80       1.0  0.34169000000000005  0.71653  0.9712999999999999  1.0000
  O   O81       1.0  0.61335  0.75854  0.85159  1.0000
  O   O82       1.0  0.4489  0.67951  0.8227099999999999  1.0000
  O   O83       1.0  0.3525000000000001  0.79153  0.20183999999999996  1.0000
  O   O84       1.0  0.30678000000000005  0.8593900000000001  0.22414  1.0000
  O   O85       1.0  0.34834  0.76288  0.3558  1.0000
  O   O86       1.0  0.52551  0.81512  0.32886  1.0000
  O   O87       1.0  0.43765000000000004  0.72909  0.50782  1.0000
  O   O88       1.0  0.6132500000000001  0.78892  0.48318  1.0000
  O   O89       1.0  0.19769  0.70056  0.1621  1.0000
  O   O90       1.0  0.29252  0.70556  0.16818  1.0000
  O   O91       1.0  0.28414000000000006  0.46106  0.1  1.0000
  O   O92       1.0  0.24420000000000003  0.46058  0.20214999999999994  1.0000
  O   O93       1.0  0.28972000000000003  0.18519  0.10016  1.0000
  O   O94       1.0  0.24402  0.18510999999999997  0.20164999999999997  1.0000
  O   O95       1.0  0.6253000000000001  0.72351  0.62936  1.0000
  O   O96       1.0  0.66177  0.65347  0.60453  1.0000
  O   O97       1.0  0.6753400000000002  0.6407100000000001  0.72414  1.0000
  O   O98       1.0  0.6363199999999999  0.71492  0.70457  1.0000
  O   O99       1.0  0.25561  0.94297  0.18334  1.0000
  O   O100      1.0  0.22904000000000002  0.94013  0.13333  1.0000
