data_image0
_chemical_formula_structural       Cd8H408C456N48
_chemical_formula_sum              "Cd8 H408 C456 N48"
_cell_length_a       28.76691
_cell_length_b       28.769289999999998
_cell_length_c       28.77133
_cell_angle_alpha    109.47689
_cell_angle_beta     109.47696
_cell_angle_gamma    109.47405

_symmetry_space_group_name_H-M    'P 1'
_symmetry_Int_Tables_number       1

loop_
  _symmetry_equiv_pos_as_xyz
  'x,y,z'

loop_
  _atom_site_type_symbol
  _atom_site_label
  _atom_site_symmetry_multiplicity
  _atom_site_fract_x
  _atom_site_fract_y
  _atom_site_fract_z
  _atom_site_occupancy
  Cd  Cd1       1.0  0.00012000000000000293  0.0001399999999999834  0.50012  1.0000
  Cd  Cd2       1.0  0.4999  0.00012  5e-05  1.0000
  Cd  Cd3       1.0  0.9999899999999999  0.49989999999999996  0.9997799999999999  1.0000
  Cd  Cd4       1.0  0.4999799999999999  0.49980999999999987  0.50003  1.0000
  Cd  Cd5       1.0  0.9997599999999998  0.9998199999999998  0.9998999999999999  1.0000
  Cd  Cd6       1.0  0.50018  0.5002  0.00022  1.0000
  Cd  Cd7       1.0  5.999999999996885e-05  0.5000499999999999  0.49983999999999995  1.0000
  Cd  Cd8       1.0  0.49998000000000004  0.99986  0.49999  1.0000
  H   H1        1.0  0.93802  0.07354999999999998  0.52453  1.0000
  H   H2        1.0  0.95956  0.17298  0.57883  1.0000
  H   H3        1.0  0.12946999999999997  0.2302999999999999  0.60268  1.0000
  H   H4        1.0  0.10115  0.12904  0.54725  1.0000
  H   H5        1.0  0.10256999999999991  0.2886899999999999  0.7607399999999999  1.0000
  H   H6        1.0  0.14279999999999995  0.2712299999999999  0.7304199999999998  1.0000
  H   H7        1.0  0.06862999999999998  0.22441  0.6948  1.0000
  H   H8        1.0  0.56199  0.08647  0.13559  1.0000
  H   H9        1.0  0.54039  0.11944  0.21336  1.0000
  H   H10       1.0  0.37047  0.97342  0.10086  1.0000
  H   H11       1.0  0.39883  0.94617  0.028019999999999993  1.0000
  H   H12       1.0  0.43561  0.13365  0.16214  1.0000
  H   H13       1.0  0.38966000000000006  0.15339  0.18217  1.0000
  H   H14       1.0  0.36209  0.08473  0.12541  1.0000
  H   H15       1.0  0.049139999999999975  0.4134999999999999  0.97545  1.0000
  H   H16       1.0  0.09408999999999997  0.38062999999999997  0.92099  1.0000
  H   H17       1.0  0.12750999999999993  0.5266699999999997  0.89711  1.0000
  H   H18       1.0  0.08186000000000003  0.55386  0.95267  1.0000
  H   H19       1.0  0.027700000000000013  0.36159  0.79911  1.0000
  H   H20       1.0  0.02952999999999999  0.35081999999999997  0.73513  1.0000
  H   H21       1.0  0.040889999999999996  0.41686  0.78284  1.0000
  H   H22       1.0  0.45076  0.42633  0.36436  1.0000
  H   H23       1.0  0.4054  0.32683999999999996  0.28647  1.0000
  H   H24       1.0  0.37255  0.26976999999999995  0.39938999999999997  1.0000
  H   H25       1.0  0.41828  0.37107999999999997  0.47222  1.0000
  H   H26       1.0  0.47265000000000007  0.2151  0.31099  1.0000
  H   H27       1.0  0.46031  0.2232699999999999  0.36854  1.0000
  H   H28       1.0  0.46936999999999995  0.27624999999999994  0.34881  1.0000
  H   H29       1.0  0.86445  0.4508999999999999  0.9264  1.0000
  H   H30       1.0  0.7866  0.40583  0.82696  1.0000
  H   H31       1.0  0.89921  0.37232  0.7697  1.0000
  H   H32       1.0  0.97212  0.41814  0.87095  1.0000
  H   H33       1.0  0.8692399999999999  0.4600799999999998  0.7247199999999999  1.0000
  H   H34       1.0  0.84759  0.46979999999999994  0.77628  1.0000
  H   H35       1.0  0.8116599999999999  0.4727699999999999  0.7142199999999999  1.0000
  H   H36       1.0  0.4755400000000001  0.04924999999999996  0.91354  1.0000
  H   H37       1.0  0.42125000000000007  0.09441000000000002  0.88085  1.0000
  H   H38       1.0  0.39698  0.12732  0.02663  1.0000
  H   H39       1.0  0.45269  0.08177  0.05386  1.0000
  H   H40       1.0  0.27868000000000004  0.04057999999999997  0.91575  1.0000
  H   H41       1.0  0.30156  0.028519999999999966  0.8654  1.0000
  H   H42       1.0  0.23609999999999995  0.02901999999999992  0.8476999999999999  1.0000
  H   H43       1.0  0.63555  0.56199  0.58645  1.0000
  H   H44       1.0  0.71347  0.54049  0.61917  1.0000
  H   H45       1.0  0.60084  0.37053  0.47324  1.0000
  H   H46       1.0  0.52793  0.39886  0.4461399999999999  1.0000
  H   H47       1.0  0.68795  0.40141  0.66052  1.0000
  H   H48       1.0  0.6306099999999998  0.35551999999999995  0.58996  1.0000
  H   H49       1.0  0.65289  0.42895  0.62283  1.0000
  H   H50       1.0  0.02461999999999992  0.9380699999999997  0.5736  1.0000
  H   H51       1.0  0.0794200000000001  0.95985  0.67304  1.0000
  H   H52       1.0  0.10248  0.12944000000000003  0.73029  1.0000
  H   H53       1.0  0.04713999999999997  0.10109999999999993  0.62902  1.0000
  H   H54       1.0  0.21298  0.06108999999999998  0.73886  1.0000
  H   H55       1.0  0.2656199999999999  0.12990999999999994  0.79816  1.0000
  H   H56       1.0  0.20414  0.11997999999999995  0.74379  1.0000
  H   H57       1.0  0.41352999999999995  0.47554  0.54922  1.0000
  H   H58       1.0  0.38077  0.42125  0.59436  1.0000
  H   H59       1.0  0.52657  0.39698  0.62737  1.0000
  H   H60       1.0  0.55381  0.45262999999999987  0.5818  1.0000
  H   H61       1.0  0.34786  0.23591  0.52907  1.0000
  H   H62       1.0  0.41597  0.27901  0.54105  1.0000
  H   H63       1.0  0.3650600000000001  0.30119  0.52827  1.0000
  H   H64       1.0  0.4266499999999999  0.86471  0.95111  1.0000
  H   H65       1.0  0.32717  0.78697  0.90642  1.0000
  H   H66       1.0  0.2698199999999999  0.8992999999999999  0.87241  1.0000
  H   H67       1.0  0.37109  0.97223  0.9181199999999999  1.0000
  H   H68       1.0  0.2761899999999999  0.8488599999999998  0.9698  1.0000
  H   H69       1.0  0.21464000000000003  0.8113699999999999  0.9727599999999998  1.0000
  H   H70       1.0  0.22289999999999982  0.8683399999999997  0.9594099999999998  1.0000
  H   H71       1.0  0.07351999999999997  0.024549999999999957  0.4380899999999999  1.0000
  H   H72       1.0  0.17295999999999997  0.07900999999999991  0.45970999999999995  1.0000
  H   H73       1.0  0.23027  0.10254  0.62946  1.0000
  H   H74       1.0  0.12900999999999999  0.047099999999999996  0.60114  1.0000
  H   H75       1.0  0.28677  0.25924  0.59906  1.0000
  H   H76       1.0  0.27389  0.2338  0.64401  1.0000
  H   H77       1.0  0.22387  0.19382  0.57034  1.0000
  H   H78       1.0  0.08647  0.63546  0.06192  1.0000
  H   H79       1.0  0.11959000000000002  0.7131  0.04016  1.0000
  H   H80       1.0  0.97329  0.60072  0.87045  1.0000
  H   H81       1.0  0.946  0.52793  0.89887  1.0000
  H   H82       1.0  0.13245999999999988  0.6609799999999998  0.93503  1.0000
  H   H83       1.0  0.15439000000000003  0.68283  0.89105  1.0000
  H   H84       1.0  0.08520999999999991  0.6257999999999998  0.8612199999999999  1.0000
  H   H85       1.0  0.93793  0.86418  0.91354  1.0000
  H   H86       1.0  0.95973  0.78648  0.88095  1.0000
  H   H87       1.0  0.12969  0.89958  0.02674  1.0000
  H   H88       1.0  0.10096999999999992  0.9721599999999998  0.05398  1.0000
  H   H89       1.0  0.13599999999999982  0.8374899999999995  0.8712999999999997  1.0000
  H   H90       1.0  0.11233  0.87451  0.91259  1.0000
  H   H91       1.0  0.06305999999999999  0.81713  0.8425499999999999  1.0000
  H   H92       1.0  0.562  0.4755899999999999  0.9265699999999999  1.0000
  H   H93       1.0  0.54005  0.4207899999999999  0.82703  1.0000
  H   H94       1.0  0.37042  0.39746  0.7701  1.0000
  H   H95       1.0  0.3990199999999999  0.45328999999999997  0.8714099999999999  1.0000
  H   H96       1.0  0.4039799999999999  0.30604999999999993  0.77128  1.0000
  H   H97       1.0  0.42823  0.26328  0.73806  1.0000
  H   H98       1.0  0.35525999999999996  0.2415599999999999  0.70491  1.0000
  H   H99       1.0  0.04929000000000001  0.63567  0.57357  1.0000
  H   H100      1.0  0.09458  0.71348  0.67312  1.0000
  H   H101      1.0  0.12726  0.60042  0.72999  1.0000
  H   H102      1.0  0.08175999999999997  0.5277  0.62868  1.0000
  H   H103      1.0  0.03653999999999999  0.65262  0.79635  1.0000
  H   H104      1.0  0.03561999999999999  0.6309799999999999  0.73017  1.0000
  H   H105      1.0  0.02521999999999998  0.68901  0.75893  1.0000
  H   H106      1.0  0.45076  0.024309999999999977  0.58641  1.0000
  H   H107      1.0  0.40593999999999997  0.07900999999999994  0.6192299999999998  1.0000
  H   H108      1.0  0.37297  0.10299999999999997  0.47334999999999994  1.0000
  H   H109      1.0  0.41823  0.04695999999999998  0.44598  1.0000
  H   H110      1.0  0.46236  0.19841999999999999  0.58889  1.0000
  H   H111      1.0  0.47504  0.22365  0.65934  1.0000
  H   H112      1.0  0.46546  0.26396  0.62594  1.0000
  H   H113      1.0  0.8645300000000001  0.41360999999999987  0.43797  1.0000
  H   H114      1.0  0.7869  0.38085  0.45987  1.0000
  H   H115      1.0  0.89971  0.5269199999999999  0.6295899999999999  1.0000
  H   H116      1.0  0.9723599999999998  0.55421  0.60093  1.0000
  H   H117      1.0  0.85262  0.38993  0.64602  1.0000
  H   H118      1.0  0.86486  0.39883999999999986  0.59208  1.0000
  H   H119      1.0  0.8088099999999999  0.3342099999999999  0.57482  1.0000
  H   H120      1.0  0.47559  0.42659  0.06204  1.0000
  H   H121      1.0  0.42059  0.32709999999999995  0.04013  1.0000
  H   H122      1.0  0.39720999999999995  0.26994999999999997  0.8704799999999999  1.0000
  H   H123      1.0  0.45315  0.3712099999999998  0.8990299999999999  1.0000
  H   H124      1.0  0.30006  0.26176  0.88722  1.0000
  H   H125      1.0  0.27981999999999985  0.25493  0.93717  1.0000
  H   H126      1.0  0.23533  0.20153  0.86449  1.0000
  H   H127      1.0  0.63557  0.07351999999999999  0.5492  1.0000
  H   H128      1.0  0.71316  0.17306  0.59387  1.0000
  H   H129      1.0  0.60033  0.23  0.62713  1.0000
  H   H130      1.0  0.52772  0.12869999999999995  0.5819  1.0000
  H   H131      1.0  0.6278800000000001  0.2339  0.5368  1.0000
  H   H132      1.0  0.68622  0.252  0.52494  1.0000
  H   H133      1.0  0.65799  0.29803  0.53501  1.0000
  H   H134      1.0  0.024320000000000015  0.08638  0.95082  1.0000
  H   H135      1.0  0.07891999999999995  0.11906999999999997  0.90586  1.0000
  H   H136      1.0  0.10264000000000002  0.97302  0.87272  1.0000
  H   H137      1.0  0.04676999999999992  0.9458099999999998  0.9181699999999999  1.0000
  H   H138      1.0  0.25909999999999994  0.11477999999999995  0.9632599999999999  1.0000
  H   H139      1.0  0.19419  0.09640000000000001  0.96468  1.0000
  H   H140      1.0  0.23517  0.16427000000000003  0.97486  1.0000
  H   H141      1.0  0.41367999999999994  0.9379399999999999  0.36443  1.0000
  H   H142      1.0  0.38105  0.95967  0.28667  1.0000
  H   H143      1.0  0.52665  0.12969999999999995  0.3997  1.0000
  H   H144      1.0  0.5541  0.10103000000000002  0.47228  1.0000
  H   H145      1.0  0.40327  0.14700999999999995  0.36409  1.0000
  H   H146      1.0  0.38543  0.07791999999999998  0.35411  1.0000
  H   H147      1.0  0.33549  0.08903000000000001  0.30912  1.0000
  H   H148      1.0  0.42646  0.56202  0.9756  1.0000
  H   H149      1.0  0.3269299999999999  0.5400199999999998  0.9206899999999998  1.0000
  H   H150      1.0  0.2700300000000001  0.37033  0.89716  1.0000
  H   H151      1.0  0.37132999999999994  0.39903  0.9532099999999999  1.0000
  H   H152      1.0  0.26362  0.3897299999999999  0.80119  1.0000
  H   H153      1.0  0.2520300000000001  0.4361  0.77731  1.0000
  H   H154      1.0  0.20158999999999994  0.3625199999999999  0.7357999999999999  1.0000
  H   H155      1.0  0.07335  0.04896999999999999  0.13538  1.0000
  H   H156      1.0  0.17289  0.09369  0.21301  1.0000
  H   H157      1.0  0.22997999999999996  0.12741999999999998  0.10046999999999999  1.0000
  H   H158      1.0  0.12865  0.08189999999999997  0.027699999999999992  1.0000
  H   H159      1.0  0.26164  0.024799999999999985  0.18971  1.0000
  H   H160      1.0  0.29554  0.037080000000000016  0.15068  1.0000
  H   H161      1.0  0.22901  0.034939999999999985  0.13254  1.0000
  H   H162      1.0  0.08644  0.45087  0.52435  1.0000
  H   H163      1.0  0.11933  0.4061599999999999  0.57916  1.0000
  H   H164      1.0  0.97328  0.37292999999999993  0.6029  1.0000
  H   H165      1.0  0.94588  0.41815999999999987  0.54684  1.0000
  H   H166      1.0  0.15828  0.47486999999999996  0.72191  1.0000
  H   H167      1.0  0.12742999999999993  0.4657899999999998  0.7643499999999999  1.0000
  H   H168      1.0  0.08796999999999998  0.46211  0.6992  1.0000
  H   H169      1.0  0.06203999999999999  0.92647  0.47566  1.0000
  H   H170      1.0  0.040109999999999923  0.8269499999999997  0.42083  1.0000
  H   H171      1.0  0.8703299999999998  0.7699999999999998  0.39714  1.0000
  H   H172      1.0  0.89901  0.8712899999999999  0.45318  1.0000
  H   H173      1.0  0.9342300000000006  0.74797  0.27295  1.0000
  H   H174      1.0  0.8939800000000001  0.7660700000000001  0.30292  1.0000
  H   H175      1.0  0.8599699999999999  0.7019399999999999  0.237  1.0000
  H   H176      1.0  0.43795  0.9136299999999998  0.86442  1.0000
  H   H177      1.0  0.45984999999999987  0.8809299999999998  0.78679  1.0000
  H   H178      1.0  0.62962  0.02697000000000002  0.89971  1.0000
  H   H179      1.0  0.6009599999999999  0.054169999999999996  0.97234  1.0000
  H   H180      1.0  0.59778  0.9036199999999998  0.8682799999999998  1.0000
  H   H181      1.0  0.6443199999999999  0.8852399999999998  0.8484699999999998  1.0000
  H   H182      1.0  0.57088  0.83574  0.81057  1.0000
  H   H183      1.0  0.95089  0.58636  0.024309999999999995  1.0000
  H   H184      1.0  0.9060399999999998  0.6191499999999998  0.07901  1.0000
  H   H185      1.0  0.8727799999999999  0.4730799999999999  0.10268999999999999  1.0000
  H   H186      1.0  0.9181599999999999  0.44577999999999984  0.04673  1.0000
  H   H187      1.0  0.96604  0.6011699999999999  0.19325999999999996  1.0000
  H   H188      1.0  0.96273  0.6101  0.25612  1.0000
  H   H189      1.0  0.97463  0.6657999999999997  0.24063  1.0000
  H   H190      1.0  0.54901  0.5734  0.63544  1.0000
  H   H191      1.0  0.5934699999999999  0.6729099999999997  0.7130199999999999  1.0000
  H   H192      1.0  0.62725  0.73005  0.60052  1.0000
  H   H193      1.0  0.58195  0.62879  0.52782  1.0000
  H   H194      1.0  0.5248399999999999  0.7450399999999998  0.68219  1.0000
  H   H195      1.0  0.53825  0.73821  0.62543  1.0000
  H   H196      1.0  0.53374  0.79843  0.66291  1.0000
  H   H197      1.0  0.13555  0.54912  0.07346  1.0000
  H   H198      1.0  0.21316999999999994  0.5938399999999998  0.173  1.0000
  H   H199      1.0  0.10035000000000001  0.62706  0.22997  1.0000
  H   H200      1.0  0.027719999999999998  0.58184  0.12866  1.0000
  H   H201      1.0  0.16161999999999996  0.5342  0.29855  1.0000
  H   H202      1.0  0.18338999999999994  0.5251199999999999  0.24701999999999993  1.0000
  H   H203      1.0  0.12584999999999993  0.5378699999999997  0.23706999999999998  1.0000
  H   H204      1.0  0.5243899999999999  0.9510099999999998  0.08642  1.0000
  H   H205      1.0  0.57921  0.90631  0.11932999999999999  1.0000
  H   H206      1.0  0.60257  0.8725899999999998  0.9730499999999999  1.0000
  H   H207      1.0  0.54677  0.9180999999999998  0.9458099999999999  1.0000
  H   H208      1.0  0.7584599999999999  0.96291  0.11361  1.0000
  H   H209      1.0  0.73686  0.9751899999999999  0.16491  1.0000
  H   H210      1.0  0.69406  0.9650499999999999  0.09758999999999998  1.0000
  H   H211      1.0  0.36442  0.43799  0.41358  1.0000
  H   H212      1.0  0.28690999999999994  0.4599899999999999  0.38067  1.0000
  H   H213      1.0  0.39972  0.62968  0.52684  1.0000
  H   H214      1.0  0.47228  0.60097  0.55418  1.0000
  H   H215      1.0  0.31594  0.5639  0.34121  1.0000
  H   H216      1.0  0.37389999999999995  0.6102699999999998  0.41146  1.0000
  H   H217      1.0  0.33907999999999994  0.6374899999999998  0.37328  1.0000
  H   H218      1.0  0.97575  0.06207000000000003  0.42652  1.0000
  H   H219      1.0  0.92139  0.04034000000000002  0.32701  1.0000
  H   H220      1.0  0.8969599999999999  0.8703099999999999  0.27  1.0000
  H   H221      1.0  0.95308  0.8989699999999998  0.37128  1.0000
  H   H222      1.0  0.80751  0.92209  0.27618  1.0000
  H   H223      1.0  0.7562599999999999  0.8529999999999999  0.21708  1.0000
  H   H224      1.0  0.74646  0.91097  0.22008999999999998  1.0000
  H   H225      1.0  0.58642  0.5244100000000002  0.45097  1.0000
  H   H226      1.0  0.61927  0.57922  0.40624999999999994  1.0000
  H   H227      1.0  0.47295  0.60255  0.37264  1.0000
  H   H228      1.0  0.44573  0.5467099999999999  0.41811999999999994  1.0000
  H   H229      1.0  0.66495  0.73674  0.4748  1.0000
  H   H230      1.0  0.59794  0.69397  0.46525999999999995  1.0000
  H   H231      1.0  0.61371  0.75846  0.46337999999999996  1.0000
  H   H232      1.0  0.57354  0.13551  0.049  1.0000
  H   H233      1.0  0.67304  0.21303  0.09345  1.0000
  H   H234      1.0  0.73013  0.10060999999999998  0.12758  1.0000
  H   H235      1.0  0.62881  0.027849999999999993  0.082  1.0000
  H   H236      1.0  0.73785  0.12551  0.03797  1.0000
  H   H237      1.0  0.79852  0.16258  0.03376  1.0000
  H   H238      1.0  0.74584  0.18279  0.0252  1.0000
  H   H239      1.0  0.9264700000000001  0.97569  0.56209  1.0000
  H   H240      1.0  0.82693  0.921  0.54022  1.0000
  H   H241      1.0  0.7699699999999999  0.8970099999999998  0.37036  1.0000
  H   H242      1.0  0.87128  0.95304  0.39903  1.0000
  H   H243      1.0  0.7513900000000002  0.77639  0.43571  1.0000
  H   H244      1.0  0.76392  0.80162  0.39048999999999995  1.0000
  H   H245      1.0  0.70148  0.73607  0.3619899999999999  1.0000
  H   H246      1.0  0.9136099999999999  0.3643  0.9379199999999999  1.0000
  H   H247      1.0  0.88111  0.28651  0.95963  1.0000
  H   H248      1.0  0.026839999999999923  0.3995899999999998  0.12958  1.0000
  H   H249      1.0  0.05402999999999997  0.47227  0.10098  1.0000
  H   H250      1.0  0.90467  0.369  0.0992  1.0000
  H   H251      1.0  0.88392  0.34735  0.14372  1.0000
  H   H252      1.0  0.8362099999999998  0.31093999999999994  0.06991  1.0000
  H   H253      1.0  0.061929999999999985  0.13531999999999994  0.08642  1.0000
  H   H254      1.0  0.04019999999999997  0.21302  0.11944  1.0000
  H   H255      1.0  0.87052  0.10069999999999987  0.9730999999999997  1.0000
  H   H256      1.0  0.89886  0.027809999999999988  0.9459099999999999  1.0000
  H   H257      1.0  0.90329  0.18865  0.16141  1.0000
  H   H258      1.0  0.9273499999999999  0.15117  0.12095  1.0000
  H   H259      1.0  0.85457  0.13169  0.09107  1.0000
  H   H260      1.0  0.438  0.52446  0.07368  1.0000
  H   H261      1.0  0.45952  0.57875  0.1731  1.0000
  H   H262      1.0  0.62959  0.6030199999999998  0.23039  1.0000
  H   H263      1.0  0.60118  0.54737  0.12916  1.0000
  H   H264      1.0  0.63695  0.72097  0.26205  1.0000
  H   H265      1.0  0.61194  0.76408  0.29317  1.0000
  H   H266      1.0  0.56386  0.69879  0.22709  1.0000
  H   H267      1.0  0.9506799999999997  0.3643  0.42633  1.0000
  H   H268      1.0  0.90549  0.2864300000000001  0.32684  1.0000
  H   H269      1.0  0.873  0.3994699999999999  0.26975  1.0000
  H   H270      1.0  0.9182699999999999  0.4721399999999999  0.37100999999999995  1.0000
  H   H271      1.0  0.97152  0.31724  0.20822  1.0000
  H   H272      1.0  0.97138  0.33897999999999995  0.27401  1.0000
  H   H273      1.0  0.9594499999999999  0.3743  0.23551  1.0000
  H   H274      1.0  0.54898  0.97545  0.41353  1.0000
  H   H275      1.0  0.59395  0.92098  0.38069  1.0000
  H   H276      1.0  0.62772  0.89745  0.52692  1.0000
  H   H277      1.0  0.5819199999999999  0.9529  0.55405  1.0000
  H   H278      1.0  0.54004  0.76617  0.41019  1.0000
  H   H279      1.0  0.52749  0.7407399999999998  0.33982  1.0000
  H   H280      1.0  0.53  0.80615  0.3765  1.0000
  H   H281      1.0  0.13563  0.5865  0.56194  1.0000
  H   H282      1.0  0.21344  0.61936  0.54035  1.0000
  H   H283      1.0  0.10083999999999997  0.4733299999999999  0.37044999999999995  1.0000
  H   H284      1.0  0.028019999999999965  0.44614  0.39882999999999996  1.0000
  H   H285      1.0  0.17872999999999994  0.64917  0.38431  1.0000
  H   H286      1.0  0.1661199999999999  0.6384  0.4375399999999999  1.0000
  H   H287      1.0  0.12404000000000001  0.58312  0.36599  1.0000
  H   H288      1.0  0.5244399999999998  0.5736799999999997  0.9380399999999998  1.0000
  H   H289      1.0  0.57853  0.67315  0.95961  1.0000
  H   H290      1.0  0.6027599999999999  0.73023  0.12961  1.0000
  H   H291      1.0  0.54722  0.6289399999999999  0.10115  1.0000
  H   H292      1.0  0.73702  0.77677  0.14527  1.0000
  H   H293      1.0  0.75754  0.78494  0.09588  1.0000
  H   H294      1.0  0.69309  0.72377  0.07254  1.0000
  H   H295      1.0  0.3644799999999999  0.9264700000000001  0.45098  1.0000
  H   H296      1.0  0.28659  0.82702  0.40585  1.0000
  H   H297      1.0  0.39918  0.76971  0.37239999999999995  1.0000
  H   H298      1.0  0.47212  0.8709799999999998  0.41821  1.0000
  H   H299      1.0  0.37161  0.72881  0.45924  1.0000
  H   H300      1.0  0.31391  0.71134  0.47209  1.0000
  H   H301      1.0  0.34425999999999995  0.7756199999999999  0.47043999999999997  1.0000
  H   H302      1.0  0.9754799999999999  0.9134899999999998  0.04906  1.0000
  H   H303      1.0  0.92094  0.8805499999999998  0.09392  1.0000
  H   H304      1.0  0.89705  0.026589999999999992  0.12744  1.0000
  H   H305      1.0  0.9526800000000001  0.05384  0.08185  1.0000
  H   H306      1.0  0.73626  0.84661  0.02876  1.0000
  H   H307      1.0  0.80194  0.86634  0.02847  1.0000
  H   H308      1.0  0.7773299999999999  0.9152599999999997  0.04066  1.0000
  H   H309      1.0  0.58655  0.06192000000000001  0.63555  1.0000
  H   H310      1.0  0.61958  0.040150000000000026  0.7132  1.0000
  H   H311      1.0  0.47304  0.87056  0.60085  1.0000
  H   H312      1.0  0.4460499999999999  0.8989099999999998  0.52795  1.0000
  H   H313      1.0  0.63571  0.8700899999999999  0.6682399999999998  1.0000
  H   H314      1.0  0.65189  0.9389100000000001  0.67776  1.0000
  H   H315      1.0  0.58415  0.88002  0.6238  1.0000
  H   H316      1.0  0.57354  0.43802  0.02446  1.0000
  H   H317      1.0  0.67298  0.45950999999999986  0.07866999999999999  1.0000
  H   H318      1.0  0.73032  0.62946  0.10271  1.0000
  H   H319      1.0  0.62906  0.60115  0.04728  1.0000
  H   H320      1.0  0.77509  0.64448  0.23444  1.0000
  H   H321      1.0  0.78655  0.59859  0.2591  1.0000
  H   H322      1.0  0.72395  0.57105  0.19388  1.0000
  H   H323      1.0  0.92631  0.95075  0.86432  1.0000
  H   H324      1.0  0.8268399999999999  0.90561  0.7864599999999999  1.0000
  H   H325      1.0  0.76967  0.8726999999999998  0.89931  1.0000
  H   H326      1.0  0.87094  0.9182299999999998  0.9720899999999999  1.0000
  H   H327      1.0  0.77306  0.9715  0.83691  1.0000
  H   H328      1.0  0.73813  0.95944  0.87519  1.0000
  H   H329      1.0  0.70711  0.971  0.8186999999999998  1.0000
  H   H330      1.0  0.9135299999999998  0.54909  0.47547  1.0000
  H   H331      1.0  0.8807800000000001  0.59418  0.42114  1.0000
  H   H332      1.0  0.0269  0.6277  0.39739  1.0000
  H   H333      1.0  0.05398999999999998  0.58187  0.45278999999999997  1.0000
  H   H334      1.0  0.87778  0.5302199999999999  0.3064799999999999  1.0000
  H   H335      1.0  0.9091600000000001  0.53994  0.26463  1.0000
  H   H336      1.0  0.8388999999999999  0.5272499999999998  0.24144999999999994  1.0000
  H   H337      1.0  0.97896  0.22609  0.51723  1.0000
  H   H338      1.0  0.04346999999999999  0.25538  0.51745  1.0000
  H   H339      1.0  0.003670000000000014  0.29122  0.51636  1.0000
  H   H340      1.0  0.50211  0.018800000000000004  0.29061  1.0000
  H   H341      1.0  0.51685  0.03396  0.24022  1.0000
  H   H342      1.0  0.45444000000000007  0.97198  0.21651  1.0000
  H   H343      1.0  0.2757  0.4896599999999999  0.98363  1.0000
  H   H344      1.0  0.21004999999999988  0.4601799999999999  0.98264  1.0000
  H   H345      1.0  0.2351899999999999  0.5248099999999998  0.9823099999999998  1.0000
  H   H346      1.0  0.28597  0.2685  0.24287  1.0000
  H   H347      1.0  0.27109  0.25354  0.29249  1.0000
  H   H348      1.0  0.22246999999999997  0.20623999999999995  0.21818  1.0000
  H   H349      1.0  0.75287  0.29124  0.77382  1.0000
  H   H350      1.0  0.78809  0.26216  0.74453  1.0000
  H   H351      1.0  0.7124599999999999  0.2252399999999999  0.7087  1.0000
  H   H352      1.0  0.48254  0.21405999999999994  0.95691  1.0000
  H   H353      1.0  0.48245  0.22893999999999998  0.0214  1.0000
  H   H354      1.0  0.48375  0.27754  0.9957  1.0000
  H   H355      1.0  0.78602  0.4940199999999999  0.5103  1.0000
  H   H356      1.0  0.74984  0.5225  0.53978  1.0000
  H   H357      1.0  0.71034  0.45753  0.47516  1.0000
  H   H358      1.0  0.01658000000000002  0.9978299999999999  0.78844  1.0000
  H   H359      1.0  0.01699999999999992  0.98312  0.7233099999999999  1.0000
  H   H360      1.0  0.017400000000000002  0.045489999999999975  0.76202  1.0000
  H   H361      1.0  0.52197  0.48229999999999995  0.7297899999999999  1.0000
  H   H362      1.0  0.49479999999999996  0.48382999999999987  0.77728  1.0000
  H   H363      1.0  0.45745  0.4826699999999998  0.7133499999999999  1.0000
  H   H364      1.0  0.27879999999999994  0.7718799999999998  0.79528  1.0000
  H   H365      1.0  0.22487999999999989  0.7712799999999997  0.74213  1.0000
  H   H366      1.0  0.21864  0.70604  0.73586  1.0000
  H   H367      1.0  0.26101  0.01737  0.54524  1.0000
  H   H368      1.0  0.28911  0.01667999999999995  0.4988599999999999  1.0000
  H   H369      1.0  0.22384000000000004  0.01716000000000001  0.48249  1.0000
  H   H370      1.0  0.023539999999999985  0.72814  0.00682  1.0000
  H   H371      1.0  0.97096  0.72873  0.95349  1.0000
  H   H372      1.0  0.029949999999999942  0.7939799999999998  0.01251  1.0000
  H   H373      1.0  0.02594999999999999  0.73787  0.4824199999999999  1.0000
  H   H374      1.0  0.96165  0.70879  0.48262  1.0000
  H   H375      1.0  0.98724  0.77478  0.4835  1.0000
  H   H376      1.0  0.53392  0.01686999999999998  0.74021  1.0000
  H   H377      1.0  0.51876  0.0021499999999999952  0.79062  1.0000
  H   H378      1.0  0.47191999999999995  0.9544799999999999  0.71653  1.0000
  H   H379      1.0  0.7273300000000001  0.47749  0.01725  1.0000
  H   H380      1.0  0.79198  0.50597  0.01625  1.0000
  H   H381      1.0  0.75278  0.54244  0.0176  1.0000
  H   H382      1.0  0.75349  0.7711  0.79248  1.0000
  H   H383      1.0  0.7684699999999998  0.78598  0.7428599999999999  1.0000
  H   H384      1.0  0.7061799999999999  0.7224799999999998  0.7181599999999999  1.0000
  H   H385      1.0  0.28809  0.7446  0.26209  1.0000
  H   H386      1.0  0.25286  0.77389  0.29116  1.0000
  H   H387      1.0  0.21245  0.70876  0.22516  1.0000
  H   H388      1.0  0.5175  0.7464299999999998  0.03892  1.0000
  H   H389      1.0  0.51741  0.7314699999999997  0.97435  1.0000
  H   H390      1.0  0.51618  0.79372  0.011909999999999999  1.0000
  H   H391      1.0  0.24986  0.53984  0.52244  1.0000
  H   H392      1.0  0.28605  0.51036  0.49396  1.0000
  H   H393      1.0  0.21035999999999996  0.4752  0.45748  1.0000
  H   H394      1.0  0.9829299999999999  0.9660699999999999  0.20628999999999995  1.0000
  H   H395      1.0  0.9833499999999998  0.9812299999999998  0.27184  1.0000
  H   H396      1.0  0.98251  0.02803999999999999  0.24457  1.0000
  H   H397      1.0  0.51097  0.5161800000000001  0.29345  1.0000
  H   H398      1.0  0.53967  0.5177  0.24747999999999995  1.0000
  H   H399      1.0  0.47478999999999993  0.51732  0.23066999999999993  1.0000
  H   H400      1.0  0.77513  0.22873999999999994  0.25765  1.0000
  H   H401      1.0  0.7212  0.22820999999999994  0.20455999999999996  1.0000
  H   H402      1.0  0.7814399999999999  0.29401  0.26393  1.0000
  H   H403      1.0  0.7724399999999999  0.9833199999999997  0.48218999999999995  1.0000
  H   H404      1.0  0.74366  0.98264  0.52787  1.0000
  H   H405      1.0  0.70669  0.9828399999999998  0.46531999999999996  1.0000
  H   H406      1.0  0.9535999999999997  0.22872999999999988  0.9708399999999999  1.0000
  H   H407      1.0  0.006929999999999976  0.22811999999999993  0.0234  1.0000
  H   H408      1.0  0.012610000000000005  0.29397  0.02983  1.0000
  C   C1        1.0  0.97964  0.10962  0.54197  1.0000
  C   C2        1.0  0.99203  0.16506  0.57249  1.0000
  C   C3        1.0  0.04683999999999994  0.21108  0.59591  1.0000
  C   C4        1.0  0.08651000000000002  0.19695000000000001  0.58604  1.0000
  C   C5        1.0  0.07093000000000002  0.14048999999999995  0.5549  1.0000
  C   C6        1.0  0.06228999999999999  0.27133999999999997  0.62829  1.0000
  C   C7        1.0  0.0908299999999999  0.3005599999999999  0.6882299999999998  1.0000
  C   C8        1.0  0.1016  0.26953  0.72023  1.0000
  C   C9        1.0  0.52032  0.06244  0.12998  1.0000
  C   C10       1.0  0.50787  0.08071  0.17295  1.0000
  C   C11       1.0  0.4530699999999999  0.04937999999999999  0.16422  1.0000
  C   C12       1.0  0.4133899999999999  0.9998199999999999  0.11042  1.0000
  C   C13       1.0  0.42902  0.98416  0.06961  1.0000
  C   C14       1.0  0.43776  0.06621999999999997  0.20915999999999998  1.0000
  C   C15       1.0  0.40902999999999995  0.09751999999999995  0.20976999999999998  1.0000
  C   C16       1.0  0.39858  0.11865  0.16784  1.0000
  C   C17       1.0  0.06764999999999992  0.4375999999999998  0.9578999999999999  1.0000
  C   C18       1.0  0.09243999999999998  0.41938999999999993  0.92725  1.0000
  C   C19       1.0  0.11499999999999994  0.45072999999999996  0.9037899999999999  1.0000
  C   C20       1.0  0.11073999999999999  0.50029  0.91366  1.0000
  C   C21       1.0  0.08553999999999998  0.51591  0.94493  1.0000
  C   C22       1.0  0.14301999999999995  0.43386999999999987  0.87154  1.0000
  C   C23       1.0  0.11225999999999987  0.4024999999999999  0.8115899999999998  1.0000
  C   C24       1.0  0.04923000000000001  0.38167999999999996  0.78025  1.0000
  C   C25       1.0  0.43211999999999995  0.39028999999999997  0.36994  1.0000
  C   C26       1.0  0.40707  0.3348  0.32689  1.0000
  C   C27       1.0  0.38472999999999996  0.28887  0.33585  1.0000
  C   C28       1.0  0.38916999999999996  0.3031  0.38973999999999986  1.0000
  C   C29       1.0  0.41443  0.35957  0.43052  1.0000
  C   C30       1.0  0.3569  0.22850999999999996  0.29125  1.0000
  C   C31       1.0  0.38759  0.1992  0.29068  1.0000
  C   C32       1.0  0.45080999999999993  0.23021  0.33188  1.0000
  C   C33       1.0  0.8699999999999999  0.4322899999999999  0.89033  1.0000
  C   C34       1.0  0.82699  0.40741  0.83488  1.0000
  C   C35       1.0  0.83579  0.38482  0.78887  1.0000
  C   C36       1.0  0.8895799999999999  0.38903  0.80302  1.0000
  C   C37       1.0  0.93043  0.41433  0.85949  1.0000
  C   C38       1.0  0.79102  0.35705  0.72859  1.0000
  C   C39       1.0  0.79035  0.38778999999999997  0.6993799999999999  1.0000
  C   C40       1.0  0.8318099999999999  0.4509399999999999  0.7304  1.0000
  C   C41       1.0  0.4580299999999998  0.06779999999999994  0.9376799999999998  1.0000
  C   C42       1.0  0.42746000000000006  0.0927  0.91957  1.0000
  C   C43       1.0  0.40385  0.11504999999999994  0.9508399999999999  1.0000
  C   C44       1.0  0.41361  0.11060999999999997  0.0003  1.0000
  C   C45       1.0  0.4449499999999999  0.08548999999999997  0.01593  1.0000
  C   C46       1.0  0.37155999999999995  0.14310999999999996  0.9342099999999999  1.0000
  C   C47       1.0  0.3116  0.11239000000000003  0.90287  1.0000
  C   C48       1.0  0.28013  0.04926999999999995  0.8816299999999999  1.0000
  C   C49       1.0  0.63002  0.52038  0.5623  1.0000
  C   C50       1.0  0.6730799999999999  0.508  0.58039  1.0000
  C   C51       1.0  0.6643  0.45318999999999987  0.54909  1.0000
  C   C52       1.0  0.61047  0.4134899999999999  0.49955  1.0000
  C   C53       1.0  0.5696100000000001  0.4290899999999999  0.48399999999999993  1.0000
  C   C54       1.0  0.70914  0.4377799999999999  0.56613  1.0000
  C   C55       1.0  0.70991  0.40933  0.59764  1.0000
  C   C56       1.0  0.66822  0.39845999999999987  0.6189999999999999  1.0000
  C   C57       1.0  0.042210000000000004  0.9797399999999999  0.60966  1.0000
  C   C58       1.0  0.07303999999999991  0.9922899999999998  0.66511  1.0000
  C   C59       1.0  0.09614999999999996  0.046959999999999884  0.71109  1.0000
  C   C60       1.0  0.08602999999999997  0.08653999999999995  0.69695  1.0000
  C   C61       1.0  0.0549  0.07092000000000001  0.64048  1.0000
  C   C62       1.0  0.12833000000000006  0.06236999999999999  0.77138  1.0000
  C   C63       1.0  0.18834999999999993  0.09129999999999991  0.8007499999999999  1.0000
  C   C64       1.0  0.21971999999999994  0.10159999999999994  0.7690399999999998  1.0000
  C   C65       1.0  0.4376399999999999  0.4579999999999999  0.56775  1.0000
  C   C66       1.0  0.4194899999999998  0.4274399999999999  0.59265  1.0000
  C   C67       1.0  0.4507299999999999  0.40383999999999987  0.61504  1.0000
  C   C68       1.0  0.50023  0.41359  0.61065  1.0000
  C   C69       1.0  0.51588  0.4449  0.58551  1.0000
  C   C70       1.0  0.4339  0.37159  0.64307  1.0000
  C   C71       1.0  0.40241999999999994  0.31160999999999994  0.6123099999999999  1.0000
  C   C72       1.0  0.38152  0.28006  0.5493  1.0000
  C   C73       1.0  0.39057  0.8703099999999999  0.9326799999999998  1.0000
  C   C74       1.0  0.33516  0.8273899999999998  0.90808  1.0000
  C   C75       1.0  0.28912  0.83612  0.88526  1.0000
  C   C76       1.0  0.3031899999999999  0.88978  0.8892899999999999  1.0000
  C   C77       1.0  0.35965  0.9306199999999999  0.9145099999999999  1.0000
  C   C78       1.0  0.22887999999999994  0.7910599999999998  0.85712  1.0000
  C   C79       1.0  0.19951000000000002  0.79021  0.88777  1.0000
  C   C80       1.0  0.23010999999999998  0.83185  0.9508  1.0000
  C   C81       1.0  0.10959  0.04201999999999999  0.47971  1.0000
  C   C82       1.0  0.16501999999999994  0.07263999999999994  0.49214999999999987  1.0000
  C   C83       1.0  0.21105  0.09597  0.54694  1.0000
  C   C84       1.0  0.19692000000000004  0.08596999999999995  0.58653  1.0000
  C   C85       1.0  0.14045  0.05481  0.57094  1.0000
  C   C86       1.0  0.27133  0.12835999999999997  0.56241  1.0000
  C   C87       1.0  0.30058  0.18831999999999996  0.59104  1.0000
  C   C88       1.0  0.2695399999999999  0.22041  0.60148  1.0000
  C   C89       1.0  0.06250999999999998  0.62979  0.0202  1.0000
  C   C90       1.0  0.08089000000000002  0.67265  0.00766  1.0000
  C   C91       1.0  0.04943000000000001  0.66393  0.95289  1.0000
  C   C92       1.0  0.9997699999999999  0.6102399999999998  0.9133  1.0000
  C   C93       1.0  0.9840700000000001  0.56947  0.92898  1.0000
  C   C94       1.0  0.06620000000000004  0.709  0.93772  1.0000
  C   C95       1.0  0.09765  0.70976  0.9091499999999999  1.0000
  C   C96       1.0  0.11875999999999995  0.66781  0.89863  1.0000
  C   C97       1.0  0.97962  0.8698699999999998  0.93769  1.0000
  C   C98       1.0  0.99225  0.82696  0.9196  1.0000
  C   C99       1.0  0.04713999999999994  0.8360199999999998  0.95083  1.0000
  C   C100      1.0  0.08676000000000003  0.8899799999999999  0.00034  1.0000
  C   C101      1.0  0.07089  0.93057  0.01595  1.0000
  C   C102      1.0  0.06304999999999998  0.79149  0.93444  1.0000
  C   C103      1.0  0.09207999999999998  0.7910399999999999  0.90344  1.0000
  C   C104      1.0  0.10195999999999994  0.8325399999999998  0.88171  1.0000
  C   C105      1.0  0.52028  0.45798999999999995  0.8905599999999999  1.0000
  C   C106      1.0  0.50763  0.42707  0.83508  1.0000
  C   C107      1.0  0.4527999999999999  0.4037899999999999  0.78922  1.0000
  C   C108      1.0  0.4133  0.41392  0.80346  1.0000
  C   C109      1.0  0.42909  0.44531  0.85992  1.0000
  C   C110      1.0  0.43714  0.37160999999999994  0.72883  1.0000
  C   C111      1.0  0.40809  0.31152  0.69922  1.0000
  C   C112      1.0  0.39805  0.27908  0.73008  1.0000
  C   C113      1.0  0.06788999999999992  0.6300499999999998  0.60959  1.0000
  C   C114      1.0  0.09281999999999992  0.6730199999999997  0.66512  1.0000
  C   C115      1.0  0.11504999999999999  0.66396  0.71093  1.0000
  C   C116      1.0  0.11058000000000005  0.61002  0.69664  1.0000
  C   C117      1.0  0.08546999999999991  0.5693499999999998  0.6401799999999999  1.0000
  C   C118      1.0  0.14301999999999992  0.7084799999999999  0.7713599999999999  1.0000
  C   C119      1.0  0.11247999999999998  0.70893  0.80084  1.0000
  C   C120      1.0  0.049209999999999976  0.6677899999999998  0.76991  1.0000
  C   C121      1.0  0.43244  0.04200999999999999  0.56237  1.0000
  C   C122      1.0  0.40784  0.0729  0.58061  1.0000
  C   C123      1.0  0.38553  0.09645  0.54932  1.0000
  C   C124      1.0  0.38985  0.08652000000000001  0.49975  1.0000
  C   C125      1.0  0.41475  0.05497999999999994  0.48405999999999993  1.0000
  C   C126      1.0  0.35716  0.12847999999999996  0.56573  1.0000
  C   C127      1.0  0.38769  0.18858999999999992  0.59689  1.0000
  C   C128      1.0  0.45088  0.22044  0.61848  1.0000
  C   C129      1.0  0.87023  0.43772  0.4796699999999999  1.0000
  C   C130      1.0  0.82739  0.41952  0.49232  1.0000
  C   C131      1.0  0.83638  0.4509399999999999  0.54716  1.0000
  C   C132      1.0  0.8901900000000001  0.50054  0.58671  1.0000
  C   C133      1.0  0.9308100000000001  0.51615  0.57087  1.0000
  C   C134      1.0  0.79166  0.43445999999999996  0.56284  1.0000
  C   C135      1.0  0.79101  0.4033099999999999  0.59179  1.0000
  C   C136      1.0  0.8318499999999999  0.38084  0.60193  1.0000
  C   C137      1.0  0.45783  0.39055  0.0203  1.0000
  C   C138      1.0  0.42679  0.3351  0.00766  1.0000
  C   C139      1.0  0.40349  0.28917  0.95291  1.0000
  C   C140      1.0  0.41359  0.30332  0.91332  1.0000
  C   C141      1.0  0.4450700000000001  0.35975999999999997  0.9290899999999999  1.0000
  C   C142      1.0  0.37158  0.22884999999999986  0.9375599999999998  1.0000
  C   C143      1.0  0.31149  0.19933  0.90871  1.0000
  C   C144      1.0  0.2798199999999999  0.23079999999999998  0.89834  1.0000
  C   C145      1.0  0.62984  0.10953999999999996  0.56748  1.0000
  C   C146      1.0  0.6726500000000001  0.16504000000000005  0.59199  1.0000
  C   C147      1.0  0.6636700000000001  0.21089  0.61439  1.0000
  C   C148      1.0  0.6098300000000001  0.19663999999999998  0.61019  1.0000
  C   C149      1.0  0.56925  0.14019000000000004  0.5853  1.0000
  C   C150      1.0  0.70844  0.27131  0.64276  1.0000
  C   C151      1.0  0.70905  0.30095  0.61228  1.0000
  C   C152      1.0  0.66773  0.26971  0.54902  1.0000
  C   C153      1.0  0.04187999999999999  0.06224  0.93237  1.0000
  C   C154      1.0  0.0726699999999999  0.08038999999999985  0.9076499999999997  1.0000
  C   C155      1.0  0.09608999999999991  0.0489599999999999  0.8852499999999998  1.0000
  C   C156      1.0  0.08608999999999999  0.99937  0.88952  1.0000
  C   C157      1.0  0.05468  0.98381  0.91458  1.0000
  C   C158      1.0  0.12834  0.06541999999999999  0.85707  1.0000
  C   C159      1.0  0.18837000000000004  0.09657999999999994  0.8875899999999999  1.0000
  C   C160      1.0  0.22077  0.11866000000000002  0.95085  1.0000
  C   C161      1.0  0.43779  0.9796299999999999  0.3701  1.0000
  C   C162      1.0  0.41965999999999987  0.9921799999999997  0.32718  1.0000
  C   C163      1.0  0.45086  0.047130000000000005  0.33625  1.0000
  C   C164      1.0  0.50032  0.08677999999999995  0.39013  1.0000
  C   C165      1.0  0.51605  0.07093999999999998  0.43072999999999995  1.0000
  C   C166      1.0  0.4343  0.06276  0.29151  1.0000
  C   C167      1.0  0.40284  0.09134  0.29064  1.0000
  C   C168      1.0  0.38067  0.10171999999999996  0.33172  1.0000
  C   C169      1.0  0.39046000000000003  0.52026  0.95789  1.0000
  C   C170      1.0  0.3349599999999998  0.5075499999999998  0.9268599999999999  1.0000
  C   C171      1.0  0.28911999999999993  0.45271999999999996  0.9034799999999998  1.0000
  C   C172      1.0  0.30339  0.4131899999999999  0.91356  1.0000
  C   C173      1.0  0.35984999999999984  0.42905999999999983  0.9451199999999998  1.0000
  C   C174      1.0  0.2286899999999999  0.43702999999999986  0.8715  1.0000
  C   C175      1.0  0.19905000000000003  0.4079  0.81141  1.0000
  C   C176      1.0  0.23053  0.39798  0.77963  1.0000
  C   C177      1.0  0.10939  0.06735  0.1297  1.0000
  C   C178      1.0  0.16486  0.09191  0.17254  1.0000
  C   C179      1.0  0.21078  0.11455  0.16369  1.0000
  C   C180      1.0  0.19659999999999997  0.1105  0.10996  1.0000
  C   C181      1.0  0.14014  0.08539  0.06926  1.0000
  C   C182      1.0  0.27109999999999995  0.14272999999999997  0.20859  1.0000
  C   C183      1.0  0.3007  0.11222  0.20925  1.0000
  C   C184      1.0  0.27002  0.04902  0.16799  1.0000
  C   C185      1.0  0.06241999999999999  0.43258999999999986  0.54208  1.0000
  C   C186      1.0  0.08071  0.40805  0.57303  1.0000
  C   C187      1.0  0.049320000000000024  0.38563  0.59646  1.0000
  C   C188      1.0  0.9997199999999999  0.38987999999999995  0.58648  1.0000
  C   C189      1.0  0.98402  0.4147699999999999  0.55493  1.0000
  C   C190      1.0  0.06564  0.35716  0.62838  1.0000
  C   C191      1.0  0.09671999999999999  0.38765999999999995  0.6885  1.0000
  C   C192      1.0  0.11834000000000001  0.45085999999999987  0.72031  1.0000
  C   C193      1.0  0.020289999999999954  0.8904599999999997  0.45794999999999997  1.0000
  C   C194      1.0  0.007619999999999934  0.8349599999999998  0.42696999999999996  1.0000
  C   C195      1.0  0.9527799999999998  0.7890999999999998  0.4035099999999999  1.0000
  C   C196      1.0  0.9131999999999999  0.8033499999999998  0.4135599999999999  1.0000
  C   C197      1.0  0.9290500000000003  0.8598  0.44509999999999994  1.0000
  C   C198      1.0  0.93715  0.7286899999999997  0.37147  1.0000
  C   C199      1.0  0.9081099999999996  0.69904  0.31134  1.0000
  C   C200      1.0  0.89803  0.7302799999999999  0.27933  1.0000
  C   C201      1.0  0.47963999999999996  0.93776  0.8701199999999999  1.0000
  C   C202      1.0  0.49229999999999996  0.91961  0.8272599999999999  1.0000
  C   C203      1.0  0.5471399999999998  0.9510399999999998  0.83629  1.0000
  C   C204      1.0  0.5867099999999998  0.0006100000000000142  0.89014  1.0000
  C   C205      1.0  0.5708699999999999  0.016169999999999966  0.9307599999999999  1.0000
  C   C206      1.0  0.56292  0.9345799999999997  0.79166  1.0000
  C   C207      1.0  0.59179  0.90343  0.7910099999999999  1.0000
  C   C208      1.0  0.6021  0.88135  0.83218  1.0000
  C   C209      1.0  0.93249  0.56226  0.04192  1.0000
  C   C210      1.0  0.90787  0.58049  0.07279  1.0000
  C   C211      1.0  0.88545  0.54906  0.09621999999999999  1.0000
  C   C212      1.0  0.88964  0.4994599999999999  0.08618  1.0000
  C   C213      1.0  0.91465  0.48382999999999987  0.05472  1.0000
  C   C214      1.0  0.85721  0.56555  0.12839  1.0000
  C   C215      1.0  0.8877099999999998  0.5966999999999998  0.1885  1.0000
  C   C216      1.0  0.95103  0.61917  0.22111  1.0000
  C   C217      1.0  0.56728  0.60945  0.62975  1.0000
  C   C218      1.0  0.59166  0.6649  0.67254  1.0000
  C   C219      1.0  0.61431  0.71083  0.66373  1.0000
  C   C220      1.0  0.61024  0.69668  0.6099799999999999  1.0000
  C   C221      1.0  0.5853  0.64023  0.56932  1.0000
  C   C222      1.0  0.6427099999999999  0.7711499999999999  0.7087  1.0000
  C   C223      1.0  0.61214  0.80067  0.70937  1.0000
  C   C224      1.0  0.54899  0.7691899999999999  0.66751  1.0000
  C   C225      1.0  0.12982  0.5674  0.10948  1.0000
  C   C226      1.0  0.17263999999999993  0.5919299999999997  0.16498  1.0000
  C   C227      1.0  0.16368  0.6143599999999999  0.21082  1.0000
  C   C228      1.0  0.10982999999999993  0.6101  0.19659  1.0000
  C   C229      1.0  0.06924  0.5852099999999999  0.14015  1.0000
  C   C230      1.0  0.20847999999999994  0.6428299999999998  0.27123  1.0000
  C   C231      1.0  0.20906  0.61233  0.30083  1.0000
  C   C232      1.0  0.16747000000000004  0.54913  0.26944  1.0000
  C   C233      1.0  0.54202  0.9326199999999998  0.06234999999999999  1.0000
  C   C234      1.0  0.5729399999999998  0.9080699999999998  0.08063  1.0000
  C   C235      1.0  0.5962199999999999  0.8854299999999998  0.04912999999999999  1.0000
  C   C236      1.0  0.5861  0.8894899999999999  0.99946  1.0000
  C   C237      1.0  0.55474  0.9146  0.98387  1.0000
  C   C238      1.0  0.6283599999999999  0.8572499999999997  0.06585  1.0000
  C   C239      1.0  0.6884699999999999  0.8877699999999997  0.09702999999999999  1.0000
  C   C240      1.0  0.7209899999999999  0.95097  0.11895999999999998  1.0000
  C   C241      1.0  0.37017999999999995  0.47974  0.43761999999999995  1.0000
  C   C242      1.0  0.3274099999999999  0.4924699999999999  0.41931  1.0000
  C   C243      1.0  0.3363900000000001  0.54729  0.45075999999999994  1.0000
  C   C244      1.0  0.39022  0.58683  0.50038  1.0000
  C   C245      1.0  0.43078  0.57094  0.51605  1.0000
  C   C246      1.0  0.29167  0.56299  0.43449  1.0000
  C   C247      1.0  0.29116  0.59211  0.40351999999999993  1.0000
  C   C248      1.0  0.33254999999999996  0.60203  0.38164999999999993  1.0000
  C   C249      1.0  0.9581799999999999  0.02038000000000002  0.3905  1.0000
  C   C250      1.0  0.9274999999999999  0.007839999999999988  0.33502  1.0000
  C   C251      1.0  0.90374  0.95288  0.28913  1.0000
  C   C252      1.0  0.91355  0.91323  0.30336  1.0000
  C   C253      1.0  0.94511  0.9290499999999996  0.35979999999999995  1.0000
  C   C254      1.0  0.87155  0.93726  0.22877  1.0000
  C   C255      1.0  0.81149  0.90866  0.1993  1.0000
  C   C256      1.0  0.77894  0.89828  0.22997999999999996  1.0000
  C   C257      1.0  0.56231  0.5420199999999998  0.43256999999999995  1.0000
  C   C258      1.0  0.5805599999999997  0.5729399999999999  0.4080099999999999  1.0000
  C   C259      1.0  0.54902  0.59622  0.38542999999999994  1.0000
  C   C260      1.0  0.49937  0.58609  0.38954  1.0000
  C   C261      1.0  0.48379000000000005  0.5547  0.41462  1.0000
  C   C262      1.0  0.56553  0.6284  0.35722  1.0000
  C   C263      1.0  0.59657  0.68849  0.38771  1.0000
  C   C264      1.0  0.6189699999999999  0.7209499999999998  0.45103  1.0000
  C   C265      1.0  0.6095699999999998  0.12982  0.06735  1.0000
  C   C266      1.0  0.66505  0.1726  0.09175999999999998  1.0000
  C   C267      1.0  0.7110000000000001  0.16381  0.11454  1.0000
  C   C268      1.0  0.69678  0.11009999999999999  0.11057  1.0000
  C   C269      1.0  0.6403  0.06939999999999999  0.08545999999999998  1.0000
  C   C270      1.0  0.77136  0.20865  0.14278  1.0000
  C   C271      1.0  0.80094  0.20907  0.11227999999999999  1.0000
  C   C272      1.0  0.76938  0.16749999999999995  0.04905  1.0000
  C   C273      1.0  0.8904400000000002  0.958  0.52036  1.0000
  C   C274      1.0  0.83494  0.92711  0.50772  1.0000
  C   C275      1.0  0.78909  0.90356  0.45288  1.0000
  C   C276      1.0  0.80333  0.9134899999999999  0.41324  1.0000
  C   C277      1.0  0.8597799999999999  0.94503  0.42908999999999997  1.0000
  C   C278      1.0  0.72869  0.87154  0.43726  1.0000
  C   C279      1.0  0.6991  0.81143  0.40831  1.0000
  C   C280      1.0  0.73043  0.77958  0.39806  1.0000
  C   C281      1.0  0.93784  0.36992999999999987  0.9795499999999999  1.0000
  C   C282      1.0  0.9198100000000001  0.3269599999999998  0.9920999999999998  1.0000
  C   C283      1.0  0.9510799999999998  0.3360199999999999  0.04698  1.0000
  C   C284      1.0  0.0005499999999999975  0.38997  0.08662999999999998  1.0000
  C   C285      1.0  0.016099999999999958  0.4306299999999999  0.07083  1.0000
  C   C286      1.0  0.93456  0.29152  0.0629  1.0000
  C   C287      1.0  0.90357  0.29107  0.09192  1.0000
  C   C288      1.0  0.88145  0.3322  0.10213  1.0000
  C   C289      1.0  0.02025  0.1297  0.06237999999999999  1.0000
  C   C290      1.0  0.007759999999999987  0.17260999999999999  0.08069  1.0000
  C   C291      1.0  0.953  0.1639  0.04915  1.0000
  C   C292      1.0  0.91342  0.11023000000000001  0.9995  1.0000
  C   C293      1.0  0.92904  0.06940000000000003  0.9839  1.0000
  C   C294      1.0  0.93782  0.20894  0.06606  1.0000
  C   C295      1.0  0.90932  0.2098  0.09757  1.0000
  C   C296      1.0  0.89829  0.16817999999999994  0.11897  1.0000
  C   C297      1.0  0.47964999999999997  0.542  0.10975  1.0000
  C   C298      1.0  0.49204999999999993  0.57255  0.1652  1.0000
  C   C299      1.0  0.54689  0.5961599999999999  0.2112  1.0000
  C   C300      1.0  0.58663  0.58641  0.19706  1.0000
  C   C301      1.0  0.57099  0.55511  0.14062  1.0000
  C   C302      1.0  0.5623  0.62841  0.27147  1.0000
  C   C303      1.0  0.5908099999999998  0.6883899999999997  0.30071  1.0000
  C   C304      1.0  0.6014499999999999  0.71993  0.26925  1.0000
  C   C305      1.0  0.9322699999999999  0.36994  0.39028  1.0000
  C   C306      1.0  0.9074  0.32694  0.3348  1.0000
  C   C307      1.0  0.8852499999999999  0.3359399999999999  0.28888  1.0000
  C   C308      1.0  0.88976  0.38987999999999995  0.30308  1.0000
  C   C309      1.0  0.9146899999999999  0.43054  0.35952  1.0000
  C   C310      1.0  0.85705  0.29115  0.22854  1.0000
  C   C311      1.0  0.88779  0.29035  0.19931  1.0000
  C   C312      1.0  0.9509000000000001  0.33225  0.23079999999999998  1.0000
  C   C313      1.0  0.5675700000000001  0.9579799999999999  0.43767999999999996  1.0000
  C   C314      1.0  0.59238  0.92735  0.4195  1.0000
  C   C315      1.0  0.61508  0.90402  0.45097  1.0000
  C   C316      1.0  0.61094  0.91403  0.50057  1.0000
  C   C317      1.0  0.58564  0.9451900000000001  0.51612  1.0000
  C   C318      1.0  0.64297  0.87163  0.43405  1.0000
  C   C319      1.0  0.61225  0.8116699999999999  0.40272  1.0000
  C   C320      1.0  0.5491  0.77958  0.38107  1.0000
  C   C321      1.0  0.13004999999999997  0.56241  0.5203  1.0000
  C   C322      1.0  0.17304  0.5806  0.50784  1.0000
  C   C323      1.0  0.16428000000000006  0.54928  0.4530699999999999  1.0000
  C   C324      1.0  0.11044999999999994  0.49971  0.4133799999999999  1.0000
  C   C325      1.0  0.06963999999999992  0.48408999999999985  0.42902999999999997  1.0000
  C   C326      1.0  0.20914  0.56612  0.43766999999999995  1.0000
  C   C327      1.0  0.20975999999999997  0.5974899999999997  0.40909  1.0000
  C   C328      1.0  0.16757000000000002  0.61832  0.39857999999999993  1.0000
  C   C329      1.0  0.54183  0.60972  0.9796499999999999  1.0000
  C   C330      1.0  0.57225  0.66521  0.99208  1.0000
  C   C331      1.0  0.59585  0.71114  0.04698  1.0000
  C   C332      1.0  0.58606  0.69691  0.08662999999999998  1.0000
  C   C333      1.0  0.55486  0.6404399999999999  0.07095  1.0000
  C   C334      1.0  0.6283699999999999  0.77149  0.06273  1.0000
  C   C335      1.0  0.68837  0.80081  0.09148  1.0000
  C   C336      1.0  0.7205799999999998  0.7698099999999998  0.10166  1.0000
  C   C337      1.0  0.37002  0.8903899999999999  0.43236  1.0000
  C   C338      1.0  0.32698  0.83495  0.40745  1.0000
  C   C339      1.0  0.33577  0.78893  0.38485  1.0000
  C   C340      1.0  0.3895799999999999  0.8030599999999999  0.38911  1.0000
  C   C341      1.0  0.43043999999999993  0.85953  0.41441999999999996  1.0000
  C   C342      1.0  0.29095999999999994  0.72866  0.35696  1.0000
  C   C343      1.0  0.29029  0.69946  0.38769  1.0000
  C   C344      1.0  0.3321  0.7305  0.45074  1.0000
  C   C345      1.0  0.9578699999999999  0.9375499999999998  0.06752  1.0000
  C   C346      1.0  0.92717  0.91929  0.09224  1.0000
  C   C347      1.0  0.90369  0.9506299999999998  0.11483  1.0000
  C   C348      1.0  0.91357  0.00018999999999999852  0.1106  1.0000
  C   C349      1.0  0.9448699999999999  0.015849999999999993  0.08545999999999998  1.0000
  C   C350      1.0  0.87154  0.9337899999999998  0.14294  1.0000
  C   C351      1.0  0.8115  0.9024799999999996  0.11224999999999999  1.0000
  C   C352      1.0  0.77992  0.88136  0.04918  1.0000
  C   C353      1.0  0.56248  0.02025999999999993  0.62993  1.0000
  C   C354      1.0  0.58076  0.007700000000000036  0.67282  1.0000
  C   C355      1.0  0.54919  0.9530400000000001  0.66414  1.0000
  C   C356      1.0  0.49949999999999994  0.91345  0.61041  1.0000
  C   C357      1.0  0.484  0.92909  0.56958  1.0000
  C   C358      1.0  0.5659399999999999  0.9376099999999998  0.7089999999999999  1.0000
  C   C359      1.0  0.5970399999999999  0.9086999999999998  0.70944  1.0000
  C   C360      1.0  0.61812  0.8983999999999999  0.66744  1.0000
  C   C361      1.0  0.60962  0.4796199999999999  0.04191  1.0000
  C   C362      1.0  0.66506  0.4919799999999999  0.07238  1.0000
  C   C363      1.0  0.7111  0.54681  0.09589999999999999  1.0000
  C   C364      1.0  0.69698  0.5865  0.08605  1.0000
  C   C365      1.0  0.64052  0.5709199999999999  0.05491  1.0000
  C   C366      1.0  0.7713500000000001  0.5622  0.12834  1.0000
  C   C367      1.0  0.80058  0.59066  0.18831  1.0000
  C   C368      1.0  0.7697799999999998  0.6015499999999998  0.22054  1.0000
  C   C369      1.0  0.89024  0.9322099999999998  0.86989  1.0000
  C   C370      1.0  0.83476  0.90732  0.82689  1.0000
  C   C371      1.0  0.78881  0.8849599999999997  0.8358  1.0000
  C   C372      1.0  0.80301  0.8894099999999999  0.8897  1.0000
  C   C373      1.0  0.85947  0.91451  0.93044  1.0000
  C   C374      1.0  0.72845  0.85691  0.79111  1.0000
  C   C375      1.0  0.69922  0.88762  0.79049  1.0000
  C   C376      1.0  0.73087  0.95075  0.83237  1.0000
  C   C377      1.0  0.93772  0.5677100000000002  0.45804  1.0000
  C   C378      1.0  0.91959  0.5926099999999997  0.42748999999999987  1.0000
  C   C379      1.0  0.9509699999999999  0.61519  0.4040599999999999  1.0000
  C   C380      1.0  0.000569999999999982  0.611  0.41401  1.0000
  C   C381      1.0  0.01610999999999994  0.58568  0.44515999999999994  1.0000
  C   C382      1.0  0.93397  0.64296  0.37154999999999994  1.0000
  C   C383      1.0  0.90256  0.61222  0.31159  1.0000
  C   C384      1.0  0.8808799999999999  0.54907  0.27946  1.0000
  C   C385      1.0  0.01689  0.26643  0.53381  1.0000
  C   C386      1.0  0.04886000000000001  0.29915  0.59804  1.0000
  C   C387      1.0  0.10885999999999989  0.35902999999999985  0.7180899999999999  1.0000
  C   C388      1.0  0.48316  0.01706999999999999  0.24973  1.0000
  C   C389      1.0  0.45132  0.04947  0.25038  1.0000
  C   C390      1.0  0.39094  0.10917999999999999  0.2501  1.0000
  C   C391      1.0  0.23246  0.48301  0.96607  1.0000
  C   C392      1.0  0.20103999999999994  0.45069  0.90184  1.0000
  C   C393      1.0  0.14079  0.39046  0.78171  1.0000
  C   C394      1.0  0.26759  0.23369999999999994  0.25067  1.0000
  C   C395      1.0  0.29884999999999995  0.20072999999999994  0.24997999999999998  1.0000
  C   C396      1.0  0.35895  0.14082  0.2501  1.0000
  C   C397      1.0  0.75047  0.26748999999999995  0.73349  1.0000
  C   C398      1.0  0.7497299999999999  0.29898999999999987  0.70076  1.0000
  C   C399      1.0  0.74988  0.35918  0.6409  1.0000
  C   C400      1.0  0.4661199999999999  0.2324399999999999  0.9830799999999997  1.0000
  C   C401      1.0  0.40189  0.20117  0.95113  1.0000
  C   C402      1.0  0.28175  0.14098999999999998  0.89105  1.0000
  C   C403      1.0  0.74943  0.4831  0.51696  1.0000
  C   C404      1.0  0.75034  0.45118  0.54927  1.0000
  C   C405      1.0  0.75035  0.39134  0.60942  1.0000
  C   C406      1.0  0.03378999999999999  0.01679000000000001  0.76652  1.0000
  C   C407      1.0  0.09803  0.048619999999999955  0.79898  1.0000
  C   C408      1.0  0.21811000000000003  0.10892999999999994  0.85905  1.0000
  C   C409      1.0  0.4830599999999998  0.4661299999999998  0.7323999999999999  1.0000
  C   C410      1.0  0.45082  0.4019  0.7011  1.0000
  C   C411      1.0  0.39049999999999996  0.28183  0.6409  1.0000
  C   C412      1.0  0.23278  0.7496799999999999  0.76656  1.0000
  C   C413      1.0  0.2011  0.74979  0.79911  1.0000
  C   C414      1.0  0.14109999999999998  0.7497299999999998  0.8591  1.0000
  C   C415      1.0  0.26663  0.03388000000000001  0.51691  1.0000
  C   C416      1.0  0.29912  0.09810999999999999  0.54889  1.0000
  C   C417      1.0  0.35909  0.21820000000000003  0.60912  1.0000
  C   C418      1.0  0.01700999999999997  0.75034  0.98301  1.0000
  C   C419      1.0  0.049449999999999945  0.75023  0.95123  1.0000
  C   C420      1.0  0.10953999999999993  0.7502099999999999  0.8911599999999998  1.0000
  C   C421      1.0  0.9829999999999999  0.7325299999999997  0.4660399999999999  1.0000
  C   C422      1.0  0.95075  0.70103  0.4017999999999999  1.0000
  C   C423      1.0  0.8907  0.64082  0.28172  1.0000
  C   C424      1.0  0.5170199999999999  0.9832  0.7497299999999999  1.0000
  C   C425      1.0  0.54941  0.9513699999999998  0.75036  1.0000
  C   C426      1.0  0.60918  0.89108  0.75012  1.0000
  C   C427      1.0  0.76632  0.5169  0.03384  1.0000
  C   C428      1.0  0.7991499999999998  0.54881  0.09809  1.0000
  C   C429      1.0  0.85902  0.60867  0.21809  1.0000
  C   C430      1.0  0.73367  0.76759  0.75065  1.0000
  C   C431      1.0  0.70072  0.79885  0.74996  1.0000
  C   C432      1.0  0.64075  0.85901  0.75005  1.0000
  C   C433      1.0  0.25047  0.73356  0.26741  1.0000
  C   C434      1.0  0.24972  0.70084  0.2989  1.0000
  C   C435      1.0  0.24982999999999994  0.64097  0.35906999999999994  1.0000
  C   C436      1.0  0.53384  0.76628  0.01695  1.0000
  C   C437      1.0  0.59809  0.79925  0.049229999999999996  1.0000
  C   C438      1.0  0.71812  0.85918  0.10927999999999997  1.0000
  C   C439      1.0  0.24945  0.51701  0.48306  1.0000
  C   C440      1.0  0.25034  0.54932  0.45115  1.0000
  C   C441      1.0  0.25033  0.60953  0.39126  1.0000
  C   C442      1.0  0.9661099999999999  0.9829499999999998  0.23268  1.0000
  C   C443      1.0  0.90186  0.95054  0.20092  1.0000
  C   C444      1.0  0.78175  0.8908199999999997  0.14091  1.0000
  C   C445      1.0  0.51693  0.53387  0.26626  1.0000
  C   C446      1.0  0.5489200000000002  0.59811  0.2992  1.0000
  C   C447      1.0  0.6086700000000002  0.7181799999999999  0.35907999999999995  1.0000
  C   C448      1.0  0.76723  0.25035  0.23322  1.0000
  C   C449      1.0  0.79892  0.2501099999999999  0.20068999999999995  1.0000
  C   C450      1.0  0.8592599999999999  0.2498299999999999  0.14089  1.0000
  C   C451      1.0  0.7327599999999999  0.9661199999999999  0.4830299999999999  1.0000
  C   C452      1.0  0.7010099999999999  0.9018899999999999  0.45078  1.0000
  C   C453      1.0  0.64087  0.7817999999999998  0.39092  1.0000
  C   C454      1.0  0.9831099999999999  0.25032  0.01689  1.0000
  C   C455      1.0  0.95131  0.2501999999999999  0.04931  1.0000
  C   C456      1.0  0.89137  0.25026999999999994  0.10936999999999998  1.0000
  N   N1        1.0  0.018019999999999994  0.09619999999999998  0.53244  1.0000
  N   N2        1.0  0.48194  0.01448  0.07822  1.0000
  N   N3        1.0  0.06382000000000002  0.4855499999999999  0.96748  1.0000
  N   N4        1.0  0.43616999999999995  0.4037899999999999  0.42181  1.0000
  N   N5        1.0  0.9218  0.43614  0.90376  1.0000
  N   N6        1.0  0.46756  0.06386999999999998  0.98558  1.0000
  N   N7        1.0  0.57819  0.48197  0.51442  1.0000
  N   N8        1.0  0.03247000000000003  0.01804000000000006  0.59623  1.0000
  N   N9        1.0  0.48554  0.4674799999999999  0.56382  1.0000
  N   N10       1.0  0.4039499999999999  0.9219899999999998  0.93633  1.0000
  N   N11       1.0  0.09616000000000002  0.032400000000000005  0.51804  1.0000
  N   N12       1.0  0.01444999999999998  0.57809  0.98191  1.0000
  N   N13       1.0  0.017920000000000103  0.92176  0.9856  1.0000
  N   N14       1.0  0.48206999999999994  0.4678099999999999  0.9040999999999999  1.0000
  N   N15       1.0  0.06388000000000002  0.57816  0.59603  1.0000
  N   N16       1.0  0.43627  0.03230999999999994  0.51438  1.0000
  N   N17       1.0  0.9220199999999998  0.48572  0.51791  1.0000
  N   N18       1.0  0.46769  0.40401  0.98205  1.0000
  N   N19       1.0  0.57806  0.09601000000000001  0.56375  1.0000
  N   N20       1.0  0.032160000000000015  0.01425999999999995  0.93621  1.0000
  N   N21       1.0  0.48569  0.01794000000000003  0.42195  1.0000
  N   N22       1.0  0.40401000000000004  0.4820599999999999  0.96774  1.0000
  N   N23       1.0  0.09590999999999998  0.06364  0.07796  1.0000
  N   N24       1.0  0.014379999999999995  0.43633  0.53231  1.0000
  N   N25       1.0  0.9820399999999999  0.9039799999999998  0.46772  1.0000
  N   N26       1.0  0.51789  0.98574  0.92194  1.0000
  N   N27       1.0  0.93629  0.51427  0.03218  1.0000
  N   N28       1.0  0.5637  0.596  0.57805  1.0000
  N   N29       1.0  0.07803999999999994  0.56366  0.09597  1.0000
  N   N30       1.0  0.5322499999999998  0.9363299999999999  0.014319999999999996  1.0000
  N   N31       1.0  0.42195  0.51794  0.48569  1.0000
  N   N32       1.0  0.96775  0.98206  0.40401  1.0000
  N   N33       1.0  0.51427  0.53219  0.43629  1.0000
  N   N34       1.0  0.5960799999999999  0.07811999999999998  0.06375  1.0000
  N   N35       1.0  0.9039699999999999  0.9676899999999996  0.48207  1.0000
  N   N36       1.0  0.98571  0.42183  0.01788  1.0000
  N   N37       1.0  0.98196  0.07801  0.01435  1.0000
  N   N38       1.0  0.51806  0.53252  0.09633  1.0000
  N   N39       1.0  0.9362499999999997  0.42178999999999994  0.4037499999999999  1.0000
  N   N40       1.0  0.5637799999999997  0.9676099999999997  0.4856499999999999  1.0000
  N   N41       1.0  0.07826000000000001  0.51444  0.48192  1.0000
  N   N42       1.0  0.5323899999999999  0.5962099999999998  0.01802  1.0000
  N   N43       1.0  0.42181  0.90381  0.43623  1.0000
  N   N44       1.0  0.96746  0.9855099999999998  0.06373  1.0000
  N   N45       1.0  0.5144199999999999  0.98196  0.5782  1.0000
  N   N46       1.0  0.59621  0.51803  0.03245  1.0000
  N   N47       1.0  0.9037  0.93612  0.9217199999999998  1.0000
  N   N48       1.0  0.98564  0.56383  0.46759  1.0000
