data_image0
_chemical_formula_structural       Sr24H248C360N8O152
_chemical_formula_sum              "Sr24 H248 C360 N8 O152"
_cell_length_a       19.24393
_cell_length_b       27.33796
_cell_length_c       31.28022
_cell_angle_alpha    89.9906
_cell_angle_beta     90.0
_cell_angle_gamma    90.0

_symmetry_space_group_name_H-M    'P 1'
_symmetry_Int_Tables_number       1

loop_
  _symmetry_equiv_pos_as_xyz
  'x,y,z'

loop_
  _atom_site_type_symbol
  _atom_site_label
  _atom_site_symmetry_multiplicity
  _atom_site_fract_x
  _atom_site_fract_y
  _atom_site_fract_z
  _atom_site_occupancy
  Sr  Sr1       1.0  0.58181  0.77901  0.8341499999999997  1.0000
  Sr  Sr2       1.0  0.74025  0.70997  0.79685  1.0000
  Sr  Sr3       1.0  0.9002  0.77702  0.8429899999999998  1.0000
  Sr  Sr4       1.0  0.9183099999999998  0.7213  0.33388  1.0000
  Sr  Sr5       1.0  0.75975  0.78998  0.29693  1.0000
  Sr  Sr6       1.0  0.59943  0.72274  0.34277  1.0000
  Sr  Sr7       1.0  0.58181  0.22099  0.6658499999999998  1.0000
  Sr  Sr8       1.0  0.74025  0.29003  0.70315  1.0000
  Sr  Sr9       1.0  0.9002  0.22298  0.6570099999999998  1.0000
  Sr  Sr10      1.0  0.9183099999999998  0.2787  0.16612  1.0000
  Sr  Sr11      1.0  0.75975  0.21001000000000003  0.20306999999999994  1.0000
  Sr  Sr12      1.0  0.59943  0.27726  0.15723  1.0000
  Sr  Sr13      1.0  0.41818000000000005  0.22099  0.16584999999999994  1.0000
  Sr  Sr14      1.0  0.25975  0.29003  0.20315  1.0000
  Sr  Sr15      1.0  0.09979  0.22298  0.15700999999999996  1.0000
  Sr  Sr16      1.0  0.08168  0.2787  0.6661199999999998  1.0000
  Sr  Sr17      1.0  0.24025000000000002  0.21001000000000003  0.7030699999999998  1.0000
  Sr  Sr18      1.0  0.40057  0.27726  0.65723  1.0000
  Sr  Sr19      1.0  0.41818000000000005  0.77901  0.33415  1.0000
  Sr  Sr20      1.0  0.25975  0.70997  0.29685  1.0000
  Sr  Sr21      1.0  0.09979  0.77702  0.34299  1.0000
  Sr  Sr22      1.0  0.08168  0.7213  0.8338799999999997  1.0000
  Sr  Sr23      1.0  0.24025000000000002  0.78998  0.7969299999999998  1.0000
  Sr  Sr24      1.0  0.40057  0.72274  0.84277  1.0000
  H   H1        1.0  0.73956  0.57798  0.6336  1.0000
  H   H2        1.0  0.75759  0.73186  0.6607499999999997  1.0000
  H   H3        1.0  0.76485  0.74846  0.5825699999999998  1.0000
  H   H4        1.0  0.72136  0.59455  0.5262  1.0000
  H   H5        1.0  0.68646  0.67551  0.42041  1.0000
  H   H6        1.0  0.8601899999999999  0.7661600000000001  0.4562099999999999  1.0000
  H   H7        1.0  0.8516700000000001  0.73376  0.5306899999999998  1.0000
  H   H8        1.0  0.64634  0.6214200000000001  0.4687099999999999  1.0000
  H   H9        1.0  0.63279  0.62691  0.7465799999999998  1.0000
  H   H10       1.0  0.4168299999999999  0.66928  0.7474299999999998  1.0000
  H   H11       1.0  0.38843  0.59469  0.7062299999999998  1.0000
  H   H12       1.0  0.66123  0.56585  0.7022999999999998  1.0000
  H   H13       1.0  0.38475  0.49257  0.5853199999999997  1.0000
  H   H14       1.0  0.48693999999999993  0.40114  0.67821  1.0000
  H   H15       1.0  0.52697  0.47502  0.7166199999999998  1.0000
  H   H16       1.0  0.43351  0.60028  0.63927  1.0000
  H   H17       1.0  0.83919  0.62692  0.7569999999999998  1.0000
  H   H18       1.0  0.02538  0.60025  0.8300199999999999  1.0000
  H   H19       1.0  0.03648  0.51892  0.7956599999999998  1.0000
  H   H20       1.0  0.8004  0.56357  0.7155099999999998  1.0000
  H   H21       1.0  0.6427  0.8693600000000001  0.74777  1.0000
  H   H22       1.0  0.8453700000000001  0.88943  0.80394  1.0000
  H   H23       1.0  0.8402600000000001  0.97735  0.7858999999999998  1.0000
  H   H24       1.0  0.59213  0.9386000000000001  0.72117  1.0000
  H   H25       1.0  0.07894  0.83936  0.8724399999999998  1.0000
  H   H26       1.0  0.96407  0.84339  0.9793499999999998  1.0000
  H   H27       1.0  0.0393  0.80992  0.9962099999999998  1.0000
  H   H28       1.0  0.98099  0.7838400000000001  0.9578  1.0000
  H   H29       1.0  0.10678  0.89836  0.91401  1.0000
  H   H30       1.0  0.11625000000000002  0.88208  0.9691099999999998  1.0000
  H   H31       1.0  0.03998  0.9138800000000001  0.9513099999999998  1.0000
  H   H32       1.0  0.76015  0.9218700000000002  0.13336999999999993  1.0000
  H   H33       1.0  0.74184  0.7681  0.16086  1.0000
  H   H34       1.0  0.73431  0.75128  0.08272  1.0000
  H   H35       1.0  0.77714  0.90529  0.026219999999999993  1.0000
  H   H36       1.0  0.81396  0.82363  0.9205599999999998  1.0000
  H   H37       1.0  0.63978  0.73329  0.9561299999999998  1.0000
  H   H38       1.0  0.64757  0.76602  0.0305  1.0000
  H   H39       1.0  0.85246  0.8786400000000001  0.9685099999999998  1.0000
  H   H40       1.0  0.86673  0.87291  0.24536  1.0000
  H   H41       1.0  0.08313  0.8316700000000001  0.24811  1.0000
  H   H42       1.0  0.11161000000000001  0.9061700000000003  0.20675999999999994  1.0000
  H   H43       1.0  0.83864  0.93386  0.20065999999999995  1.0000
  H   H44       1.0  0.11666  0.00739  0.08540999999999997  1.0000
  H   H45       1.0  0.01378  0.09912  0.17775999999999995  1.0000
  H   H46       1.0  0.97306  0.02533  0.21613  1.0000
  H   H47       1.0  0.06634  0.89986  0.13928  1.0000
  H   H48       1.0  0.66099  0.87307  0.2570699999999999  1.0000
  H   H49       1.0  0.47471  0.89967  0.32997  1.0000
  H   H50       1.0  0.4636700000000001  0.98106  0.29562999999999995  1.0000
  H   H51       1.0  0.6996  0.9364100000000001  0.21545  1.0000
  H   H52       1.0  0.8574700000000001  0.6305300000000001  0.24769999999999995  1.0000
  H   H53       1.0  0.65481  0.6108  0.30395  1.0000
  H   H54       1.0  0.65952  0.52285  0.28592  1.0000
  H   H55       1.0  0.90787  0.56105  0.22110999999999995  1.0000
  H   H56       1.0  0.4213199999999999  0.6606800000000002  0.3723799999999999  1.0000
  H   H57       1.0  0.53529  0.6567900000000001  0.4795299999999999  1.0000
  H   H58       1.0  0.4599500000000001  0.69023  0.49624  1.0000
  H   H59       1.0  0.51847  0.71636  0.45797  1.0000
  H   H60       1.0  0.39303  0.60181  0.4139299999999999  1.0000
  H   H61       1.0  0.38335  0.61805  0.46901  1.0000
  H   H62       1.0  0.45970000000000005  0.58627  0.4513099999999999  1.0000
  H   H63       1.0  0.73956  0.42201  0.8663999999999997  1.0000
  H   H64       1.0  0.75759  0.26814  0.8392499999999998  1.0000
  H   H65       1.0  0.76485  0.25154  0.9174299999999997  1.0000
  H   H66       1.0  0.72136  0.40545  0.9738  1.0000
  H   H67       1.0  0.68646  0.32449  0.07959  1.0000
  H   H68       1.0  0.8601899999999999  0.23384  0.04379  1.0000
  H   H69       1.0  0.8516700000000001  0.26624  0.9693099999999998  1.0000
  H   H70       1.0  0.64634  0.37858  0.03129  1.0000
  H   H71       1.0  0.63279  0.37309  0.7534199999999998  1.0000
  H   H72       1.0  0.4168299999999999  0.33072  0.7525699999999997  1.0000
  H   H73       1.0  0.38843  0.40531  0.7937699999999998  1.0000
  H   H74       1.0  0.66123  0.43415  0.7976999999999997  1.0000
  H   H75       1.0  0.38475  0.50742  0.9146799999999998  1.0000
  H   H76       1.0  0.48693999999999993  0.59886  0.8217799999999997  1.0000
  H   H77       1.0  0.52697  0.52498  0.7833799999999997  1.0000
  H   H78       1.0  0.43351  0.39972  0.86073  1.0000
  H   H79       1.0  0.83919  0.37308  0.7429999999999998  1.0000
  H   H80       1.0  0.02538  0.39974  0.66998  1.0000
  H   H81       1.0  0.03648  0.48107  0.7043399999999997  1.0000
  H   H82       1.0  0.8004  0.43643  0.7844799999999997  1.0000
  H   H83       1.0  0.6427  0.13064  0.75223  1.0000
  H   H84       1.0  0.8453700000000001  0.11057000000000002  0.6960499999999997  1.0000
  H   H85       1.0  0.8402600000000001  0.02265  0.7140999999999997  1.0000
  H   H86       1.0  0.59213  0.06139  0.77883  1.0000
  H   H87       1.0  0.07894  0.16064  0.6275499999999999  1.0000
  H   H88       1.0  0.96407  0.1566  0.5206499999999997  1.0000
  H   H89       1.0  0.0393  0.19008000000000003  0.50379  1.0000
  H   H90       1.0  0.98099  0.21616000000000002  0.5422  1.0000
  H   H91       1.0  0.10678  0.10164000000000002  0.58598  1.0000
  H   H92       1.0  0.11625000000000002  0.11792  0.53088  1.0000
  H   H93       1.0  0.03998  0.08611000000000002  0.54869  1.0000
  H   H94       1.0  0.76015  0.07813  0.3666199999999999  1.0000
  H   H95       1.0  0.74184  0.2319  0.33914  1.0000
  H   H96       1.0  0.73431  0.24871000000000004  0.41728  1.0000
  H   H97       1.0  0.77714  0.09471  0.4737799999999999  1.0000
  H   H98       1.0  0.81396  0.17636  0.5794399999999997  1.0000
  H   H99       1.0  0.63978  0.26671  0.5438699999999997  1.0000
  H   H100      1.0  0.64757  0.23398  0.46949999999999986  1.0000
  H   H101      1.0  0.85246  0.12136  0.53149  1.0000
  H   H102      1.0  0.86673  0.12709  0.2546399999999999  1.0000
  H   H103      1.0  0.08313  0.16833  0.25189  1.0000
  H   H104      1.0  0.11161000000000001  0.09383  0.2932399999999999  1.0000
  H   H105      1.0  0.83864  0.06614  0.29934  1.0000
  H   H106      1.0  0.11666  0.99261  0.41457999999999995  1.0000
  H   H107      1.0  0.01378  0.90088  0.3222399999999999  1.0000
  H   H108      1.0  0.97306  0.9746700000000001  0.2838699999999999  1.0000
  H   H109      1.0  0.06634  0.10014  0.3607199999999999  1.0000
  H   H110      1.0  0.66099  0.12693  0.24292999999999995  1.0000
  H   H111      1.0  0.47471  0.10032000000000002  0.17002999999999993  1.0000
  H   H112      1.0  0.4636700000000001  0.01894  0.20435999999999996  1.0000
  H   H113      1.0  0.6996  0.06359  0.28455  1.0000
  H   H114      1.0  0.8574700000000001  0.36947  0.2523  1.0000
  H   H115      1.0  0.65481  0.38919000000000004  0.19605  1.0000
  H   H116      1.0  0.65952  0.47715  0.21406999999999995  1.0000
  H   H117      1.0  0.90787  0.43894  0.27889  1.0000
  H   H118      1.0  0.4213199999999999  0.33932  0.12762  1.0000
  H   H119      1.0  0.53529  0.3432  0.02046999999999999  1.0000
  H   H120      1.0  0.4599500000000001  0.30977  0.003749999999999999  1.0000
  H   H121      1.0  0.51847  0.28364  0.04202  1.0000
  H   H122      1.0  0.39303  0.39819  0.08607  1.0000
  H   H123      1.0  0.38335  0.38195  0.030989999999999993  1.0000
  H   H124      1.0  0.45970000000000005  0.41373  0.04869  1.0000
  H   H125      1.0  0.26043  0.42201  0.3664  1.0000
  H   H126      1.0  0.24241  0.26814  0.3392499999999999  1.0000
  H   H127      1.0  0.23515  0.25154  0.41743  1.0000
  H   H128      1.0  0.27863  0.40545  0.4737999999999999  1.0000
  H   H129      1.0  0.31354  0.32449  0.57958  1.0000
  H   H130      1.0  0.13981  0.23384  0.5437899999999999  1.0000
  H   H131      1.0  0.14832  0.26624  0.4693099999999999  1.0000
  H   H132      1.0  0.35366  0.37858  0.53129  1.0000
  H   H133      1.0  0.36721  0.37309  0.25341999999999987  1.0000
  H   H134      1.0  0.58316  0.33072  0.25257  1.0000
  H   H135      1.0  0.61157  0.40531  0.29377  1.0000
  H   H136      1.0  0.33877  0.43415  0.2976999999999999  1.0000
  H   H137      1.0  0.61524  0.50742  0.41468  1.0000
  H   H138      1.0  0.51306  0.59886  0.32178999999999996  1.0000
  H   H139      1.0  0.47303000000000006  0.52498  0.28338  1.0000
  H   H140      1.0  0.56649  0.39972  0.3607299999999999  1.0000
  H   H141      1.0  0.16081  0.37308  0.24299999999999994  1.0000
  H   H142      1.0  0.9746200000000002  0.39974  0.16997999999999994  1.0000
  H   H143      1.0  0.96352  0.4810800000000001  0.20434  1.0000
  H   H144      1.0  0.1996  0.43643  0.28448  1.0000
  H   H145      1.0  0.3573  0.13064  0.25223  1.0000
  H   H146      1.0  0.15462  0.11057000000000002  0.19605  1.0000
  H   H147      1.0  0.15974  0.02265  0.2141  1.0000
  H   H148      1.0  0.40787  0.06139  0.2788299999999999  1.0000
  H   H149      1.0  0.9210500000000001  0.16064  0.12755  1.0000
  H   H150      1.0  0.03592  0.1566  0.02065  1.0000
  H   H151      1.0  0.9607  0.19008000000000003  0.003789999999999999  1.0000
  H   H152      1.0  0.01901  0.21616000000000002  0.04219999999999999  1.0000
  H   H153      1.0  0.89321  0.10164000000000002  0.08598  1.0000
  H   H154      1.0  0.88374  0.11792  0.030879999999999994  1.0000
  H   H155      1.0  0.9600200000000001  0.08611000000000002  0.04869  1.0000
  H   H156      1.0  0.23985000000000004  0.07813  0.86662  1.0000
  H   H157      1.0  0.25816  0.2319  0.83913  1.0000
  H   H158      1.0  0.26568  0.24871000000000004  0.91728  1.0000
  H   H159      1.0  0.22286000000000003  0.09471  0.9737799999999998  1.0000
  H   H160      1.0  0.18604  0.17636  0.07944  1.0000
  H   H161      1.0  0.36021  0.26671  0.04386999999999999  1.0000
  H   H162      1.0  0.35243  0.23398  0.9695  1.0000
  H   H163      1.0  0.14753  0.12136  0.03149  1.0000
  H   H164      1.0  0.13326  0.12709  0.75464  1.0000
  H   H165      1.0  0.9168700000000001  0.16833  0.75189  1.0000
  H   H166      1.0  0.8883800000000001  0.09383  0.79324  1.0000
  H   H167      1.0  0.16136  0.06614  0.7993399999999998  1.0000
  H   H168      1.0  0.8833300000000001  0.99261  0.9145799999999997  1.0000
  H   H169      1.0  0.9862200000000001  0.90088  0.82224  1.0000
  H   H170      1.0  0.02694  0.9746700000000001  0.7838699999999997  1.0000
  H   H171      1.0  0.93366  0.10014  0.8607199999999998  1.0000
  H   H172      1.0  0.33901  0.12693  0.7429299999999998  1.0000
  H   H173      1.0  0.52529  0.10032000000000002  0.67003  1.0000
  H   H174      1.0  0.53633  0.01894  0.70436  1.0000
  H   H175      1.0  0.3004  0.06359  0.7845499999999997  1.0000
  H   H176      1.0  0.14253  0.36947  0.7523  1.0000
  H   H177      1.0  0.34518  0.38919000000000004  0.6960499999999997  1.0000
  H   H178      1.0  0.34047  0.47715  0.7140699999999998  1.0000
  H   H179      1.0  0.09213  0.43894  0.77889  1.0000
  H   H180      1.0  0.57867  0.33932  0.6276199999999997  1.0000
  H   H181      1.0  0.46471  0.3432  0.52046  1.0000
  H   H182      1.0  0.54005  0.30977  0.50375  1.0000
  H   H183      1.0  0.48152000000000006  0.28364  0.54202  1.0000
  H   H184      1.0  0.60696  0.39819  0.5860699999999998  1.0000
  H   H185      1.0  0.61665  0.38195  0.53099  1.0000
  H   H186      1.0  0.5403  0.41373  0.54869  1.0000
  H   H187      1.0  0.26043  0.57798  0.13359999999999994  1.0000
  H   H188      1.0  0.24241  0.73186  0.16074999999999995  1.0000
  H   H189      1.0  0.23515  0.74846  0.08257  1.0000
  H   H190      1.0  0.27863  0.59455  0.0262  1.0000
  H   H191      1.0  0.31354  0.67551  0.92041  1.0000
  H   H192      1.0  0.13981  0.7661600000000001  0.9562099999999998  1.0000
  H   H193      1.0  0.14832  0.73376  0.03068999999999999  1.0000
  H   H194      1.0  0.35366  0.6214200000000001  0.96871  1.0000
  H   H195      1.0  0.36721  0.62691  0.24658  1.0000
  H   H196      1.0  0.58316  0.66928  0.24742999999999996  1.0000
  H   H197      1.0  0.61157  0.59469  0.20623  1.0000
  H   H198      1.0  0.33877  0.56585  0.2023  1.0000
  H   H199      1.0  0.61524  0.49257  0.08531999999999997  1.0000
  H   H200      1.0  0.51306  0.40114  0.17820999999999995  1.0000
  H   H201      1.0  0.47303000000000006  0.47502  0.21662  1.0000
  H   H202      1.0  0.56649  0.60028  0.13926999999999995  1.0000
  H   H203      1.0  0.16081  0.62692  0.257  1.0000
  H   H204      1.0  0.9746200000000002  0.60025  0.33002  1.0000
  H   H205      1.0  0.96352  0.51892  0.29566  1.0000
  H   H206      1.0  0.1996  0.56357  0.21551  1.0000
  H   H207      1.0  0.3573  0.8693600000000001  0.24776999999999993  1.0000
  H   H208      1.0  0.15462  0.88943  0.30395  1.0000
  H   H209      1.0  0.15974  0.97735  0.2858999999999999  1.0000
  H   H210      1.0  0.40787  0.9386000000000001  0.22116999999999995  1.0000
  H   H211      1.0  0.9210500000000001  0.83936  0.37244  1.0000
  H   H212      1.0  0.03592  0.84339  0.47935  1.0000
  H   H213      1.0  0.9607  0.80992  0.4962099999999999  1.0000
  H   H214      1.0  0.01901  0.7838400000000001  0.4578  1.0000
  H   H215      1.0  0.89321  0.89836  0.41401  1.0000
  H   H216      1.0  0.88374  0.88208  0.4691099999999999  1.0000
  H   H217      1.0  0.9600200000000001  0.9138800000000001  0.4513099999999999  1.0000
  H   H218      1.0  0.23985000000000004  0.9218700000000002  0.6333699999999998  1.0000
  H   H219      1.0  0.25816  0.7681  0.6608599999999998  1.0000
  H   H220      1.0  0.26568  0.75128  0.58271  1.0000
  H   H221      1.0  0.22286000000000003  0.90529  0.5262199999999998  1.0000
  H   H222      1.0  0.18604  0.82363  0.42056  1.0000
  H   H223      1.0  0.36021  0.73329  0.45613  1.0000
  H   H224      1.0  0.35243  0.76602  0.5305  1.0000
  H   H225      1.0  0.14753  0.8786400000000001  0.46850999999999987  1.0000
  H   H226      1.0  0.13326  0.87291  0.74535  1.0000
  H   H227      1.0  0.9168700000000001  0.8316700000000001  0.7480999999999998  1.0000
  H   H228      1.0  0.8883800000000001  0.9061700000000003  0.70676  1.0000
  H   H229      1.0  0.16136  0.93386  0.7006499999999998  1.0000
  H   H230      1.0  0.8833300000000001  0.00739  0.58541  1.0000
  H   H231      1.0  0.9862200000000001  0.09912  0.67776  1.0000
  H   H232      1.0  0.02694  0.02533  0.71612  1.0000
  H   H233      1.0  0.93366  0.89986  0.6392799999999998  1.0000
  H   H234      1.0  0.33901  0.87307  0.7570699999999998  1.0000
  H   H235      1.0  0.52529  0.89967  0.8299599999999998  1.0000
  H   H236      1.0  0.53633  0.98106  0.7956299999999997  1.0000
  H   H237      1.0  0.3004  0.9364100000000001  0.7154499999999998  1.0000
  H   H238      1.0  0.14253  0.6305300000000001  0.7477  1.0000
  H   H239      1.0  0.34518  0.6108  0.8039499999999998  1.0000
  H   H240      1.0  0.34047  0.52285  0.78592  1.0000
  H   H241      1.0  0.09213  0.56105  0.7211  1.0000
  H   H242      1.0  0.57867  0.6606800000000002  0.8723799999999998  1.0000
  H   H243      1.0  0.46471  0.6567900000000001  0.9795299999999998  1.0000
  H   H244      1.0  0.54005  0.69023  0.9962399999999998  1.0000
  H   H245      1.0  0.48152000000000006  0.71636  0.9579699999999998  1.0000
  H   H246      1.0  0.60696  0.60181  0.9139299999999998  1.0000
  H   H247      1.0  0.61665  0.61805  0.9690099999999998  1.0000
  H   H248      1.0  0.5403  0.58627  0.9513  1.0000
  C   C1        1.0  0.75763  0.6729800000000001  0.5636  1.0000
  C   C2        1.0  0.74917  0.62437  0.5787099999999997  1.0000
  C   C3        1.0  0.74557  0.61551  0.6228  1.0000
  C   C4        1.0  0.74854  0.65383  0.6523599999999998  1.0000
  C   C5        1.0  0.75598  0.70215  0.63769  1.0000
  C   C6        1.0  0.76053  0.7110400000000001  0.59413  1.0000
  C   C7        1.0  0.74232  0.64382  0.6991399999999998  1.0000
  C   C8        1.0  0.76488  0.68655  0.51805  1.0000
  C   C9        1.0  0.72037  0.66865  0.48547  1.0000
  C   C10       1.0  0.72323  0.68842  0.4443  1.0000
  C   C11       1.0  0.77248  0.72412  0.4339899999999999  1.0000
  C   C12       1.0  0.82089  0.73935  0.46478  1.0000
  C   C13       1.0  0.81569  0.72121  0.5062  1.0000
  C   C14       1.0  0.77011  0.74739  0.3912499999999999  1.0000
  C   C15       1.0  0.49416  0.56991  0.7000299999999998  1.0000
  C   C16       1.0  0.5643  0.57996  0.7111899999999998  1.0000
  C   C17       1.0  0.57933  0.62044  0.7371  1.0000
  C   C18       1.0  0.52716  0.65272  0.7501299999999997  1.0000
  C   C19       1.0  0.4579500000000001  0.64434  0.7378099999999997  1.0000
  C   C20       1.0  0.44243  0.60285  0.71378  1.0000
  C   C21       1.0  0.54563  0.69478  0.7778199999999997  1.0000
  C   C22       1.0  0.47481  0.52595  0.6750699999999997  1.0000
  C   C23       1.0  0.43428999999999995  0.5302  0.6374999999999997  1.0000
  C   C24       1.0  0.41464  0.48861  0.61457  1.0000
  C   C25       1.0  0.43279  0.44195  0.6291799999999997  1.0000
  C   C26       1.0  0.47292  0.43719  0.66641  1.0000
  C   C27       1.0  0.4947  0.47881  0.6882999999999998  1.0000
  C   C28       1.0  0.40936  0.39806  0.60415  1.0000
  C   C29       1.0  0.9427  0.52529  0.7586  1.0000
  C   C30       1.0  0.8866699999999998  0.55661  0.74732  1.0000
  C   C31       1.0  0.8817599999999999  0.60301  0.76607  1.0000
  C   C32       1.0  0.93092  0.61893  0.79599  1.0000
  C   C33       1.0  0.98779  0.58878  0.8060899999999998  1.0000
  C   C34       1.0  0.99328  0.54265  0.78715  1.0000
  C   C35       1.0  0.92112  0.66739  0.8166899999999998  1.0000
  C   C36       1.0  0.73985  0.9738000000000002  0.7556999999999998  1.0000
  C   C37       1.0  0.68403  0.9425800000000001  0.7447599999999998  1.0000
  C   C38       1.0  0.68555  0.89335  0.7564799999999998  1.0000
  C   C39       1.0  0.7438  0.87372  0.7772699999999998  1.0000
  C   C40       1.0  0.80033  0.90397  0.7873099999999997  1.0000
  C   C41       1.0  0.79737  0.95346  0.77697  1.0000
  C   C42       1.0  0.745  0.82053  0.7867499999999997  1.0000
  C   C43       1.0  0.04751  0.81911  0.8957999999999998  1.0000
  C   C44       1.0  0.00468  0.81777  0.9691699999999998  1.0000
  C   C45       1.0  0.07907  0.88631  0.9427499999999998  1.0000
  C   C46       1.0  0.74159  0.82668  0.06359999999999998  1.0000
  C   C47       1.0  0.74967  0.8753  0.07864  1.0000
  C   C48       1.0  0.75397  0.8843100000000002  0.12266999999999997  1.0000
  C   C49       1.0  0.75117  0.8460400000000002  0.15232  1.0000
  C   C50       1.0  0.74351  0.79773  0.13774  1.0000
  C   C51       1.0  0.73883  0.7887  0.09418999999999997  1.0000
  C   C52       1.0  0.75761  0.8560600000000003  0.19908999999999993  1.0000
  C   C53       1.0  0.73456  0.81309  0.018029999999999994  1.0000
  C   C54       1.0  0.7794  0.83092  0.9855499999999998  1.0000
  C   C55       1.0  0.77704  0.81083  0.9444399999999997  1.0000
  C   C56       1.0  0.72784  0.7751000000000001  0.93407  1.0000
  C   C57       1.0  0.67907  0.7600700000000001  0.96475  1.0000
  C   C58       1.0  0.68387  0.7784  0.006119999999999998  1.0000
  C   C59       1.0  0.73014  0.75175  0.89134  1.0000
  C   C60       1.0  0.00574  0.93034  0.19962999999999995  1.0000
  C   C61       1.0  0.9354300000000001  0.9199700000000001  0.21012999999999996  1.0000
  C   C62       1.0  0.9203200000000001  0.87962  0.23627  1.0000
  C   C63       1.0  0.97267  0.84776  0.24993999999999994  1.0000
  C   C64       1.0  0.042  0.8564  0.23807999999999996  1.0000
  C   C65       1.0  0.05756  0.89779  0.21394999999999995  1.0000
  C   C66       1.0  0.9546100000000001  0.80572  0.27777  1.0000
  C   C67       1.0  0.02523  0.97432  0.17470999999999995  1.0000
  C   C68       1.0  0.06604  0.96993  0.13731  1.0000
  C   C69       1.0  0.08639  0.01145  0.11449999999999998  1.0000
  C   C70       1.0  0.06844  0.05818  0.12903  1.0000
  C   C71       1.0  0.027750000000000004  0.06305  0.16602  1.0000
  C   C72       1.0  0.00552  0.0215  0.18788999999999995  1.0000
  C   C73       1.0  0.09317  0.10193  0.10419  1.0000
  C   C74       1.0  0.55742  0.9747  0.25858  1.0000
  C   C75       1.0  0.61342  0.94339  0.24729999999999994  1.0000
  C   C76       1.0  0.61843  0.89701  0.26609  1.0000
  C   C77       1.0  0.56929  0.88109  0.29602  1.0000
  C   C78       1.0  0.51238  0.9112  0.30608999999999986  1.0000
  C   C79       1.0  0.50687  0.95734  0.28715  1.0000
  C   C80       1.0  0.57915  0.83266  0.31678  1.0000
  C   C81       1.0  0.75998  0.52621  0.2557  1.0000
  C   C82       1.0  0.81588  0.55739  0.24475999999999995  1.0000
  C   C83       1.0  0.81455  0.60662  0.25646  1.0000
  C   C84       1.0  0.75632  0.62629  0.27724  1.0000
  C   C85       1.0  0.69976  0.59611  0.28732  1.0000
  C   C86       1.0  0.70252  0.54662  0.2769699999999999  1.0000
  C   C87       1.0  0.75497  0.67947  0.28666  1.0000
  C   C88       1.0  0.45247000000000004  0.68106  0.39578  1.0000
  C   C89       1.0  0.49472999999999995  0.6824200000000001  0.46927999999999986  1.0000
  C   C90       1.0  0.42063  0.6138400000000002  0.4427  1.0000
  C   C91       1.0  0.75763  0.32701  0.9363899999999997  1.0000
  C   C92       1.0  0.74917  0.37562  0.9212899999999998  1.0000
  C   C93       1.0  0.74557  0.38448  0.8771999999999998  1.0000
  C   C94       1.0  0.74854  0.34617  0.8476399999999997  1.0000
  C   C95       1.0  0.75598  0.29784  0.8622999999999997  1.0000
  C   C96       1.0  0.76053  0.28895  0.90586  1.0000
  C   C97       1.0  0.74232  0.3561800000000001  0.8008599999999998  1.0000
  C   C98       1.0  0.76488  0.31345  0.98195  1.0000
  C   C99       1.0  0.72037  0.33135  0.014529999999999996  1.0000
  C   C100      1.0  0.72323  0.31158  0.055699999999999986  1.0000
  C   C101      1.0  0.77248  0.27587  0.06600999999999997  1.0000
  C   C102      1.0  0.82089  0.26065  0.03522  1.0000
  C   C103      1.0  0.81569  0.27879  0.99379  1.0000
  C   C104      1.0  0.77011  0.25261  0.10874999999999997  1.0000
  C   C105      1.0  0.49416  0.43009  0.7999699999999997  1.0000
  C   C106      1.0  0.5643  0.4200400000000001  0.78881  1.0000
  C   C107      1.0  0.57933  0.37955  0.7629  1.0000
  C   C108      1.0  0.52716  0.34727  0.74987  1.0000
  C   C109      1.0  0.4579500000000001  0.35566  0.76218  1.0000
  C   C110      1.0  0.44243  0.39715  0.78622  1.0000
  C   C111      1.0  0.54563  0.30522  0.7221799999999999  1.0000
  C   C112      1.0  0.47481  0.47404000000000013  0.8249299999999998  1.0000
  C   C113      1.0  0.43428999999999995  0.46979  0.8624999999999998  1.0000
  C   C114      1.0  0.41464  0.51138  0.88543  1.0000
  C   C115      1.0  0.43279  0.55804  0.8708199999999998  1.0000
  C   C116      1.0  0.47292  0.56281  0.83359  1.0000
  C   C117      1.0  0.4947  0.52119  0.8116899999999998  1.0000
  C   C118      1.0  0.40936  0.60194  0.89585  1.0000
  C   C119      1.0  0.9427  0.47471  0.7414  1.0000
  C   C120      1.0  0.8866699999999998  0.44338  0.7526699999999997  1.0000
  C   C121      1.0  0.8817599999999999  0.39699  0.73393  1.0000
  C   C122      1.0  0.93092  0.3810700000000001  0.70401  1.0000
  C   C123      1.0  0.98779  0.41121  0.6939  1.0000
  C   C124      1.0  0.99328  0.45735  0.71285  1.0000
  C   C125      1.0  0.92112  0.33261  0.68331  1.0000
  C   C126      1.0  0.73985  0.02619  0.7442999999999997  1.0000
  C   C127      1.0  0.68403  0.05742000000000001  0.75523  1.0000
  C   C128      1.0  0.68555  0.10665  0.7435199999999997  1.0000
  C   C129      1.0  0.7438  0.12628  0.72272  1.0000
  C   C130      1.0  0.80033  0.09602  0.71268  1.0000
  C   C131      1.0  0.79737  0.04654  0.72303  1.0000
  C   C132      1.0  0.745  0.17947  0.7132499999999998  1.0000
  C   C133      1.0  0.04751  0.18089  0.6041999999999997  1.0000
  C   C134      1.0  0.00469  0.18223  0.5308299999999998  1.0000
  C   C135      1.0  0.07907  0.11368  0.5572399999999998  1.0000
  C   C136      1.0  0.74159  0.17332  0.4364  1.0000
  C   C137      1.0  0.74967  0.1247  0.4213599999999999  1.0000
  C   C138      1.0  0.75397  0.11569  0.3773299999999999  1.0000
  C   C139      1.0  0.75117  0.15396  0.3476799999999999  1.0000
  C   C140      1.0  0.74351  0.20227  0.3622599999999999  1.0000
  C   C141      1.0  0.73883  0.21129  0.4058099999999999  1.0000
  C   C142      1.0  0.75761  0.14394  0.30090999999999996  1.0000
  C   C143      1.0  0.73456  0.18691  0.4819699999999999  1.0000
  C   C144      1.0  0.7794  0.16908  0.5144499999999997  1.0000
  C   C145      1.0  0.77704  0.18917  0.5555599999999998  1.0000
  C   C146      1.0  0.72784  0.2249  0.56593  1.0000
  C   C147      1.0  0.67907  0.23992000000000002  0.53525  1.0000
  C   C148      1.0  0.68387  0.2216  0.4938799999999999  1.0000
  C   C149      1.0  0.73014  0.24825  0.60866  1.0000
  C   C150      1.0  0.00574  0.06966  0.30037  1.0000
  C   C151      1.0  0.9354300000000001  0.08003  0.2898699999999999  1.0000
  C   C152      1.0  0.9203200000000001  0.12038  0.2637299999999999  1.0000
  C   C153      1.0  0.97267  0.15224000000000001  0.25006  1.0000
  C   C154      1.0  0.042  0.1436  0.2619199999999999  1.0000
  C   C155      1.0  0.05756  0.10221000000000001  0.2860499999999999  1.0000
  C   C156      1.0  0.9546100000000001  0.19427  0.22222999999999996  1.0000
  C   C157      1.0  0.02523  0.02568  0.32529  1.0000
  C   C158      1.0  0.06604  0.03007  0.3626899999999999  1.0000
  C   C159      1.0  0.08639  0.98855  0.3854999999999999  1.0000
  C   C160      1.0  0.06844  0.94182  0.3709699999999999  1.0000
  C   C161      1.0  0.027750000000000004  0.9369500000000001  0.33398  1.0000
  C   C162      1.0  0.00552  0.9785  0.3121099999999999  1.0000
  C   C163      1.0  0.09317  0.8980600000000001  0.39581  1.0000
  C   C164      1.0  0.55742  0.02529  0.24140999999999996  1.0000
  C   C165      1.0  0.61342  0.05661000000000001  0.2527  1.0000
  C   C166      1.0  0.61843  0.10299  0.23390999999999995  1.0000
  C   C167      1.0  0.56929  0.11891  0.20397999999999994  1.0000
  C   C168      1.0  0.51238  0.0888  0.19390999999999994  1.0000
  C   C169      1.0  0.50687  0.04266  0.21284999999999996  1.0000
  C   C170      1.0  0.57915  0.16734  0.18321  1.0000
  C   C171      1.0  0.75998  0.47379  0.24429999999999993  1.0000
  C   C172      1.0  0.81588  0.44261000000000006  0.25523  1.0000
  C   C173      1.0  0.81455  0.39338  0.24353999999999995  1.0000
  C   C174      1.0  0.75632  0.37370000000000003  0.22276  1.0000
  C   C175      1.0  0.69976  0.40389  0.21268  1.0000
  C   C176      1.0  0.70252  0.45337  0.22302999999999995  1.0000
  C   C177      1.0  0.75497  0.32052  0.21333999999999995  1.0000
  C   C178      1.0  0.45247000000000004  0.31893000000000005  0.10422  1.0000
  C   C179      1.0  0.49472999999999995  0.31758  0.030719999999999994  1.0000
  C   C180      1.0  0.42063  0.38616  0.0573  1.0000
  C   C181      1.0  0.24236  0.32701  0.4363899999999999  1.0000
  C   C182      1.0  0.25083  0.37562  0.4212899999999999  1.0000
  C   C183      1.0  0.25442  0.38448  0.3772  1.0000
  C   C184      1.0  0.25145  0.34617  0.34764  1.0000
  C   C185      1.0  0.24401  0.29784  0.3622999999999999  1.0000
  C   C186      1.0  0.23946999999999996  0.28895  0.40585999999999994  1.0000
  C   C187      1.0  0.25768  0.3561800000000001  0.3008599999999999  1.0000
  C   C188      1.0  0.23512000000000002  0.31345  0.4819499999999999  1.0000
  C   C189      1.0  0.27963  0.33135  0.51453  1.0000
  C   C190      1.0  0.27677  0.31158  0.55569  1.0000
  C   C191      1.0  0.22751  0.27587  0.56601  1.0000
  C   C192      1.0  0.17911  0.26065  0.53522  1.0000
  C   C193      1.0  0.18431  0.27879  0.4937899999999999  1.0000
  C   C194      1.0  0.22989  0.25261  0.60875  1.0000
  C   C195      1.0  0.50584  0.43009  0.2999699999999999  1.0000
  C   C196      1.0  0.4356900000000001  0.4200400000000001  0.28881  1.0000
  C   C197      1.0  0.42067000000000004  0.37955  0.2628999999999999  1.0000
  C   C198      1.0  0.47284  0.34727  0.24986999999999995  1.0000
  C   C199      1.0  0.54204  0.35566  0.2621799999999999  1.0000
  C   C200      1.0  0.55757  0.39715  0.28622  1.0000
  C   C201      1.0  0.45436999999999994  0.30522  0.22217999999999993  1.0000
  C   C202      1.0  0.52519  0.47405  0.32493  1.0000
  C   C203      1.0  0.5657  0.46979  0.3625  1.0000
  C   C204      1.0  0.58536  0.51138  0.3854299999999999  1.0000
  C   C205      1.0  0.56721  0.55804  0.37082  1.0000
  C   C206      1.0  0.52708  0.56281  0.3335899999999999  1.0000
  C   C207      1.0  0.5053  0.52119  0.31169999999999987  1.0000
  C   C208      1.0  0.59063  0.60194  0.3958499999999999  1.0000
  C   C209      1.0  0.05729999999999999  0.47471  0.24139999999999995  1.0000
  C   C210      1.0  0.11332  0.44339  0.2526799999999999  1.0000
  C   C211      1.0  0.11823  0.39699  0.23393  1.0000
  C   C212      1.0  0.06908  0.3810700000000001  0.20401  1.0000
  C   C213      1.0  0.01221  0.41121  0.19390999999999994  1.0000
  C   C214      1.0  0.006719999999999999  0.45735  0.21284999999999996  1.0000
  C   C215      1.0  0.07888  0.33261  0.18330999999999995  1.0000
  C   C216      1.0  0.26015  0.02619  0.24429999999999993  1.0000
  C   C217      1.0  0.31596  0.05742000000000001  0.25523  1.0000
  C   C218      1.0  0.31445  0.10665  0.24352  1.0000
  C   C219      1.0  0.2562  0.12628  0.22271999999999995  1.0000
  C   C220      1.0  0.19967  0.09602  0.21269  1.0000
  C   C221      1.0  0.20263  0.04654  0.22302999999999995  1.0000
  C   C222      1.0  0.255  0.17947  0.21324999999999994  1.0000
  C   C223      1.0  0.95249  0.18089  0.10419999999999997  1.0000
  C   C224      1.0  0.99531  0.18223  0.03083  1.0000
  C   C225      1.0  0.92093  0.11368  0.05724999999999999  1.0000
  C   C226      1.0  0.25841  0.17332  0.9363999999999998  1.0000
  C   C227      1.0  0.25033  0.1247  0.9213499999999998  1.0000
  C   C228      1.0  0.24602000000000002  0.11569  0.8773199999999998  1.0000
  C   C229      1.0  0.24883  0.15396  0.8476699999999998  1.0000
  C   C230      1.0  0.25649  0.20227  0.8622599999999998  1.0000
  C   C231      1.0  0.26117  0.21129  0.9058099999999998  1.0000
  C   C232      1.0  0.24239000000000002  0.14394  0.80091  1.0000
  C   C233      1.0  0.26543  0.18691  0.9819699999999998  1.0000
  C   C234      1.0  0.22059000000000004  0.16908  0.014449999999999996  1.0000
  C   C235      1.0  0.22296  0.18917  0.055559999999999984  1.0000
  C   C236      1.0  0.27215  0.2249  0.06593  1.0000
  C   C237      1.0  0.32093  0.23992000000000002  0.03525  1.0000
  C   C238      1.0  0.31613  0.2216  0.9938799999999998  1.0000
  C   C239      1.0  0.26986  0.24825  0.10865999999999998  1.0000
  C   C240      1.0  0.99426  0.06966  0.8003699999999998  1.0000
  C   C241      1.0  0.06456  0.08003  0.78987  1.0000
  C   C242      1.0  0.07967  0.12038  0.76373  1.0000
  C   C243      1.0  0.02733  0.15224000000000001  0.7500599999999997  1.0000
  C   C244      1.0  0.958  0.1436  0.7619199999999998  1.0000
  C   C245      1.0  0.94244  0.10221000000000001  0.78605  1.0000
  C   C246      1.0  0.04539  0.19427  0.7222299999999998  1.0000
  C   C247      1.0  0.97477  0.02568  0.8252899999999997  1.0000
  C   C248      1.0  0.9339600000000001  0.03007  0.86269  1.0000
  C   C249      1.0  0.9136000000000001  0.98855  0.8855  1.0000
  C   C250      1.0  0.93156  0.94182  0.8709699999999998  1.0000
  C   C251      1.0  0.97225  0.9369500000000001  0.8339799999999998  1.0000
  C   C252      1.0  0.9944800000000001  0.9785  0.8121099999999998  1.0000
  C   C253      1.0  0.90682  0.8980600000000001  0.8958099999999998  1.0000
  C   C254      1.0  0.44258  0.02529  0.7414099999999998  1.0000
  C   C255      1.0  0.38657  0.05661000000000001  0.7526999999999998  1.0000
  C   C256      1.0  0.38156  0.10299  0.73391  1.0000
  C   C257      1.0  0.43071  0.1189  0.70398  1.0000
  C   C258      1.0  0.48762  0.0888  0.6939  1.0000
  C   C259      1.0  0.49312  0.04266  0.7128399999999998  1.0000
  C   C260      1.0  0.42085000000000006  0.16734  0.6832099999999998  1.0000
  C   C261      1.0  0.24001  0.47379  0.7442999999999997  1.0000
  C   C262      1.0  0.18412  0.44261000000000006  0.75523  1.0000
  C   C263      1.0  0.18545  0.39338  0.74353  1.0000
  C   C264      1.0  0.24368  0.37370000000000003  0.72275  1.0000
  C   C265      1.0  0.30024  0.40389  0.71268  1.0000
  C   C266      1.0  0.29748  0.45337  0.7230199999999998  1.0000
  C   C267      1.0  0.24503000000000003  0.32052  0.71333  1.0000
  C   C268      1.0  0.54752  0.31893000000000005  0.60422  1.0000
  C   C269      1.0  0.50526  0.31758  0.5307199999999997  1.0000
  C   C270      1.0  0.57937  0.38616  0.5573  1.0000
  C   C271      1.0  0.24236  0.6729800000000001  0.06361  1.0000
  C   C272      1.0  0.25083  0.62437  0.07871  1.0000
  C   C273      1.0  0.25442  0.61551  0.1228  1.0000
  C   C274      1.0  0.25145  0.65383  0.15236  1.0000
  C   C275      1.0  0.24401  0.70215  0.13769  1.0000
  C   C276      1.0  0.23946999999999996  0.7110400000000001  0.09412999999999998  1.0000
  C   C277      1.0  0.25768  0.64382  0.19913999999999996  1.0000
  C   C278      1.0  0.23512000000000002  0.68655  0.01805  1.0000
  C   C279      1.0  0.27963  0.66865  0.9854699999999997  1.0000
  C   C280      1.0  0.27677  0.68842  0.9442999999999998  1.0000
  C   C281      1.0  0.22751  0.72412  0.9339899999999998  1.0000
  C   C282      1.0  0.17911  0.73935  0.9647799999999997  1.0000
  C   C283      1.0  0.18431  0.72121  0.006199999999999998  1.0000
  C   C284      1.0  0.22989  0.74739  0.8912499999999998  1.0000
  C   C285      1.0  0.50584  0.56991  0.20003  1.0000
  C   C286      1.0  0.4356900000000001  0.57996  0.21118999999999993  1.0000
  C   C287      1.0  0.42067000000000004  0.62044  0.23709999999999995  1.0000
  C   C288      1.0  0.47284  0.65272  0.25013  1.0000
  C   C289      1.0  0.54204  0.64434  0.23781  1.0000
  C   C290      1.0  0.55757  0.60285  0.21378  1.0000
  C   C291      1.0  0.45436999999999994  0.69478  0.27782  1.0000
  C   C292      1.0  0.52519  0.52595  0.17506999999999995  1.0000
  C   C293      1.0  0.5657  0.5302  0.1375  1.0000
  C   C294      1.0  0.58536  0.48861  0.11457  1.0000
  C   C295      1.0  0.56721  0.44195  0.12917999999999993  1.0000
  C   C296      1.0  0.52708  0.43719  0.16640999999999995  1.0000
  C   C297      1.0  0.5053  0.47881  0.1883  1.0000
  C   C298      1.0  0.59063  0.39806  0.10414999999999998  1.0000
  C   C299      1.0  0.05729999999999999  0.52529  0.25859999999999994  1.0000
  C   C300      1.0  0.11332  0.55661  0.24732  1.0000
  C   C301      1.0  0.11823  0.60301  0.26606999999999986  1.0000
  C   C302      1.0  0.06908  0.61893  0.29599  1.0000
  C   C303      1.0  0.01221  0.58878  0.30608999999999986  1.0000
  C   C304      1.0  0.006719999999999999  0.54265  0.28715  1.0000
  C   C305      1.0  0.07888  0.66739  0.31669  1.0000
  C   C306      1.0  0.26015  0.9738000000000002  0.2557  1.0000
  C   C307      1.0  0.31596  0.9425800000000001  0.24476999999999993  1.0000
  C   C308      1.0  0.31445  0.89335  0.25648  1.0000
  C   C309      1.0  0.2562  0.87372  0.27727  1.0000
  C   C310      1.0  0.19967  0.90397  0.2873099999999999  1.0000
  C   C311      1.0  0.20263  0.95346  0.2769699999999999  1.0000
  C   C312      1.0  0.255  0.82053  0.28675  1.0000
  C   C313      1.0  0.95249  0.81911  0.3957999999999999  1.0000
  C   C314      1.0  0.99531  0.81777  0.46917  1.0000
  C   C315      1.0  0.92092  0.88631  0.44275  1.0000
  C   C316      1.0  0.25841  0.82668  0.5636  1.0000
  C   C317      1.0  0.25033  0.8753  0.5786399999999998  1.0000
  C   C318      1.0  0.24602000000000002  0.8843100000000002  0.6226699999999997  1.0000
  C   C319      1.0  0.24883  0.8460400000000002  0.6523199999999998  1.0000
  C   C320      1.0  0.25649  0.79773  0.6377399999999998  1.0000
  C   C321      1.0  0.26117  0.7887  0.5941899999999998  1.0000
  C   C322      1.0  0.24239000000000002  0.8560600000000003  0.69909  1.0000
  C   C323      1.0  0.26543  0.81309  0.5180299999999998  1.0000
  C   C324      1.0  0.22059000000000004  0.83092  0.48554999999999987  1.0000
  C   C325      1.0  0.22296  0.81083  0.4444399999999999  1.0000
  C   C326      1.0  0.27215  0.7751000000000001  0.4340699999999999  1.0000
  C   C327      1.0  0.32093  0.7600700000000001  0.46475  1.0000
  C   C328      1.0  0.31613  0.7784  0.50612  1.0000
  C   C329      1.0  0.26986  0.75175  0.39134  1.0000
  C   C330      1.0  0.99426  0.93034  0.6996299999999998  1.0000
  C   C331      1.0  0.06456  0.91996  0.71013  1.0000
  C   C332      1.0  0.07967  0.87962  0.73627  1.0000
  C   C333      1.0  0.02733  0.84776  0.7499399999999999  1.0000
  C   C334      1.0  0.958  0.8564  0.7380799999999997  1.0000
  C   C335      1.0  0.94244  0.89779  0.71395  1.0000
  C   C336      1.0  0.04539  0.80572  0.7777699999999997  1.0000
  C   C337      1.0  0.97477  0.97432  0.6747  1.0000
  C   C338      1.0  0.9339600000000001  0.96993  0.63731  1.0000
  C   C339      1.0  0.9136000000000001  0.01145  0.6145  1.0000
  C   C340      1.0  0.93156  0.05818  0.62902  1.0000
  C   C341      1.0  0.97225  0.06305  0.6660199999999997  1.0000
  C   C342      1.0  0.9944800000000001  0.0215  0.6878899999999998  1.0000
  C   C343      1.0  0.90682  0.10193  0.60419  1.0000
  C   C344      1.0  0.44258  0.9747  0.7585799999999998  1.0000
  C   C345      1.0  0.38657  0.94339  0.7472999999999997  1.0000
  C   C346      1.0  0.38156  0.89701  0.7660899999999998  1.0000
  C   C347      1.0  0.43071  0.88109  0.79602  1.0000
  C   C348      1.0  0.48762  0.9112  0.8060899999999998  1.0000
  C   C349      1.0  0.49312  0.95734  0.78715  1.0000
  C   C350      1.0  0.42085000000000006  0.83266  0.8167799999999997  1.0000
  C   C351      1.0  0.24001  0.52621  0.7556999999999998  1.0000
  C   C352      1.0  0.18412  0.55739  0.7447599999999998  1.0000
  C   C353      1.0  0.18545  0.60662  0.75646  1.0000
  C   C354      1.0  0.24368  0.62629  0.77724  1.0000
  C   C355      1.0  0.30024  0.59611  0.78732  1.0000
  C   C356      1.0  0.29748  0.54662  0.77697  1.0000
  C   C357      1.0  0.24503000000000003  0.67947  0.7866599999999998  1.0000
  C   C358      1.0  0.54752  0.68106  0.89578  1.0000
  C   C359      1.0  0.50526  0.6824200000000001  0.9692799999999998  1.0000
  C   C360      1.0  0.57937  0.6138400000000002  0.9427  1.0000
  N   N1        1.0  0.04467  0.83955  0.9342899999999997  1.0000
  N   N2        1.0  0.45500000000000007  0.66063  0.43432  1.0000
  N   N3        1.0  0.04468  0.16044  0.5657099999999998  1.0000
  N   N4        1.0  0.45500000000000007  0.33936  0.06568  1.0000
  N   N5        1.0  0.9553199999999998  0.16044  0.06571  1.0000
  N   N6        1.0  0.545  0.33936  0.5656799999999997  1.0000
  N   N7        1.0  0.9553199999999998  0.83955  0.43429  1.0000
  N   N8        1.0  0.545  0.66063  0.9343199999999998  1.0000
  O   O1        1.0  0.74669  0.58455  0.55241  1.0000
  O   O2        1.0  0.73286  0.59971  0.71213  1.0000
  O   O3        1.0  0.74678  0.6799000000000001  0.7249399999999998  1.0000
  O   O4        1.0  0.67316  0.6333900000000001  0.4955299999999999  1.0000
  O   O5        1.0  0.71191  0.75074  0.37204  1.0000
  O   O6        1.0  0.8261  0.76445  0.37424  1.0000
  O   O7        1.0  0.61501  0.54991  0.69688  1.0000
  O   O8        1.0  0.60796  0.69983  0.7920799999999998  1.0000
  O   O9        1.0  0.49844  0.72598  0.78819  1.0000
  O   O10       1.0  0.41356  0.57461  0.6212899999999998  1.0000
  O   O11       1.0  0.4055  0.35685  0.62366  1.0000
  O   O12       1.0  0.39569  0.40481  0.56487  1.0000
  O   O13       1.0  0.84049  0.54024  0.7183299999999998  1.0000
  O   O14       1.0  0.8657600000000001  0.6920700000000001  0.8092899999999997  1.0000
  O   O15       1.0  0.9682799999999999  0.68452  0.84178  1.0000
  O   O16       1.0  0.63089  0.96152  0.7207399999999998  1.0000
  O   O17       1.0  0.68659  0.7976  0.79024  1.0000
  O   O18       1.0  0.80266  0.7977  0.7900599999999998  1.0000
  O   O19       1.0  0.0176  0.7794100000000002  0.8854499999999997  1.0000
  O   O20       1.0  0.75059  0.91493  0.052089999999999984  1.0000
  O   O21       1.0  0.76714  0.90019  0.21204999999999993  1.0000
  O   O22       1.0  0.7533  0.81999  0.22494999999999996  1.0000
  O   O23       1.0  0.82634  0.86638  0.9955999999999998  1.0000
  O   O24       1.0  0.7883  0.7476000000000003  0.8721699999999998  1.0000
  O   O25       1.0  0.67384  0.7354  0.8742299999999997  1.0000
  O   O26       1.0  0.88487  0.94964  0.19488  1.0000
  O   O27       1.0  0.89227  0.80029  0.29198  1.0000
  O   O28       1.0  0.00224  0.77488  0.28825  1.0000
  O   O29       1.0  0.0865  0.92541  0.12124999999999997  1.0000
  O   O30       1.0  0.09772  0.14309  0.12375  1.0000
  O   O31       1.0  0.10736000000000001  0.09504000000000001  0.06503  1.0000
  O   O32       1.0  0.65957  0.95976  0.21828  1.0000
  O   O33       1.0  0.63452  0.80796  0.30942  1.0000
  O   O34       1.0  0.53191  0.81558  0.34182  1.0000
  O   O35       1.0  0.8688800000000001  0.53833  0.22070999999999993  1.0000
  O   O36       1.0  0.81336  0.70244  0.29017  1.0000
  O   O37       1.0  0.69725  0.7022200000000001  0.28998  1.0000
  O   O38       1.0  0.48231000000000007  0.7208  0.3854799999999999  1.0000
  O   O39       1.0  0.74669  0.41545  0.9475799999999998  1.0000
  O   O40       1.0  0.73286  0.40029  0.78787  1.0000
  O   O41       1.0  0.74678  0.3201  0.77505  1.0000
  O   O42       1.0  0.67316  0.36661  0.00447  1.0000
  O   O43       1.0  0.71191  0.24926  0.12795999999999993  1.0000
  O   O44       1.0  0.8261  0.23555000000000006  0.12576  1.0000
  O   O45       1.0  0.61501  0.45009  0.80312  1.0000
  O   O46       1.0  0.60796  0.30017000000000005  0.7079199999999998  1.0000
  O   O47       1.0  0.49844  0.27402  0.71181  1.0000
  O   O48       1.0  0.41356  0.42538  0.8787099999999998  1.0000
  O   O49       1.0  0.4055  0.64315  0.8763299999999998  1.0000
  O   O50       1.0  0.39569  0.59519  0.9351199999999997  1.0000
  O   O51       1.0  0.84049  0.45976  0.7816699999999998  1.0000
  O   O52       1.0  0.8657600000000001  0.30793  0.6907099999999998  1.0000
  O   O53       1.0  0.9682799999999999  0.31548  0.65822  1.0000
  O   O54       1.0  0.63089  0.03848  0.7792499999999998  1.0000
  O   O55       1.0  0.68659  0.20240000000000002  0.70976  1.0000
  O   O56       1.0  0.80266  0.20229  0.7099399999999998  1.0000
  O   O57       1.0  0.0176  0.22059000000000004  0.6145499999999998  1.0000
  O   O58       1.0  0.75059  0.08506  0.44791  1.0000
  O   O59       1.0  0.76714  0.09981  0.28795  1.0000
  O   O60       1.0  0.7533  0.18001  0.27505  1.0000
  O   O61       1.0  0.82634  0.13362  0.5044  1.0000
  O   O62       1.0  0.7883  0.2524  0.6278299999999998  1.0000
  O   O63       1.0  0.67384  0.2646  0.6257699999999998  1.0000
  O   O64       1.0  0.88487  0.05036  0.3051099999999999  1.0000
  O   O65       1.0  0.89227  0.19971  0.20802  1.0000
  O   O66       1.0  0.00224  0.22512  0.21175  1.0000
  O   O67       1.0  0.0865  0.07459  0.37875  1.0000
  O   O68       1.0  0.09772  0.85691  0.37624999999999986  1.0000
  O   O69       1.0  0.10736000000000001  0.90496  0.4349699999999999  1.0000
  O   O70       1.0  0.65957  0.04023  0.2817199999999999  1.0000
  O   O71       1.0  0.63452  0.19204  0.19058  1.0000
  O   O72       1.0  0.53191  0.18442  0.15817999999999993  1.0000
  O   O73       1.0  0.8688800000000001  0.46166000000000007  0.27929  1.0000
  O   O74       1.0  0.81336  0.29756  0.20982999999999993  1.0000
  O   O75       1.0  0.69725  0.29778  0.21001999999999996  1.0000
  O   O76       1.0  0.48231000000000007  0.2792  0.11451999999999997  1.0000
  O   O77       1.0  0.2533  0.41545  0.4475899999999999  1.0000
  O   O78       1.0  0.26714  0.40029  0.28787  1.0000
  O   O79       1.0  0.25322  0.3201  0.27505  1.0000
  O   O80       1.0  0.32684  0.36661  0.50447  1.0000
  O   O81       1.0  0.28809  0.24926  0.62796  1.0000
  O   O82       1.0  0.1739  0.23555000000000006  0.62575  1.0000
  O   O83       1.0  0.38499  0.45009  0.30312  1.0000
  O   O84       1.0  0.39204  0.30017000000000005  0.20791999999999994  1.0000
  O   O85       1.0  0.50156  0.27402  0.21181  1.0000
  O   O86       1.0  0.58644  0.42538  0.3787099999999999  1.0000
  O   O87       1.0  0.5945  0.64315  0.3763299999999999  1.0000
  O   O88       1.0  0.60431  0.59519  0.4351199999999999  1.0000
  O   O89       1.0  0.15951  0.45976  0.28166999999999986  1.0000
  O   O90       1.0  0.13424  0.30793  0.19070999999999996  1.0000
  O   O91       1.0  0.03172  0.31548  0.15822  1.0000
  O   O92       1.0  0.3691  0.03848  0.27925  1.0000
  O   O93       1.0  0.3134  0.20240000000000002  0.20975999999999995  1.0000
  O   O94       1.0  0.19734  0.20229  0.20993999999999993  1.0000
  O   O95       1.0  0.9824  0.22059000000000004  0.11454999999999997  1.0000
  O   O96       1.0  0.24941  0.08506  0.9479  1.0000
  O   O97       1.0  0.23286000000000004  0.09981  0.7879499999999999  1.0000
  O   O98       1.0  0.24669  0.18001  0.77505  1.0000
  O   O99       1.0  0.17366  0.13362  0.0043999999999999985  1.0000
  O   O100      1.0  0.2117  0.2524  0.12783  1.0000
  O   O101      1.0  0.32615  0.2646  0.12577  1.0000
  O   O102      1.0  0.11513000000000001  0.05036  0.80511  1.0000
  O   O103      1.0  0.10773000000000002  0.19971  0.7080199999999998  1.0000
  O   O104      1.0  0.9977600000000001  0.22512  0.71175  1.0000
  O   O105      1.0  0.9135000000000001  0.07459  0.87875  1.0000
  O   O106      1.0  0.9022799999999999  0.85691  0.87625  1.0000
  O   O107      1.0  0.89264  0.90496  0.9349699999999999  1.0000
  O   O108      1.0  0.34042  0.04023  0.78172  1.0000
  O   O109      1.0  0.36548  0.19204  0.6905799999999997  1.0000
  O   O110      1.0  0.46809  0.18442  0.6581699999999998  1.0000
  O   O111      1.0  0.13111  0.46166000000000007  0.7792899999999998  1.0000
  O   O112      1.0  0.18664  0.29756  0.70983  1.0000
  O   O113      1.0  0.30275  0.29778  0.7100199999999998  1.0000
  O   O114      1.0  0.51769  0.2792  0.6145199999999997  1.0000
  O   O115      1.0  0.2533  0.58455  0.052409999999999984  1.0000
  O   O116      1.0  0.26714  0.59971  0.21213  1.0000
  O   O117      1.0  0.25322  0.6799000000000001  0.22493999999999995  1.0000
  O   O118      1.0  0.32684  0.6333900000000001  0.9955299999999998  1.0000
  O   O119      1.0  0.28809  0.75074  0.8720399999999998  1.0000
  O   O120      1.0  0.1739  0.76445  0.8742399999999998  1.0000
  O   O121      1.0  0.38499  0.54991  0.19687999999999994  1.0000
  O   O122      1.0  0.39204  0.69983  0.29208  1.0000
  O   O123      1.0  0.50156  0.72598  0.28819  1.0000
  O   O124      1.0  0.58644  0.57461  0.12128999999999997  1.0000
  O   O125      1.0  0.5945  0.35685  0.12366  1.0000
  O   O126      1.0  0.60431  0.40481  0.06486999999999997  1.0000
  O   O127      1.0  0.15951  0.54024  0.21833  1.0000
  O   O128      1.0  0.13424  0.6920700000000001  0.3092899999999999  1.0000
  O   O129      1.0  0.03172  0.68452  0.34177999999999986  1.0000
  O   O130      1.0  0.3691  0.96152  0.22074999999999995  1.0000
  O   O131      1.0  0.3134  0.7976  0.29024  1.0000
  O   O132      1.0  0.19734  0.7977  0.2900599999999999  1.0000
  O   O133      1.0  0.9824  0.7794100000000002  0.3854499999999999  1.0000
  O   O134      1.0  0.24941  0.91493  0.5520899999999997  1.0000
  O   O135      1.0  0.23286000000000004  0.90019  0.7120499999999997  1.0000
  O   O136      1.0  0.24669  0.81999  0.72495  1.0000
  O   O137      1.0  0.17366  0.86638  0.4955999999999999  1.0000
  O   O138      1.0  0.2117  0.7476000000000003  0.3721699999999999  1.0000
  O   O139      1.0  0.32615  0.7354  0.37423  1.0000
  O   O140      1.0  0.11513000000000001  0.94964  0.6948799999999998  1.0000
  O   O141      1.0  0.10773000000000002  0.80029  0.7919799999999998  1.0000
  O   O142      1.0  0.9977600000000001  0.77488  0.78825  1.0000
  O   O143      1.0  0.9135000000000001  0.92541  0.62125  1.0000
  O   O144      1.0  0.9022799999999999  0.14309  0.62375  1.0000
  O   O145      1.0  0.89264  0.09504000000000001  0.56503  1.0000
  O   O146      1.0  0.34042  0.95976  0.71828  1.0000
  O   O147      1.0  0.36548  0.80796  0.8094199999999998  1.0000
  O   O148      1.0  0.46809  0.81558  0.8418199999999998  1.0000
  O   O149      1.0  0.13111  0.53833  0.7207099999999997  1.0000
  O   O150      1.0  0.18664  0.70244  0.7901699999999998  1.0000
  O   O151      1.0  0.30275  0.7022200000000001  0.78997  1.0000
  O   O152      1.0  0.51769  0.7208  0.8854799999999998  1.0000
