data_image0
_chemical_formula_structural       Zn32H288C480N48O152
_chemical_formula_sum              "Zn32 H288 C480 N48 O152"
_cell_length_a       28.28099
_cell_length_b       34.45908000000001
_cell_length_c       36.42166999999999
_cell_angle_alpha    109.28691000000002
_cell_angle_beta     90.01034
_cell_angle_gamma    89.98153000000002

_symmetry_space_group_name_H-M    'P 1'
_symmetry_Int_Tables_number       1

loop_
  _symmetry_equiv_pos_as_xyz
  'x,y,z'

loop_
  _atom_site_type_symbol
  _atom_site_label
  _atom_site_symmetry_multiplicity
  _atom_site_fract_x
  _atom_site_fract_y
  _atom_site_fract_z
  _atom_site_occupancy
  Zn  Zn1       1.0  0.46556  0.19475  0.40153  1.0000
  Zn  Zn2       1.0  0.49623  0.28430000000000005  0.3957600000000001  1.0000
  Zn  Zn3       1.0  0.017499999999999995  0.71033  0.32118  1.0000
  Zn  Zn4       1.0  0.57216  0.20963000000000004  0.37844  1.0000
  Zn  Zn5       1.0  0.00358  0.63351  0.87098  1.0000
  Zn  Zn6       1.0  0.9846700000000002  0.70986  0.9436800000000001  1.0000
  Zn  Zn7       1.0  0.53177  0.22025  0.86248  1.0000
  Zn  Zn8       1.0  0.07629  0.71002  0.8915200000000001  1.0000
  Zn  Zn9       1.0  0.03437  0.69472  0.4014800000000001  1.0000
  Zn  Zn10      1.0  0.00378  0.78433  0.3957600000000001  1.0000
  Zn  Zn11      1.0  0.48253  0.21031  0.32123  1.0000
  Zn  Zn12      1.0  0.92787  0.70963  0.37837  1.0000
  Zn  Zn13      1.0  0.49613  0.1335000000000001  0.8707800000000002  1.0000
  Zn  Zn14      1.0  0.51522  0.20993000000000006  0.94363  1.0000
  Zn  Zn15      1.0  0.96786  0.7200000000000001  0.8625400000000002  1.0000
  Zn  Zn16      1.0  0.42307  0.2099300000000001  0.8915400000000002  1.0000
  Zn  Zn17      1.0  0.96563  0.30528000000000005  0.5985200000000002  1.0000
  Zn  Zn18      1.0  0.99622  0.21567000000000008  0.6042500000000002  1.0000
  Zn  Zn19      1.0  0.51747  0.78969  0.67877  1.0000
  Zn  Zn20      1.0  0.07214  0.2903700000000001  0.6216300000000002  1.0000
  Zn  Zn21      1.0  0.50387  0.8665  0.12923  1.0000
  Zn  Zn22      1.0  0.48478  0.79006  0.05637  1.0000
  Zn  Zn23      1.0  0.03214  0.28  0.13747000000000006  1.0000
  Zn  Zn24      1.0  0.57693  0.79007  0.10846  1.0000
  Zn  Zn25      1.0  0.53445  0.80525  0.59847  1.0000
  Zn  Zn26      1.0  0.50377  0.7157000000000001  0.60424  1.0000
  Zn  Zn27      1.0  0.9825  0.28967  0.67882  1.0000
  Zn  Zn28      1.0  0.42784  0.79037  0.62156  1.0000
  Zn  Zn29      1.0  0.99642  0.36649  0.12902  1.0000
  Zn  Zn30      1.0  0.01533  0.29014  0.056320000000000016  1.0000
  Zn  Zn31      1.0  0.46823  0.77975  0.13752  1.0000
  Zn  Zn32      1.0  0.92372  0.28998  0.10848  1.0000
  H   H1        1.0  0.347  0.34211  0.62219  1.0000
  H   H2        1.0  0.27697  0.51238  0.78502  1.0000
  H   H3        1.0  0.40288  0.36566  0.73722  1.0000
  H   H4        1.0  0.1357  0.87668  0.21713  1.0000
  H   H5        1.0  0.26314  0.017479999999999992  0.26637  1.0000
  H   H6        1.0  0.10305  0.90897  0.12197  1.0000
  H   H7        1.0  0.8767  0.52601  0.14248  1.0000
  H   H8        1.0  0.84107  0.55561  0.0447  1.0000
  H   H9        1.0  0.72033  0.41251  0.99854  1.0000
  H   H10       1.0  0.59437  0.04785999999999999  0.52658  1.0000
  H   H11       1.0  0.64917  0.07094  0.64358  1.0000
  H   H12       1.0  0.77833  0.9441900000000001  0.50679  1.0000
  H   H13       1.0  0.42825  0.35591  0.4917  1.0000
  H   H14       1.0  0.39637  0.39546  0.55743  1.0000
  H   H15       1.0  0.36219  0.28112  0.57529  1.0000
  H   H16       1.0  0.39369000000000004  0.2422800000000001  0.5095700000000002  1.0000
  H   H17       1.0  0.295  0.46402  0.6615000000000002  1.0000
  H   H18       1.0  0.2819  0.44411  0.77219  1.0000
  H   H19       1.0  0.37033  0.36481  0.68267  1.0000
  H   H20       1.0  0.15776  0.51193  0.7514400000000002  1.0000
  H   H21       1.0  0.09541  0.55782  0.79161  1.0000
  H   H22       1.0  0.20187  0.63035  0.8681  1.0000
  H   H23       1.0  0.26399  0.58335  0.82978  1.0000
  H   H24       1.0  0.32421  0.32126999999999994  0.79391  1.0000
  H   H25       1.0  0.35494000000000003  0.27574  0.82946  1.0000
  H   H26       1.0  0.49657  0.29314  0.79594  1.0000
  H   H27       1.0  0.46656  0.33792  0.7595600000000001  1.0000
  H   H28       1.0  0.05168  0.87815  0.35182  1.0000
  H   H29       1.0  0.08886  0.92262  0.31766  1.0000
  H   H30       1.0  0.10895  0.81549  0.21628  1.0000
  H   H31       1.0  0.07111  0.77193  0.25045  1.0000
  H   H32       1.0  0.18965000000000004  0.99981  0.26644  1.0000
  H   H33       1.0  0.22524  0.98476  0.14699  1.0000
  H   H34       1.0  0.13007  0.90031  0.17357  1.0000
  H   H35       1.0  0.29527  0.10522  0.23340999999999998  1.0000
  H   H36       1.0  0.3569  0.15599  0.26868  1.0000
  H   H37       1.0  0.37451  0.09177000000000002  0.35085  1.0000
  H   H38       1.0  0.31525000000000003  0.040640000000000016  0.31549000000000005  1.0000
  H   H39       1.0  0.04482  0.86866  0.08993  1.0000
  H   H40       1.0  0.01797  0.80869  0.03429  1.0000
  H   H41       1.0  0.15574  0.79906  0.98277  1.0000
  H   H42       1.0  0.18374  0.85888  0.039060000000000004  1.0000
  H   H43       1.0  0.96995  0.62228  0.22613  1.0000
  H   H44       1.0  0.93627  0.5666500000000001  0.16994  1.0000
  H   H45       1.0  0.80494  0.57437  0.23207  1.0000
  H   H46       1.0  0.8400000000000001  0.6292600000000002  0.28879000000000005  1.0000
  H   H47       1.0  0.84947  0.53408  0.09081  1.0000
  H   H48       1.0  0.7872700000000001  0.43308  0.00155  1.0000
  H   H49       1.0  0.75097  0.45521  0.12218000000000001  1.0000
  H   H50       1.0  0.86858  0.61514  0.04292  1.0000
  H   H51       1.0  0.91565  0.65464  0.009540000000000003  1.0000
  H   H52       1.0  0.94666  0.54323  0.91661  1.0000
  H   H53       1.0  0.9002200000000001  0.50266  0.94999  1.0000
  H   H54       1.0  0.67851  0.38123000000000007  0.9443000000000001  1.0000
  H   H55       1.0  0.62565  0.32415  0.9066500000000001  1.0000
  H   H56       1.0  0.62419  0.27727  0.00206  1.0000
  H   H57       1.0  0.67714  0.33453  0.04047000000000001  1.0000
  H   H58       1.0  0.49966  0.11934000000000003  0.4684900000000001  1.0000
  H   H59       1.0  0.53111  0.07555  0.50535  1.0000
  H   H60       1.0  0.6716200000000001  0.08704999999999997  0.4643  1.0000
  H   H61       1.0  0.63968  0.13205  0.42871  1.0000
  H   H62       1.0  0.6261  0.05039999999999999  0.58186  1.0000
  H   H63       1.0  0.68844  0.94495  0.6019200000000002  1.0000
  H   H64       1.0  0.71362  0.9685099999999999  0.49405000000000004  1.0000
  H   H65       1.0  0.64504  0.1306  0.69487  1.0000
  H   H66       1.0  0.61365  0.16961  0.76053  1.0000
  H   H67       1.0  0.54796  0.0599  0.76697  1.0000
  H   H68       1.0  0.579  0.02017999999999998  0.70106  1.0000
  H   H69       1.0  0.84893  0.92983  0.47647999999999996  1.0000
  H   H70       1.0  0.90674  0.87752  0.43837  1.0000
  H   H71       1.0  0.82349  0.7818900000000001  0.4575500000000001  1.0000
  H   H72       1.0  0.76697  0.83435  0.49844  1.0000
  H   H73       1.0  0.15297  0.84181  0.62216  1.0000
  H   H74       1.0  0.22252  0.01275999999999996  0.78408  1.0000
  H   H75       1.0  0.09608  0.86545  0.73686  1.0000
  H   H76       1.0  0.36412  0.37665  0.21729000000000007  1.0000
  H   H77       1.0  0.23731  0.51774  0.26666  1.0000
  H   H78       1.0  0.39687  0.40867000000000003  0.12217000000000001  1.0000
  H   H79       1.0  0.62343  0.0265  0.14235  1.0000
  H   H80       1.0  0.65797  0.05557  0.04484000000000001  1.0000
  H   H81       1.0  0.77919  0.91227  0.9981800000000001  1.0000
  H   H82       1.0  0.90568  0.54785  0.52641  1.0000
  H   H83       1.0  0.85085  0.57098  0.64339  1.0000
  H   H84       1.0  0.72224  0.44384  0.50615  1.0000
  H   H85       1.0  0.07176  0.85583  0.49177  1.0000
  H   H86       1.0  0.1037  0.89525  0.5575500000000002  1.0000
  H   H87       1.0  0.13765  0.78079  0.57525  1.0000
  H   H88       1.0  0.10608000000000001  0.74207  0.50947  1.0000
  H   H89       1.0  0.20587  0.96298  0.66125  1.0000
  H   H90       1.0  0.21815  0.9436  0.7722300000000002  1.0000
  H   H91       1.0  0.12925  0.8646800000000001  0.6827800000000003  1.0000
  H   H92       1.0  0.34266  0.011930000000000024  0.75146  1.0000
  H   H93       1.0  0.40438  0.058350000000000006  0.79184  1.0000
  H   H94       1.0  0.29698  0.13090999999999997  0.86726  1.0000
  H   H95       1.0  0.23536  0.08341999999999998  0.82871  1.0000
  H   H96       1.0  0.17420000000000002  0.82148  0.7944500000000002  1.0000
  H   H97       1.0  0.14303  0.7760400000000001  0.82986  1.0000
  H   H98       1.0  0.00169  0.79376  0.79583  1.0000
  H   H99       1.0  0.03222  0.8384400000000002  0.75957  1.0000
  H   H100      1.0  0.44845  0.37817  0.35191  1.0000
  H   H101      1.0  0.41114  0.42265  0.31781  1.0000
  H   H102      1.0  0.39099  0.31554  0.21641  1.0000
  H   H103      1.0  0.42896  0.27196  0.25052  1.0000
  H   H104      1.0  0.31051  0.49979999999999997  0.26661  1.0000
  H   H105      1.0  0.27555  0.48552000000000006  0.14717  1.0000
  H   H106      1.0  0.37006  0.40046  0.17355  1.0000
  H   H107      1.0  0.20473  0.60536  0.23364000000000001  1.0000
  H   H108      1.0  0.14302  0.6560400000000001  0.269  1.0000
  H   H109      1.0  0.12542  0.5914699999999999  0.35086  1.0000
  H   H110      1.0  0.18478000000000003  0.54053  0.31553000000000003  1.0000
  H   H111      1.0  0.4553  0.36873  0.08984000000000003  1.0000
  H   H112      1.0  0.48184  0.30854  0.03429  1.0000
  H   H113      1.0  0.34402  0.2992600000000001  0.9828400000000002  1.0000
  H   H114      1.0  0.31628  0.35938  0.03902  1.0000
  H   H115      1.0  0.53028  0.12253  0.22601  1.0000
  H   H116      1.0  0.56395  0.06689  0.16982  1.0000
  H   H117      1.0  0.69496  0.07393000000000001  0.23228  1.0000
  H   H118      1.0  0.6599300000000001  0.12889  0.28897  1.0000
  H   H119      1.0  0.65073  0.03441  0.0909  1.0000
  H   H120      1.0  0.7125500000000001  0.93346  0.00136  1.0000
  H   H121      1.0  0.74834  0.9547  0.12199000000000002  1.0000
  H   H122      1.0  0.63118  0.1153  0.04257  1.0000
  H   H123      1.0  0.58394  0.15469  0.009250000000000003  1.0000
  H   H124      1.0  0.55164  0.042980000000000025  0.91703  1.0000
  H   H125      1.0  0.59852  0.0026100000000000216  0.9504100000000001  1.0000
  H   H126      1.0  0.8214  0.88111  0.94413  1.0000
  H   H127      1.0  0.87443  0.8240300000000002  0.9067000000000002  1.0000
  H   H128      1.0  0.8757500000000001  0.77745  0.00231  1.0000
  H   H129      1.0  0.82265  0.83469  0.04049  1.0000
  H   H130      1.0  0.0004200000000000001  0.61949  0.46836  1.0000
  H   H131      1.0  0.96909  0.57565  0.50523  1.0000
  H   H132      1.0  0.8284700000000002  0.58719  0.46427  1.0000
  H   H133      1.0  0.86032  0.63222  0.42868  1.0000
  H   H134      1.0  0.87395  0.55066  0.58169  1.0000
  H   H135      1.0  0.81167  0.44513  0.60175  1.0000
  H   H136      1.0  0.78645  0.46863999999999995  0.49398  1.0000
  H   H137      1.0  0.85483  0.63057  0.69465  1.0000
  H   H138      1.0  0.88625  0.6696700000000001  0.7604000000000001  1.0000
  H   H139      1.0  0.95196  0.55988  0.7668  1.0000
  H   H140      1.0  0.9209  0.52021  0.7009200000000002  1.0000
  H   H141      1.0  0.65127  0.42982000000000004  0.47680000000000006  1.0000
  H   H142      1.0  0.5934  0.37762  0.43863  1.0000
  H   H143      1.0  0.67622  0.28184  0.45794  1.0000
  H   H144      1.0  0.73276  0.33419000000000004  0.49906999999999996  1.0000
  H   H145      1.0  0.8470300000000001  0.15819  0.37784  1.0000
  H   H146      1.0  0.77748  0.98724  0.21592  1.0000
  H   H147      1.0  0.90392  0.13455  0.26314  1.0000
  H   H148      1.0  0.63589  0.62335  0.78271  1.0000
  H   H149      1.0  0.7627  0.4822600000000001  0.73335  1.0000
  H   H150      1.0  0.60313  0.59133  0.87784  1.0000
  H   H151      1.0  0.37657  0.9734999999999999  0.85766  1.0000
  H   H152      1.0  0.34203  0.9444300000000002  0.9551600000000001  1.0000
  H   H153      1.0  0.22081  0.08773  0.00182  1.0000
  H   H154      1.0  0.09433  0.45215000000000005  0.47359000000000007  1.0000
  H   H155      1.0  0.14915000000000003  0.42902  0.35661  1.0000
  H   H156      1.0  0.27776  0.55616  0.49385  1.0000
  H   H157      1.0  0.92825  0.14417000000000002  0.50823  1.0000
  H   H158      1.0  0.8963  0.10475  0.44245  1.0000
  H   H159      1.0  0.86235  0.21921000000000004  0.4247500000000001  1.0000
  H   H160      1.0  0.89392  0.25793  0.49053  1.0000
  H   H161      1.0  0.79413  0.03702000000000005  0.3387600000000001  1.0000
  H   H162      1.0  0.78185  0.056400000000000006  0.22778000000000007  1.0000
  H   H163      1.0  0.87075  0.13532  0.31722  1.0000
  H   H164      1.0  0.65735  0.98807  0.24854  1.0000
  H   H165      1.0  0.5956199999999999  0.94165  0.20816000000000007  1.0000
  H   H166      1.0  0.70302  0.86909  0.13274  1.0000
  H   H167      1.0  0.76464  0.9165800000000001  0.17129  1.0000
  H   H168      1.0  0.82581  0.17852  0.20555000000000007  1.0000
  H   H169      1.0  0.85697  0.22395000000000007  0.17015  1.0000
  H   H170      1.0  0.99831  0.20624000000000003  0.20417000000000002  1.0000
  H   H171      1.0  0.96778  0.16156000000000004  0.24044000000000001  1.0000
  H   H172      1.0  0.55155  0.62183  0.64809  1.0000
  H   H173      1.0  0.58887  0.5773500000000001  0.68219  1.0000
  H   H174      1.0  0.60901  0.68445  0.7836  1.0000
  H   H175      1.0  0.5710400000000001  0.72804  0.7494800000000003  1.0000
  H   H176      1.0  0.6895  0.5002  0.73339  1.0000
  H   H177      1.0  0.72445  0.51448  0.85284  1.0000
  H   H178      1.0  0.62994  0.59954  0.82645  1.0000
  H   H179      1.0  0.79527  0.39464000000000005  0.7663600000000003  1.0000
  H   H180      1.0  0.85699  0.3439600000000001  0.7310000000000002  1.0000
  H   H181      1.0  0.8745800000000001  0.40853  0.64914  1.0000
  H   H182      1.0  0.81522  0.45946  0.68447  1.0000
  H   H183      1.0  0.5447  0.6312700000000001  0.91017  1.0000
  H   H184      1.0  0.51817  0.69146  0.9657200000000001  1.0000
  H   H185      1.0  0.65599  0.70074  0.01716000000000001  1.0000
  H   H186      1.0  0.6837200000000001  0.64062  0.9609800000000001  1.0000
  H   H187      1.0  0.46973  0.87747  0.774  1.0000
  H   H188      1.0  0.43605000000000005  0.93311  0.8301800000000003  1.0000
  H   H189      1.0  0.30504  0.9260700000000001  0.76772  1.0000
  H   H190      1.0  0.34007  0.87111  0.71103  1.0000
  H   H191      1.0  0.34927  0.9655900000000001  0.9091  1.0000
  H   H192      1.0  0.28746  0.06653999999999999  0.99864  1.0000
  H   H193      1.0  0.25166  0.045300000000000104  0.8780100000000002  1.0000
  H   H194      1.0  0.36882  0.8847  0.9574300000000001  1.0000
  H   H195      1.0  0.41607  0.84531  0.99075  1.0000
  H   H196      1.0  0.44836  0.95702  0.08297  1.0000
  H   H197      1.0  0.40148  0.9973900000000001  0.04959  1.0000
  H   H198      1.0  0.1786  0.11889  0.05587000000000002  1.0000
  H   H199      1.0  0.12558  0.17597  0.0933  1.0000
  H   H200      1.0  0.12425  0.22254  0.9976900000000001  1.0000
  H   H201      1.0  0.17735  0.16531  0.95951  1.0000
  H   H202      1.0  0.99959  0.38051  0.53165  1.0000
  H   H203      1.0  0.030920000000000003  0.42435  0.49477000000000004  1.0000
  H   H204      1.0  0.17153000000000002  0.41281  0.53573  1.0000
  H   H205      1.0  0.13968  0.3677800000000001  0.5713200000000003  1.0000
  H   H206      1.0  0.12605  0.44934  0.41832  1.0000
  H   H207      1.0  0.18834  0.55487  0.39825  1.0000
  H   H208      1.0  0.21355  0.53136  0.50602  1.0000
  H   H209      1.0  0.14518  0.36943  0.30535  1.0000
  H   H210      1.0  0.11376  0.33033  0.23960000000000004  1.0000
  H   H211      1.0  0.04805  0.44012000000000007  0.23320000000000002  1.0000
  H   H212      1.0  0.0791  0.47979  0.29908  1.0000
  H   H213      1.0  0.34873  0.5701800000000001  0.5232  1.0000
  H   H214      1.0  0.40661  0.62238  0.56137  1.0000
  H   H215      1.0  0.32379  0.71815  0.54206  1.0000
  H   H216      1.0  0.26725  0.6658100000000001  0.5009300000000002  1.0000
  H   H217      1.0  0.653  0.65789  0.37781  1.0000
  H   H218      1.0  0.72303  0.48762000000000005  0.21498000000000006  1.0000
  H   H219      1.0  0.5971200000000001  0.63434  0.26278  1.0000
  H   H220      1.0  0.86431  0.12332000000000008  0.7828800000000002  1.0000
  H   H221      1.0  0.73686  0.98252  0.73364  1.0000
  H   H222      1.0  0.8969500000000001  0.09103  0.87803  1.0000
  H   H223      1.0  0.12331  0.4739900000000001  0.85752  1.0000
  H   H224      1.0  0.15893  0.44439  0.9553  1.0000
  H   H225      1.0  0.27967  0.58748  0.0014600000000000001  1.0000
  H   H226      1.0  0.40563  0.95214  0.47343  1.0000
  H   H227      1.0  0.35083  0.92906  0.35642  1.0000
  H   H228      1.0  0.22168  0.05581000000000001  0.49321  1.0000
  H   H229      1.0  0.5717500000000001  0.64409  0.50831  1.0000
  H   H230      1.0  0.60364  0.60454  0.44257  1.0000
  H   H231      1.0  0.63782  0.7188799999999999  0.42472  1.0000
  H   H232      1.0  0.60631  0.75772  0.49043000000000003  1.0000
  H   H233      1.0  0.705  0.53598  0.33851  1.0000
  H   H234      1.0  0.7181  0.55589  0.22781  1.0000
  H   H235      1.0  0.62968  0.63518  0.31733  1.0000
  H   H236      1.0  0.84224  0.48807  0.24856  1.0000
  H   H237      1.0  0.9046  0.44218  0.2084  1.0000
  H   H238      1.0  0.79813  0.36965  0.1319  1.0000
  H   H239      1.0  0.73602  0.41664  0.17022  1.0000
  H   H240      1.0  0.6758  0.67873  0.20609  1.0000
  H   H241      1.0  0.64506  0.72426  0.17055  1.0000
  H   H242      1.0  0.50343  0.70686  0.20406  1.0000
  H   H243      1.0  0.53344  0.66208  0.24045  1.0000
  H   H244      1.0  0.94832  0.12185000000000003  0.64818  1.0000
  H   H245      1.0  0.91114  0.07738000000000005  0.68235  1.0000
  H   H246      1.0  0.89106  0.18451000000000006  0.7837200000000002  1.0000
  H   H247      1.0  0.9288900000000001  0.22807000000000002  0.74955  1.0000
  H   H248      1.0  0.8103500000000001  0.0001900000000000296  0.73356  1.0000
  H   H249      1.0  0.77477  0.015239999999999981  0.85302  1.0000
  H   H250      1.0  0.86994  0.09969000000000004  0.82643  1.0000
  H   H251      1.0  0.7047300000000001  0.8947800000000001  0.7666000000000002  1.0000
  H   H252      1.0  0.64311  0.84401  0.73132  1.0000
  H   H253      1.0  0.62549  0.9082300000000001  0.64915  1.0000
  H   H254      1.0  0.68475  0.9593600000000001  0.6845100000000002  1.0000
  H   H255      1.0  0.95519  0.1313400000000001  0.9100700000000003  1.0000
  H   H256      1.0  0.98203  0.19131000000000004  0.9657100000000001  1.0000
  H   H257      1.0  0.84427  0.20094  0.01724  1.0000
  H   H258      1.0  0.81626  0.14111  0.96094  1.0000
  H   H259      1.0  0.03005  0.37772  0.77387  1.0000
  H   H260      1.0  0.06374  0.43334  0.83006  1.0000
  H   H261      1.0  0.19507  0.42563  0.76794  1.0000
  H   H262      1.0  0.16  0.3707400000000001  0.7112100000000002  1.0000
  H   H263      1.0  0.15054000000000003  0.46592  0.90919  1.0000
  H   H264      1.0  0.21274  0.56692  0.9984500000000001  1.0000
  H   H265      1.0  0.24903  0.5447900000000001  0.8778200000000003  1.0000
  H   H266      1.0  0.13142  0.38486000000000004  0.9570800000000002  1.0000
  H   H267      1.0  0.08435  0.34536  0.99046  1.0000
  H   H268      1.0  0.05334  0.45676000000000005  0.08339  1.0000
  H   H269      1.0  0.09978  0.49734  0.05001000000000001  1.0000
  H   H270      1.0  0.3215  0.61876  0.05570000000000001  1.0000
  H   H271      1.0  0.37435  0.67585  0.09335  1.0000
  H   H272      1.0  0.37581  0.7227300000000001  0.99795  1.0000
  H   H273      1.0  0.32287  0.66547  0.9595400000000001  1.0000
  H   H274      1.0  0.50034  0.88066  0.53151  1.0000
  H   H275      1.0  0.46889  0.92445  0.49466  1.0000
  H   H276      1.0  0.32838  0.9129400000000001  0.5357  1.0000
  H   H277      1.0  0.36032  0.86794  0.57129  1.0000
  H   H278      1.0  0.3739  0.9495999999999999  0.4181400000000001  1.0000
  H   H279      1.0  0.31157000000000007  0.05504  0.39808  1.0000
  H   H280      1.0  0.28638  0.03149000000000001  0.50595  1.0000
  H   H281      1.0  0.35496  0.8694000000000001  0.30514  1.0000
  H   H282      1.0  0.38635  0.83038  0.23947  1.0000
  H   H283      1.0  0.45205  0.9401  0.23303000000000001  1.0000
  H   H284      1.0  0.42101  0.9798099999999998  0.29894  1.0000
  H   H285      1.0  0.15107  0.0701700000000001  0.5235200000000002  1.0000
  H   H286      1.0  0.09326  0.12247999999999999  0.56163  1.0000
  H   H287      1.0  0.17652  0.21810000000000002  0.5424500000000001  1.0000
  H   H288      1.0  0.23304000000000002  0.16565000000000002  0.5015600000000001  1.0000
  C   C1        1.0  0.43374  0.27422  0.45766  1.0000
  C   C2        1.0  0.41307  0.29675  0.49648  1.0000
  C   C3        1.0  0.41359  0.33991  0.51029  1.0000
  C   C4        1.0  0.3961  0.36214  0.54689  1.0000
  C   C5        1.0  0.37759  0.34085  0.57062  1.0000
  C   C6        1.0  0.37667  0.29753  0.55691  1.0000
  C   C7        1.0  0.3942  0.27571  0.52023  1.0000
  C   C8        1.0  0.35378  0.40275  0.62724  1.0000
  C   C9        1.0  0.33513000000000004  0.41341  0.66792  1.0000
  C   C10       1.0  0.30478  0.44725  0.68097  1.0000
  C   C11       1.0  0.286  0.45901  0.71864  1.0000
  C   C12       1.0  0.29758  0.43684  0.74334  1.0000
  C   C13       1.0  0.32808  0.40290999999999993  0.73054  1.0000
  C   C14       1.0  0.34693  0.39135  0.6929  1.0000
  C   C15       1.0  0.24956000000000003  0.49253  0.72967  1.0000
  C   C16       1.0  0.21472  0.54459  0.7882  1.0000
  C   C17       1.0  0.1671  0.5376  0.77704  1.0000
  C   C18       1.0  0.1325  0.56332  0.79939  1.0000
  C   C19       1.0  0.14456  0.59702  0.83219  1.0000
  C   C20       1.0  0.19227  0.60433  0.84276  1.0000
  C   C21       1.0  0.22706  0.57798  0.82116  1.0000
  C   C22       1.0  0.10649  0.62458  0.85452  1.0000
  C   C23       1.0  0.33526  0.37895  0.75774  1.0000
  C   C24       1.0  0.3933  0.3325  0.77454  1.0000
  C   C25       1.0  0.36166  0.31475000000000003  0.7941900000000002  1.0000
  C   C26       1.0  0.37904  0.28959000000000007  0.8141100000000002  1.0000
  C   C27       1.0  0.42761  0.28175  0.8151  1.0000
  C   C28       1.0  0.45895  0.29925  0.79507  1.0000
  C   C29       1.0  0.44203  0.32427  0.77485  1.0000
  C   C30       1.0  0.44566  0.25579000000000013  0.8376400000000003  1.0000
  C   C31       1.0  0.03789  0.79553  0.32396  1.0000
  C   C32       1.0  0.05903  0.82228  0.30339  1.0000
  C   C33       1.0  0.06417  0.86479  0.32206000000000007  1.0000
  C   C34       1.0  0.0849  0.88978  0.30326  1.0000
  C   C35       1.0  0.1014  0.8719  0.26493  1.0000
  C   C36       1.0  0.09621  0.82929  0.24599000000000001  1.0000
  C   C37       1.0  0.07514  0.80483  0.26494  1.0000
  C   C38       1.0  0.13441  0.9357  0.25458  1.0000
  C   C39       1.0  0.15845  0.9482  0.22337000000000007  1.0000
  C   C40       1.0  0.18754  0.98308  0.23536  1.0000
  C   C41       1.0  0.21186000000000002  0.99613  0.20802  1.0000
  C   C42       1.0  0.20634  0.97463  0.16822  1.0000
  C   C43       1.0  0.17663  0.9403300000000001  0.15581  1.0000
  C   C44       1.0  0.1529  0.92722  0.1835  1.0000
  C   C45       1.0  0.24367  0.0332  0.21923  1.0000
  C   C46       1.0  0.30086  0.07004999999999999  0.27242  1.0000
  C   C47       1.0  0.31258  0.10277  0.2591  1.0000
  C   C48       1.0  0.34688  0.13087  0.27891  1.0000
  C   C49       1.0  0.36924  0.12756000000000006  0.31219000000000013  1.0000
  C   C50       1.0  0.35691  0.09505  0.32551  1.0000
  C   C51       1.0  0.32334  0.06645  0.30561  1.0000
  C   C52       1.0  0.40667  0.1573  0.33216  1.0000
  C   C53       1.0  0.17331  0.9165000000000001  0.1131  1.0000
  C   C54       1.0  0.11616  0.86709  0.06811000000000003  1.0000
  C   C55       1.0  0.06912  0.85331  0.06642  1.0000
  C   C56       1.0  0.05402  0.81993  0.03548  1.0000
  C   C57       1.0  0.08540000000000002  0.8  0.0052  1.0000
  C   C58       1.0  0.13186  0.81457  0.00648  1.0000
  C   C59       1.0  0.14767  0.84782  0.03766  1.0000
  C   C60       1.0  0.06853  0.76385  0.97262  1.0000
  C   C61       1.0  0.92843  0.66294  0.29399  1.0000
  C   C62       1.0  0.90697  0.62956  0.26093  1.0000
  C   C63       1.0  0.93407  0.61147  0.22725000000000006  1.0000
  C   C64       1.0  0.91513  0.58046  0.196  1.0000
  C   C65       1.0  0.8683100000000001  0.56714  0.19737000000000005  1.0000
  C   C66       1.0  0.84099  0.58465  0.23104000000000005  1.0000
  C   C67       1.0  0.86068  0.61551  0.26251  1.0000
  C   C68       1.0  0.80681  0.52145  0.15345  1.0000
  C   C69       1.0  0.80159  0.49688999999999994  0.11109  1.0000
  C   C70       1.0  0.82562  0.5078  0.08224  1.0000
  C   C71       1.0  0.81939  0.48524000000000006  0.042790000000000016  1.0000
  C   C72       1.0  0.78914  0.45117  0.03234  1.0000
  C   C73       1.0  0.76373  0.44076  0.0608  1.0000
  C   C74       1.0  0.77017  0.46374  0.10014  1.0000
  C   C75       1.0  0.84481  0.49519  0.01077  1.0000
  C   C76       1.0  0.88185  0.55635  0.9985900000000001  1.0000
  C   C77       1.0  0.88599  0.59933  0.01533  1.0000
  C   C78       1.0  0.91212  0.62148  0.9969  1.0000
  C   C79       1.0  0.9343  0.6013  0.9611700000000001  1.0000
  C   C80       1.0  0.92969  0.55852  0.9444400000000001  1.0000
  C   C81       1.0  0.90388  0.53575  0.9628  1.0000
  C   C82       1.0  0.96117  0.62593  0.9415800000000001  1.0000
  C   C83       1.0  0.72972  0.40526  0.05146  1.0000
  C   C84       1.0  0.68131  0.36127  0.99476  1.0000
  C   C85       1.0  0.66662  0.35836000000000007  0.9569500000000001  1.0000
  C   C86       1.0  0.6372  0.32654  0.9358000000000001  1.0000
  C   C87       1.0  0.62176  0.2970400000000001  0.9520500000000001  1.0000
  C   C88       1.0  0.63646  0.30024000000000006  0.9897700000000001  1.0000
  C   C89       1.0  0.66594  0.33192  0.01128  1.0000
  C   C90       1.0  0.58909  0.2634  0.93053  1.0000
  C   C91       1.0  0.54952  0.15564  0.42486  1.0000
  C   C92       1.0  0.5678  0.12866  0.44641  1.0000
  C   C93       1.0  0.53722  0.11241999999999999  0.46802  1.0000
  C   C94       1.0  0.55493  0.08792000000000003  0.4884800000000001  1.0000
  C   C95       1.0  0.60353  0.07879  0.4874200000000001  1.0000
  C   C96       1.0  0.63432  0.09456999999999997  0.46553  1.0000
  C   C97       1.0  0.61621  0.11942  0.44553  1.0000
  C   C98       1.0  0.66206  0.03404  0.50653  1.0000
  C   C99       1.0  0.66859  0.011159999999999988  0.53486  1.0000
  C   C100      1.0  0.64828  0.02305  0.57201  1.0000
  C   C101      1.0  0.65608  0.99971  0.5966100000000001  1.0000
  C   C102      1.0  0.68371  0.9640400000000001  0.5836000000000001  1.0000
  C   C103      1.0  0.7059  0.9529400000000001  0.54717  1.0000
  C   C104      1.0  0.6982  0.9766199999999999  0.52302  1.0000
  C   C105      1.0  0.63468  0.01086  0.63647  1.0000
  C   C106      1.0  0.6138500000000001  0.07288000000000006  0.69373  1.0000
  C   C107      1.0  0.62369  0.11509000000000004  0.71068  1.0000
  C   C108      1.0  0.6063  0.13698999999999995  0.74738  1.0000
  C   C109      1.0  0.57891  0.11711  0.76795  1.0000
  C   C110      1.0  0.56939  0.07499000000000004  0.75091  1.0000
  C   C111      1.0  0.58642  0.052709999999999944  0.71412  1.0000
  C   C112      1.0  0.55905  0.14023  0.80698  1.0000
  C   C113      1.0  0.7359300000000001  0.9146899999999999  0.53464  1.0000
  C   C114      1.0  0.80404  0.88521  0.48951  1.0000
  C   C115      1.0  0.84358  0.89741  0.47257000000000005  1.0000
  C   C116      1.0  0.87573  0.86835  0.4511100000000001  1.0000
  C   C117      1.0  0.86843  0.8264100000000002  0.44525  1.0000
  C   C118      1.0  0.82884  0.81439  0.46205  1.0000
  C   C119      1.0  0.797  0.8434  0.48463000000000006  1.0000
  C   C120      1.0  0.90321  0.79582  0.4217800000000001  1.0000
  C   C121      1.0  0.06623  0.7741400000000003  0.4576300000000001  1.0000
  C   C122      1.0  0.08686  0.79661  0.4964700000000001  1.0000
  C   C123      1.0  0.0864  0.83977  0.51032  1.0000
  C   C124      1.0  0.1039  0.86193  0.54694  1.0000
  C   C125      1.0  0.12237  0.84059  0.57063  1.0000
  C   C126      1.0  0.12322000000000001  0.79726  0.55689  1.0000
  C   C127      1.0  0.10567  0.7754999999999999  0.52019  1.0000
  C   C128      1.0  0.14631  0.90247  0.62729  1.0000
  C   C129      1.0  0.16512  0.91289  0.6679400000000002  1.0000
  C   C130      1.0  0.19592  0.9464200000000002  0.68085  1.0000
  C   C131      1.0  0.21474  0.95813  0.7185  1.0000
  C   C132      1.0  0.20262  0.93623  0.7433300000000002  1.0000
  C   C133      1.0  0.17166  0.9025800000000002  0.73072  1.0000
  C   C134      1.0  0.15296  0.8910000000000001  0.6929900000000002  1.0000
  C   C135      1.0  0.25158  0.99136  0.72942  1.0000
  C   C136      1.0  0.28519  0.04455000000000001  0.78771  1.0000
  C   C137      1.0  0.33293  0.037670000000000016  0.77687  1.0000
  C   C138      1.0  0.36719  0.06369000000000002  0.79933  1.0000
  C   C139      1.0  0.35472  0.09749999999999999  0.83189  1.0000
  C   C140      1.0  0.30689  0.10476999999999999  0.8421  1.0000
  C   C141      1.0  0.2724  0.07813000000000006  0.82038  1.0000
  C   C142      1.0  0.39276  0.12490999999999998  0.85441  1.0000
  C   C143      1.0  0.16343  0.87918  0.75832  1.0000
  C   C144      1.0  0.10527  0.83275  0.77467  1.0000
  C   C145      1.0  0.13672  0.81504  0.7945300000000002  1.0000
  C   C146      1.0  0.11911  0.78996  0.81442  1.0000
  C   C147      1.0  0.07051  0.78216  0.81522  1.0000
  C   C148      1.0  0.03935000000000001  0.7997500000000002  0.7951300000000002  1.0000
  C   C149      1.0  0.05653  0.82469  0.77494  1.0000
  C   C150      1.0  0.05236  0.75607  0.83756  1.0000
  C   C151      1.0  0.46215  0.29551000000000005  0.3240100000000001  1.0000
  C   C152      1.0  0.44103  0.3223  0.30347  1.0000
  C   C153      1.0  0.43591  0.3648100000000001  0.3221500000000001  1.0000
  C   C154      1.0  0.41512  0.38982  0.30338  1.0000
  C   C155      1.0  0.39856  0.37194000000000005  0.2650600000000001  1.0000
  C   C156      1.0  0.40378  0.32933000000000007  0.24610000000000004  1.0000
  C   C157      1.0  0.42491  0.30486  0.2650200000000001  1.0000
  C   C158      1.0  0.36561  0.43573  0.25464  1.0000
  C   C159      1.0  0.34172  0.44833  0.22342  1.0000
  C   C160      1.0  0.31267  0.48325  0.23548  1.0000
  C   C161      1.0  0.2885  0.49648000000000003  0.20820000000000005  1.0000
  C   C162      1.0  0.29424000000000006  0.4752  0.16838  1.0000
  C   C163      1.0  0.32385  0.44084  0.15589  1.0000
  C   C164      1.0  0.34736  0.42746  0.18353  1.0000
  C   C165      1.0  0.25648  0.53341  0.21939000000000006  1.0000
  C   C166      1.0  0.19925  0.5701100000000001  0.27261000000000013  1.0000
  C   C167      1.0  0.18745000000000003  0.60283  0.25931  1.0000
  C   C168      1.0  0.15307  0.63085  0.27911  1.0000
  C   C169      1.0  0.13063  0.62743  0.3123  1.0000
  C   C170      1.0  0.14299  0.5949  0.3255800000000001  1.0000
  C   C171      1.0  0.17670000000000002  0.56639  0.30571  1.0000
  C   C172      1.0  0.09326  0.65724  0.33224  1.0000
  C   C173      1.0  0.32701  0.41728  0.11311  1.0000
  C   C174      1.0  0.38386  0.36727  0.0681  1.0000
  C   C175      1.0  0.43087  0.35333  0.06642  1.0000
  C   C176      1.0  0.44581  0.31985  0.0355  1.0000
  C   C177      1.0  0.41436  0.29999  0.00525  1.0000
  C   C178      1.0  0.36795  0.31472  0.006530000000000001  1.0000
  C   C179      1.0  0.35228  0.34809  0.03769  1.0000
  C   C180      1.0  0.43131  0.26391  0.97262  1.0000
  C   C181      1.0  0.57161  0.16291  0.29403  1.0000
  C   C182      1.0  0.5931  0.12952  0.26097  1.0000
  C   C183      1.0  0.56609  0.11159  0.2272  1.0000
  C   C184      1.0  0.5850200000000001  0.08059000000000001  0.19595000000000004  1.0000
  C   C185      1.0  0.63176  0.06709  0.19741  1.0000
  C   C186      1.0  0.659  0.08440000000000003  0.23117000000000004  1.0000
  C   C187      1.0  0.6393  0.11528  0.26263  1.0000
  C   C188      1.0  0.69306  0.02096  0.15346  1.0000
  C   C189      1.0  0.69824  0.99678  0.11102  1.0000
  C   C190      1.0  0.67439  0.008000000000000002  0.08226  1.0000
  C   C191      1.0  0.68049  0.98548  0.04278  1.0000
  C   C192      1.0  0.71072  0.95138  0.032200000000000006  1.0000
  C   C193      1.0  0.73602  0.94073  0.06058000000000001  1.0000
  C   C194      1.0  0.72944  0.96347  0.09996  1.0000
  C   C195      1.0  0.65477  0.9953  0.010810000000000004  1.0000
  C   C196      1.0  0.61724  0.05638  0.9986800000000001  1.0000
  C   C197      1.0  0.61338  0.0994  0.0152  1.0000
  C   C198      1.0  0.58711  0.12148000000000007  0.9967700000000002  1.0000
  C   C199      1.0  0.56447  0.10117999999999999  0.96125  1.0000
  C   C200      1.0  0.56888  0.05837  0.94472  1.0000
  C   C201      1.0  0.5949100000000002  0.0357  0.96307  1.0000
  C   C202      1.0  0.53765  0.12584000000000006  0.94164  1.0000
  C   C203      1.0  0.77005  0.90524  0.05125000000000001  1.0000
  C   C204      1.0  0.8185  0.86126  0.9946500000000001  1.0000
  C   C205      1.0  0.83328  0.8582800000000002  0.95686  1.0000
  C   C206      1.0  0.8627800000000001  0.82647  0.9358300000000002  1.0000
  C   C207      1.0  0.87821  0.79704  0.9521800000000001  1.0000
  C   C208      1.0  0.8634600000000001  0.80033  0.9899100000000001  1.0000
  C   C209      1.0  0.83389  0.832  0.011300000000000003  1.0000
  C   C210      1.0  0.91087  0.7633900000000001  0.9306500000000002  1.0000
  C   C211      1.0  0.9505  0.6557  0.4248  1.0000
  C   C212      1.0  0.93223  0.62875  0.44633  1.0000
  C   C213      1.0  0.96288  0.61251  0.46790000000000004  1.0000
  C   C214      1.0  0.94523  0.58799  0.48836  1.0000
  C   C215      1.0  0.89662  0.57888  0.4873  1.0000
  C   C216      1.0  0.86578  0.59468  0.46545000000000003  1.0000
  C   C217      1.0  0.88382  0.61954  0.44546  1.0000
  C   C218      1.0  0.838  0.53418  0.50637  1.0000
  C   C219      1.0  0.83151  0.51132  0.5347000000000002  1.0000
  C   C220      1.0  0.85189  0.52323  0.5718200000000001  1.0000
  C   C221      1.0  0.8441700000000001  0.49983999999999995  0.59638  1.0000
  C   C222      1.0  0.8165100000000001  0.46422  0.58346  1.0000
  C   C223      1.0  0.7942  0.45319  0.54712  1.0000
  C   C224      1.0  0.80187  0.4768  0.52294  1.0000
  C   C225      1.0  0.86541  0.51088  0.63625  1.0000
  C   C226      1.0  0.88604  0.5729  0.69356  1.0000
  C   C227      1.0  0.87619  0.61512  0.71054  1.0000
  C   C228      1.0  0.89359  0.63702  0.74726  1.0000
  C   C229      1.0  0.92099  0.61709  0.76784  1.0000
  C   C230      1.0  0.9305  0.57498  0.7507400000000001  1.0000
  C   C231      1.0  0.91347  0.55273  0.71395  1.0000
  C   C232      1.0  0.94088  0.64016  0.80689  1.0000
  C   C233      1.0  0.764  0.41513  0.53513  1.0000
  C   C234      1.0  0.696  0.38513  0.48987  1.0000
  C   C235      1.0  0.65651  0.39738000000000007  0.47290000000000004  1.0000
  C   C236      1.0  0.62433  0.36839  0.4514100000000001  1.0000
  C   C237      1.0  0.63155  0.32643  0.44553  1.0000
  C   C238      1.0  0.671  0.31437000000000004  0.4625100000000001  1.0000
  C   C239      1.0  0.70284  0.34334  0.48516000000000004  1.0000
  C   C240      1.0  0.5967900000000002  0.29586  0.42193  1.0000
  C   C241      1.0  0.93377  0.22586  0.5423700000000001  1.0000
  C   C242      1.0  0.9131400000000001  0.20339  0.50353  1.0000
  C   C243      1.0  0.91361  0.16023000000000004  0.48968000000000006  1.0000
  C   C244      1.0  0.8961  0.13807000000000005  0.45306000000000013  1.0000
  C   C245      1.0  0.8776300000000001  0.15941  0.42938  1.0000
  C   C246      1.0  0.87678  0.20274  0.44311  1.0000
  C   C247      1.0  0.89434  0.2245  0.47981  1.0000
  C   C248      1.0  0.8537  0.09753000000000003  0.3727100000000001  1.0000
  C   C249      1.0  0.83488  0.08711000000000005  0.3320600000000001  1.0000
  C   C250      1.0  0.80409  0.053580000000000017  0.31915  1.0000
  C   C251      1.0  0.78526  0.04187  0.28151  1.0000
  C   C252      1.0  0.79739  0.06377000000000001  0.25667000000000006  1.0000
  C   C253      1.0  0.82834  0.09742  0.26928  1.0000
  C   C254      1.0  0.84704  0.109  0.30701  1.0000
  C   C255      1.0  0.74842  0.008640000000000009  0.27058  1.0000
  C   C256      1.0  0.71481  0.95545  0.21229000000000006  1.0000
  C   C257      1.0  0.66707  0.96233  0.22313  1.0000
  C   C258      1.0  0.63281  0.93631  0.20067  1.0000
  C   C259      1.0  0.64528  0.9025  0.16811000000000006  1.0000
  C   C260      1.0  0.69311  0.89523  0.1579  1.0000
  C   C261      1.0  0.72761  0.9218700000000001  0.17962  1.0000
  C   C262      1.0  0.60724  0.87509  0.14559  1.0000
  C   C263      1.0  0.83657  0.12082  0.24168  1.0000
  C   C264      1.0  0.89473  0.16725  0.22533  1.0000
  C   C265      1.0  0.86328  0.18496  0.20548  1.0000
  C   C266      1.0  0.88089  0.21004  0.18558  1.0000
  C   C267      1.0  0.92949  0.21784  0.18478  1.0000
  C   C268      1.0  0.96065  0.20025  0.20488  1.0000
  C   C269      1.0  0.94348  0.17531  0.22506  1.0000
  C   C270      1.0  0.94764  0.24393000000000004  0.16244  1.0000
  C   C271      1.0  0.53786  0.70449  0.67599  1.0000
  C   C272      1.0  0.55897  0.6777  0.69653  1.0000
  C   C273      1.0  0.56409  0.63519  0.67785  1.0000
  C   C274      1.0  0.58488  0.61018  0.69662  1.0000
  C   C275      1.0  0.60144  0.62806  0.73494  1.0000
  C   C276      1.0  0.5962200000000001  0.67067  0.7539  1.0000
  C   C277      1.0  0.5751  0.69514  0.7349800000000002  1.0000
  C   C278      1.0  0.63439  0.56427  0.74536  1.0000
  C   C279      1.0  0.65828  0.55167  0.77659  1.0000
  C   C280      1.0  0.68733  0.51675  0.76452  1.0000
  C   C281      1.0  0.71151  0.50352  0.7918  1.0000
  C   C282      1.0  0.70576  0.5248000000000003  0.8316200000000002  1.0000
  C   C283      1.0  0.67615  0.55916  0.8441100000000002  1.0000
  C   C284      1.0  0.65265  0.57253  0.81648  1.0000
  C   C285      1.0  0.74352  0.46659000000000006  0.78062  1.0000
  C   C286      1.0  0.80076  0.42989000000000005  0.7273900000000001  1.0000
  C   C287      1.0  0.8125600000000001  0.39717  0.74069  1.0000
  C   C288      1.0  0.84694  0.36915  0.72089  1.0000
  C   C289      1.0  0.86937  0.3725700000000001  0.6877000000000002  1.0000
  C   C290      1.0  0.85701  0.4051  0.67442  1.0000
  C   C291      1.0  0.8233  0.43361  0.69429  1.0000
  C   C292      1.0  0.90675  0.34276  0.66777  1.0000
  C   C293      1.0  0.673  0.58271  0.8869  1.0000
  C   C294      1.0  0.61614  0.63273  0.9319  1.0000
  C   C295      1.0  0.56914  0.6466700000000001  0.9335800000000001  1.0000
  C   C296      1.0  0.5542  0.68015  0.9645  1.0000
  C   C297      1.0  0.58564  0.70001  0.9947500000000001  1.0000
  C   C298      1.0  0.63206  0.68528  0.9934700000000001  1.0000
  C   C299      1.0  0.64773  0.6519100000000001  0.9623200000000001  1.0000
  C   C300      1.0  0.5687  0.73609  0.02738  1.0000
  C   C301      1.0  0.42839  0.83709  0.70598  1.0000
  C   C302      1.0  0.4069  0.87048  0.73904  1.0000
  C   C303      1.0  0.4339100000000001  0.8884100000000001  0.7728000000000003  1.0000
  C   C304      1.0  0.41498  0.91941  0.80405  1.0000
  C   C305      1.0  0.36824  0.9329100000000001  0.8026  1.0000
  C   C306      1.0  0.34101  0.9155999999999999  0.76883  1.0000
  C   C307      1.0  0.3607  0.88472  0.73737  1.0000
  C   C308      1.0  0.30694  0.97903  0.84654  1.0000
  C   C309      1.0  0.30176  0.0032199999999999915  0.88899  1.0000
  C   C310      1.0  0.32561  0.992  0.9177400000000002  1.0000
  C   C311      1.0  0.31951  0.014520000000000054  0.9572200000000001  1.0000
  C   C312      1.0  0.28928  0.04862000000000001  0.9678  1.0000
  C   C313      1.0  0.26399  0.05927000000000001  0.93942  1.0000
  C   C314      1.0  0.27057  0.03652  0.90004  1.0000
  C   C315      1.0  0.34523  0.004690000000000041  0.9891900000000001  1.0000
  C   C316      1.0  0.38277  0.94362  0.00132  1.0000
  C   C317      1.0  0.38662  0.9006  0.9848100000000001  1.0000
  C   C318      1.0  0.41289  0.87851  0.00323  1.0000
  C   C319      1.0  0.43553  0.89882  0.03875  1.0000
  C   C320      1.0  0.4311300000000001  0.94163  0.05529  1.0000
  C   C321      1.0  0.4051  0.9643  0.03693  1.0000
  C   C322      1.0  0.46235  0.87416  0.05836  1.0000
  C   C323      1.0  0.22995  0.09476  0.94875  1.0000
  C   C324      1.0  0.1815  0.13874  0.005350000000000001  1.0000
  C   C325      1.0  0.16673  0.14172  0.043150000000000015  1.0000
  C   C326      1.0  0.13722  0.17353  0.06417  1.0000
  C   C327      1.0  0.12179  0.20296  0.04782  1.0000
  C   C328      1.0  0.13654  0.19967  0.01009  1.0000
  C   C329      1.0  0.16611  0.16800000000000007  0.98871  1.0000
  C   C330      1.0  0.08913000000000001  0.23661  0.06936000000000003  1.0000
  C   C331      1.0  0.04951  0.3443  0.5752  1.0000
  C   C332      1.0  0.06777  0.37125  0.5536800000000001  1.0000
  C   C333      1.0  0.03713  0.38749  0.5321  1.0000
  C   C334      1.0  0.05478  0.41201  0.51165  1.0000
  C   C335      1.0  0.10339  0.42112  0.5127  1.0000
  C   C336      1.0  0.13423  0.40532  0.53455  1.0000
  C   C337      1.0  0.11618  0.3804600000000001  0.5545400000000003  1.0000
  C   C338      1.0  0.162  0.46582  0.49363000000000007  1.0000
  C   C339      1.0  0.16849  0.48868000000000006  0.4653100000000001  1.0000
  C   C340      1.0  0.14811  0.47677  0.4281800000000001  1.0000
  C   C341      1.0  0.15583  0.50016  0.40362  1.0000
  C   C342      1.0  0.1835  0.53577  0.41654  1.0000
  C   C343      1.0  0.2058  0.54681  0.45288  1.0000
  C   C344      1.0  0.19813  0.5232  0.47706  1.0000
  C   C345      1.0  0.13459  0.4891200000000001  0.3637600000000001  1.0000
  C   C346      1.0  0.11397  0.4271  0.30644  1.0000
  C   C347      1.0  0.12381  0.38487  0.28947000000000006  1.0000
  C   C348      1.0  0.10641000000000002  0.36298  0.25274  1.0000
  C   C349      1.0  0.07901000000000001  0.38291  0.23217  1.0000
  C   C350      1.0  0.0695  0.4250200000000001  0.24926  1.0000
  C   C351      1.0  0.08654  0.44727  0.28606  1.0000
  C   C352      1.0  0.05913  0.35984  0.19311000000000003  1.0000
  C   C353      1.0  0.23601000000000003  0.58487  0.4648800000000001  1.0000
  C   C354      1.0  0.304  0.61486  0.51013  1.0000
  C   C355      1.0  0.34349  0.60261  0.5271100000000001  1.0000
  C   C356      1.0  0.37568  0.63161  0.54859  1.0000
  C   C357      1.0  0.36846  0.67357  0.55447  1.0000
  C   C358      1.0  0.3290100000000001  0.6856200000000001  0.5375000000000002  1.0000
  C   C359      1.0  0.29716  0.65666  0.51484  1.0000
  C   C360      1.0  0.40321  0.70414  0.57807  1.0000
  C   C361      1.0  0.5662700000000002  0.7257800000000001  0.5423400000000003  1.0000
  C   C362      1.0  0.58694  0.70325  0.50352  1.0000
  C   C363      1.0  0.58642  0.6600900000000001  0.48972000000000004  1.0000
  C   C364      1.0  0.60391  0.63786  0.45311  1.0000
  C   C365      1.0  0.62241  0.65915  0.42938  1.0000
  C   C366      1.0  0.6233300000000002  0.70247  0.44309000000000004  1.0000
  C   C367      1.0  0.6058  0.72429  0.47978000000000004  1.0000
  C   C368      1.0  0.64622  0.59724  0.37277  1.0000
  C   C369      1.0  0.66487  0.5865899999999998  0.33208  1.0000
  C   C370      1.0  0.69523  0.55275  0.31903  1.0000
  C   C371      1.0  0.71401  0.54099  0.28136  1.0000
  C   C372      1.0  0.70243  0.56316  0.25666  1.0000
  C   C373      1.0  0.6719200000000001  0.59709  0.26946  1.0000
  C   C374      1.0  0.65307  0.60865  0.30711  1.0000
  C   C375      1.0  0.75045  0.50747  0.27033  1.0000
  C   C376      1.0  0.78529  0.45541000000000004  0.21180000000000004  1.0000
  C   C377      1.0  0.8329  0.4624  0.22296  1.0000
  C   C378      1.0  0.86751  0.43668  0.20061  1.0000
  C   C379      1.0  0.85544  0.40298  0.16782  1.0000
  C   C380      1.0  0.80773  0.3956600000000001  0.15724000000000005  1.0000
  C   C381      1.0  0.77294  0.42202  0.17884  1.0000
  C   C382      1.0  0.8935200000000001  0.37541  0.14548000000000005  1.0000
  C   C383      1.0  0.66475  0.62104  0.24226  1.0000
  C   C384      1.0  0.6067  0.66749  0.22547000000000006  1.0000
  C   C385      1.0  0.6383499999999999  0.68525  0.20582  1.0000
  C   C386      1.0  0.62097  0.7104  0.18589  1.0000
  C   C387      1.0  0.57239  0.71825  0.1849  1.0000
  C   C388      1.0  0.54105  0.70075  0.20494000000000007  1.0000
  C   C389      1.0  0.55797  0.67573  0.22515000000000004  1.0000
  C   C390      1.0  0.55434  0.74421  0.16236  1.0000
  C   C391      1.0  0.96211  0.20447  0.67604  1.0000
  C   C392      1.0  0.94097  0.17772000000000002  0.69661  1.0000
  C   C393      1.0  0.93583  0.13521000000000008  0.6779400000000002  1.0000
  C   C394      1.0  0.9151000000000001  0.11022  0.69675  1.0000
  C   C395      1.0  0.8986  0.12809  0.73507  1.0000
  C   C396      1.0  0.90379  0.17070000000000007  0.7540100000000002  1.0000
  C   C397      1.0  0.92486  0.19517000000000007  0.73507  1.0000
  C   C398      1.0  0.86559  0.06430000000000008  0.7454200000000002  1.0000
  C   C399      1.0  0.8415500000000002  0.05179999999999999  0.77663  1.0000
  C   C400      1.0  0.81246  0.01692  0.76465  1.0000
  C   C401      1.0  0.78815  0.003869999999999998  0.79198  1.0000
  C   C402      1.0  0.79366  0.025370000000000083  0.8317800000000002  1.0000
  C   C403      1.0  0.82338  0.059670000000000015  0.8441900000000001  1.0000
  C   C404      1.0  0.8471  0.07278  0.8165  1.0000
  C   C405      1.0  0.7563400000000001  0.9667899999999999  0.78078  1.0000
  C   C406      1.0  0.69914  0.9299499999999999  0.72758  1.0000
  C   C407      1.0  0.68742  0.89723  0.7409  1.0000
  C   C408      1.0  0.65313  0.86913  0.72109  1.0000
  C   C409      1.0  0.6307700000000002  0.8724400000000001  0.6878100000000001  1.0000
  C   C410      1.0  0.64309  0.90495  0.6745  1.0000
  C   C411      1.0  0.67667  0.93355  0.6944  1.0000
  C   C412      1.0  0.5933300000000001  0.8427  0.66784  1.0000
  C   C413      1.0  0.82669  0.08350000000000002  0.8869  1.0000
  C   C414      1.0  0.88384  0.1329  0.9319  1.0000
  C   C415      1.0  0.93088  0.14669000000000001  0.9335800000000001  1.0000
  C   C416      1.0  0.94598  0.18007000000000006  0.96452  1.0000
  C   C417      1.0  0.9146100000000001  0.2  0.9948  1.0000
  C   C418      1.0  0.8681500000000001  0.18543000000000007  0.99353  1.0000
  C   C419      1.0  0.85233  0.15218000000000007  0.9623400000000001  1.0000
  C   C420      1.0  0.9314800000000001  0.23615  0.02738  1.0000
  C   C421      1.0  0.07157  0.33705  0.70601  1.0000
  C   C422      1.0  0.09303000000000002  0.37043  0.73907  1.0000
  C   C423      1.0  0.06594  0.3885300000000001  0.7727500000000003  1.0000
  C   C424      1.0  0.08487  0.41953  0.804  1.0000
  C   C425      1.0  0.13169  0.43286  0.80263  1.0000
  C   C426      1.0  0.15902  0.41535  0.76896  1.0000
  C   C427      1.0  0.13932  0.3844900000000001  0.7374900000000002  1.0000
  C   C428      1.0  0.19319  0.4785400000000001  0.84655  1.0000
  C   C429      1.0  0.19842  0.50311  0.8889200000000003  1.0000
  C   C430      1.0  0.17438  0.4922  0.91776  1.0000
  C   C431      1.0  0.18062  0.51476  0.95721  1.0000
  C   C432      1.0  0.21086  0.54883  0.96766  1.0000
  C   C433      1.0  0.23628  0.55924  0.93921  1.0000
  C   C434      1.0  0.22984  0.53626  0.89986  1.0000
  C   C435      1.0  0.1552  0.50481  0.98923  1.0000
  C   C436      1.0  0.11816  0.44365  0.00142  1.0000
  C   C437      1.0  0.11402  0.4006700000000001  0.9846700000000002  1.0000
  C   C438      1.0  0.08788000000000001  0.37851  0.0031  1.0000
  C   C439      1.0  0.0657  0.3987  0.03883  1.0000
  C   C440      1.0  0.07031  0.44148  0.05556  1.0000
  C   C441      1.0  0.09613000000000001  0.46425  0.0372  1.0000
  C   C442      1.0  0.03883  0.37407  0.05843000000000001  1.0000
  C   C443      1.0  0.27029  0.59474  0.9485400000000002  1.0000
  C   C444      1.0  0.31869  0.63872  0.00524  1.0000
  C   C445      1.0  0.33338  0.64164  0.04305000000000001  1.0000
  C   C446      1.0  0.3628  0.67346  0.06420000000000002  1.0000
  C   C447      1.0  0.37824  0.70296  0.04795000000000001  1.0000
  C   C448      1.0  0.36354  0.69976  0.010230000000000003  1.0000
  C   C449      1.0  0.33406  0.66808  0.98873  1.0000
  C   C450      1.0  0.41091  0.7366  0.06947  1.0000
  C   C451      1.0  0.45048  0.8443500000000003  0.57514  1.0000
  C   C452      1.0  0.4322  0.8713400000000001  0.5536000000000002  1.0000
  C   C453      1.0  0.46278  0.88758  0.53199  1.0000
  C   C454      1.0  0.44507  0.91207  0.51152  1.0000
  C   C455      1.0  0.39647000000000004  0.92121  0.51259  1.0000
  C   C456      1.0  0.36569000000000007  0.90543  0.53447  1.0000
  C   C457      1.0  0.38379  0.88058  0.55448  1.0000
  C   C458      1.0  0.33794  0.9659599999999999  0.49347  1.0000
  C   C459      1.0  0.33142  0.9888399999999999  0.4651400000000001  1.0000
  C   C460      1.0  0.35172  0.97695  0.428  1.0000
  C   C461      1.0  0.34393000000000007  0.0002800000000000463  0.40339000000000014  1.0000
  C   C462      1.0  0.31629  0.03596000000000005  0.4164000000000001  1.0000
  C   C463      1.0  0.2941  0.04705999999999999  0.45283  1.0000
  C   C464      1.0  0.3018  0.02338  0.47698  1.0000
  C   C465      1.0  0.36532  0.9891400000000001  0.36353  1.0000
  C   C466      1.0  0.38615  0.92712  0.30627  1.0000
  C   C467      1.0  0.37631  0.88491  0.28933  1.0000
  C   C468      1.0  0.3937  0.86301  0.25262  1.0000
  C   C469      1.0  0.42109  0.88289  0.23205  1.0000
  C   C470      1.0  0.43061  0.92501  0.24909  1.0000
  C   C471      1.0  0.41359  0.9472899999999999  0.28588  1.0000
  C   C472      1.0  0.44095  0.85977  0.19302  1.0000
  C   C473      1.0  0.26407  0.08531  0.46536  1.0000
  C   C474      1.0  0.19596  0.11479000000000003  0.51049  1.0000
  C   C475      1.0  0.15642  0.10258000000000003  0.52743  1.0000
  C   C476      1.0  0.12427  0.13165000000000002  0.5488900000000001  1.0000
  C   C477      1.0  0.13157  0.17359  0.55476  1.0000
  C   C478      1.0  0.17117  0.18561  0.53795  1.0000
  C   C479      1.0  0.203  0.15659  0.51537  1.0000
  C   C480      1.0  0.09679  0.20418  0.57822  1.0000
  N   N1        1.0  0.36007  0.36095000000000005  0.6082800000000003  1.0000
  N   N2        1.0  0.25048  0.51727  0.7682200000000002  1.0000
  N   N3        1.0  0.3779  0.35802  0.75366  1.0000
  N   N4        1.0  0.12344  0.89428  0.24360000000000004  1.0000
  N   N5        1.0  0.26735  0.03968  0.25394  1.0000
  N   N6        1.0  0.12922  0.89906  0.10194000000000003  1.0000
  N   N7        1.0  0.8517  0.53707  0.16338  1.0000
  N   N8        1.0  0.85561  0.53642  0.01982  1.0000
  N   N9        1.0  0.71167  0.3939  0.01407  1.0000
  N   N10       1.0  0.61932  0.054490000000000004  0.50947  1.0000
  N   N11       1.0  0.63182  0.052719999999999996  0.65613  1.0000
  N   N12       1.0  0.77225  0.9163  0.50972  1.0000
  N   N13       1.0  0.1399  0.86069  0.60829  1.0000
  N   N14       1.0  0.24968  0.01706  0.76758  1.0000
  N   N15       1.0  0.12092  0.8579600000000001  0.75355  1.0000
  N   N16       1.0  0.37646  0.39428  0.24372  1.0000
  N   N17       1.0  0.23287000000000002  0.53983  0.25413000000000013  1.0000
  N   N18       1.0  0.37084000000000006  0.39925  0.10195000000000003  1.0000
  N   N19       1.0  0.64837  0.03711  0.16337  1.0000
  N   N20       1.0  0.6434700000000001  0.03645  0.01992  1.0000
  N   N21       1.0  0.78803  0.89382  0.013840000000000002  1.0000
  N   N22       1.0  0.88077  0.55458  0.50933  1.0000
  N   N23       1.0  0.86817  0.55274  0.65594  1.0000
  N   N24       1.0  0.72799  0.41621  0.50976  1.0000
  N   N25       1.0  0.8601  0.13931  0.39171  1.0000
  N   N26       1.0  0.75033  0.98294  0.23242000000000004  1.0000
  N   N27       1.0  0.87909  0.14204  0.24645000000000003  1.0000
  N   N28       1.0  0.62354  0.60572  0.75628  1.0000
  N   N29       1.0  0.76714  0.46017  0.7458700000000001  1.0000
  N   N30       1.0  0.62916  0.60075  0.89805  1.0000
  N   N31       1.0  0.35163  0.96289  0.83664  1.0000
  N   N32       1.0  0.35653  0.96355  0.98008  1.0000
  N   N33       1.0  0.21197  0.10617999999999995  0.98616  1.0000
  N   N34       1.0  0.11924  0.44542  0.49067  1.0000
  N   N35       1.0  0.13184  0.44726  0.34407  1.0000
  N   N36       1.0  0.27201  0.58379  0.49024  1.0000
  N   N37       1.0  0.63993  0.6390500000000001  0.39172  1.0000
  N   N38       1.0  0.74952  0.48272  0.23179  1.0000
  N   N39       1.0  0.62211  0.64198  0.24635  1.0000
  N   N40       1.0  0.87656  0.10571999999999998  0.7564  1.0000
  N   N41       1.0  0.73265  0.9603199999999998  0.74606  1.0000
  N   N42       1.0  0.87078  0.10094000000000006  0.8980600000000002  1.0000
  N   N43       1.0  0.14831  0.4629300000000001  0.8366200000000003  1.0000
  N   N44       1.0  0.14439  0.46358  0.98018  1.0000
  N   N45       1.0  0.28833  0.6061  0.98593  1.0000
  N   N46       1.0  0.38068  0.94551  0.49053  1.0000
  N   N47       1.0  0.36818  0.94728  0.34387  1.0000
  N   N48       1.0  0.22775  0.0837  0.49028  1.0000
  O   O1        1.0  0.4334200000000001  0.23481  0.44647  1.0000
  O   O2        1.0  0.45034  0.29656  0.43872  1.0000
  O   O3        1.0  0.06473  0.6093100000000001  0.8502900000000001  1.0000
  O   O4        1.0  0.11805  0.6611  0.87579  1.0000
  O   O5        1.0  0.49061  0.25188  0.83883  1.0000
  O   O6        1.0  0.4147  0.23984000000000003  0.854  1.0000
  O   O7        1.0  0.362  0.4296500000000001  0.6127300000000002  1.0000
  O   O8        1.0  0.22116  0.49638999999999994  0.70547  1.0000
  O   O9        1.0  0.30459  0.37838000000000005  0.7815700000000002  1.0000
  O   O10       1.0  0.031000000000000003  0.75779  0.30373  1.0000
  O   O11       1.0  0.0285  0.81221  0.36019  1.0000
  O   O12       1.0  0.42152  0.1817  0.31462  1.0000
  O   O13       1.0  0.42154  0.1563  0.36506  1.0000
  O   O14       1.0  0.095  0.74989  0.94262  1.0000
  O   O15       1.0  0.028160000000000004  0.74968  0.97787  1.0000
  O   O16       1.0  0.1263  0.96077  0.28703  1.0000
  O   O17       1.0  0.2478  0.05472  0.19827  1.0000
  O   O18       1.0  0.20719  0.91227  0.0909  1.0000
  O   O19       1.0  0.96906  0.67564  0.28726  1.0000
  O   O20       1.0  0.9049900000000002  0.6761  0.32582  1.0000
  O   O21       1.0  0.97626  0.60754  0.907  1.0000
  O   O22       1.0  0.96689  0.66402  0.96112  1.0000
  O   O23       1.0  0.57621  0.2385500000000001  0.9481300000000001  1.0000
  O   O24       1.0  0.5760000000000001  0.26165  0.8963  1.0000
  O   O25       1.0  0.77323  0.52734  0.17624  1.0000
  O   O26       1.0  0.85457  0.46855  0.97961  1.0000
  O   O27       1.0  0.7191  0.3887300000000001  0.07567  1.0000
  O   O28       1.0  0.50465  0.16027000000000002  0.4241100000000001  1.0000
  O   O29       1.0  0.58054  0.17202  0.409  1.0000
  O   O30       1.0  0.56647  0.17911  0.82023  1.0000
  O   O31       1.0  0.53606  0.11903000000000007  0.8239000000000002  1.0000
  O   O32       1.0  0.94315  0.81042  0.41621  1.0000
  O   O33       1.0  0.89056  0.7579800000000001  0.4091100000000001  1.0000
  O   O34       1.0  0.69307  0.03370000000000001  0.48269  1.0000
  O   O35       1.0  0.62149  0.9842999999999998  0.65003  1.0000
  O   O36       1.0  0.72821  0.88523  0.5458000000000001  1.0000
  O   O37       1.0  0.50517  0.22450000000000003  0.37499000000000005  1.0000
  O   O38       1.0  0.00942  0.69347  0.89079  1.0000
  O   O39       1.0  0.06656  0.73473  0.44641  1.0000
  O   O40       1.0  0.04965  0.7965200000000001  0.4387  1.0000
  O   O41       1.0  0.43441  0.10941000000000005  0.85038  1.0000
  O   O42       1.0  0.38124  0.16147000000000009  0.8756500000000003  1.0000
  O   O43       1.0  0.00743  0.75201  0.83858  1.0000
  O   O44       1.0  0.08327  0.74008  0.85396  1.0000
  O   O45       1.0  0.13806  0.9294899999999999  0.6129  1.0000
  O   O46       1.0  0.28098  0.99422  0.70549  1.0000
  O   O47       1.0  0.19307  0.87905  0.78308  1.0000
  O   O48       1.0  0.46902  0.25776  0.30377  1.0000
  O   O49       1.0  0.47152  0.31218000000000007  0.3602500000000001  1.0000
  O   O50       1.0  0.07853  0.68173  0.31474  1.0000
  O   O51       1.0  0.07836  0.6562500000000001  0.3651200000000001  1.0000
  O   O52       1.0  0.4049  0.25001  0.94258  1.0000
  O   O53       1.0  0.47171  0.24975999999999998  0.97787  1.0000
  O   O54       1.0  0.37374  0.46079000000000003  0.28708  1.0000
  O   O55       1.0  0.25213  0.55481  0.19834  1.0000
  O   O56       1.0  0.29318  0.41394  0.09097  1.0000
  O   O57       1.0  0.53098  0.17563  0.28728  1.0000
  O   O58       1.0  0.59504  0.17607  0.32586  1.0000
  O   O59       1.0  0.52164  0.10744000000000009  0.9073500000000002  1.0000
  O   O60       1.0  0.53297  0.16409  0.96102  1.0000
  O   O61       1.0  0.92376  0.7385  0.9482  1.0000
  O   O62       1.0  0.92392  0.7616400000000002  0.8964100000000003  1.0000
  O   O63       1.0  0.7265000000000001  0.02599000000000003  0.17629000000000006  1.0000
  O   O64       1.0  0.64525  0.96858  0.9796400000000001  1.0000
  O   O65       1.0  0.78082  0.8888  0.0755  1.0000
  O   O66       1.0  0.99536  0.6603  0.42409  1.0000
  O   O67       1.0  0.91948  0.67208  0.40892  1.0000
  O   O68       1.0  0.93342  0.67905  0.82012  1.0000
  O   O69       1.0  0.96392  0.61905  0.82386  1.0000
  O   O70       1.0  0.55689  0.31047  0.41626  1.0000
  O   O71       1.0  0.60945  0.25801  0.40921  1.0000
  O   O72       1.0  0.80696  0.53394  0.48255000000000003  1.0000
  O   O73       1.0  0.8784500000000001  0.48431  0.6498500000000003  1.0000
  O   O74       1.0  0.77145  0.38631  0.54727  1.0000
  O   O75       1.0  0.99482  0.72454  0.37493  1.0000
  O   O76       1.0  0.49036  0.19357  0.89074  1.0000
  O   O77       1.0  0.9334400000000002  0.26526  0.55359  1.0000
  O   O78       1.0  0.95035  0.20348  0.5613  1.0000
  O   O79       1.0  0.5656  0.89059  0.14962  1.0000
  O   O80       1.0  0.61876  0.83853  0.12435  1.0000
  O   O81       1.0  0.99257  0.24799000000000002  0.16142  1.0000
  O   O82       1.0  0.91674  0.25992  0.14605000000000004  1.0000
  O   O83       1.0  0.86194  0.07050999999999998  0.3871  1.0000
  O   O84       1.0  0.71902  0.0057800000000000065  0.29451  1.0000
  O   O85       1.0  0.80693  0.12095  0.21692  1.0000
  O   O86       1.0  0.53098  0.7422300000000001  0.69623  1.0000
  O   O87       1.0  0.52848  0.68782  0.63975  1.0000
  O   O88       1.0  0.92148  0.31827  0.68526  1.0000
  O   O89       1.0  0.92165  0.34375000000000006  0.6348800000000001  1.0000
  O   O90       1.0  0.59511  0.74999  0.05742  1.0000
  O   O91       1.0  0.5283  0.75024  0.02213  1.0000
  O   O92       1.0  0.62626  0.53921  0.71292  1.0000
  O   O93       1.0  0.74787  0.44519  0.80167  1.0000
  O   O94       1.0  0.70682  0.5860600000000001  0.9090300000000002  1.0000
  O   O95       1.0  0.46902  0.82437  0.71272  1.0000
  O   O96       1.0  0.40496  0.82392  0.67414  1.0000
  O   O97       1.0  0.47836  0.89256  0.09265  1.0000
  O   O98       1.0  0.46703  0.83591  0.03898  1.0000
  O   O99       1.0  0.07624  0.2615  0.05181  1.0000
  O   O100      1.0  0.07609  0.23835999999999996  0.10359000000000002  1.0000
  O   O101      1.0  0.27351  0.97401  0.8237200000000001  1.0000
  O   O102      1.0  0.35475  0.03142  0.02036  1.0000
  O   O103      1.0  0.21918  0.11120000000000003  0.9245000000000002  1.0000
  O   O104      1.0  0.00464  0.33969  0.57591  1.0000
  O   O105      1.0  0.08052  0.32792000000000004  0.59108  1.0000
  O   O106      1.0  0.06658  0.32095  0.17988  1.0000
  O   O107      1.0  0.03608000000000001  0.38095  0.17614000000000005  1.0000
  O   O108      1.0  0.4431200000000001  0.68953  0.58374  1.0000
  O   O109      1.0  0.39056  0.74199  0.59079  1.0000
  O   O110      1.0  0.19304  0.4660599999999999  0.5174500000000002  1.0000
  O   O111      1.0  0.12156  0.51569  0.35015  1.0000
  O   O112      1.0  0.22856  0.61369  0.45273  1.0000
  O   O113      1.0  0.00518  0.27546  0.62507  1.0000
  O   O114      1.0  0.50964  0.80643  0.10926000000000002  1.0000
  O   O115      1.0  0.56659  0.76519  0.55353  1.0000
  O   O116      1.0  0.54966  0.70344  0.56128  1.0000
  O   O117      1.0  0.93527  0.39069  0.14972  1.0000
  O   O118      1.0  0.88195  0.3388900000000001  0.12421000000000001  1.0000
  O   O119      1.0  0.50939  0.74812  0.16117  1.0000
  O   O120      1.0  0.58531  0.76016  0.14601  1.0000
  O   O121      1.0  0.638  0.5703400000000001  0.38728000000000007  1.0000
  O   O122      1.0  0.77885  0.50361  0.29454  1.0000
  O   O123      1.0  0.6954100000000001  0.62162  0.21843  1.0000
  O   O124      1.0  0.969  0.24221000000000004  0.69628  1.0000
  O   O125      1.0  0.9715  0.18779  0.63981  1.0000
  O   O126      1.0  0.57849  0.8183  0.68538  1.0000
  O   O127      1.0  0.57846  0.84369  0.63495  1.0000
  O   O128      1.0  0.905  0.2501  0.05738  1.0000
  O   O129      1.0  0.97184  0.25032  0.02213  1.0000
  O   O130      1.0  0.87371  0.03923000000000001  0.71298  1.0000
  O   O131      1.0  0.7522000000000001  0.94527  0.8017300000000002  1.0000
  O   O132      1.0  0.79281  0.08773000000000003  0.9091  1.0000
  O   O133      1.0  0.03094  0.32436  0.71274  1.0000
  O   O134      1.0  0.09502  0.3239  0.67419  1.0000
  O   O135      1.0  0.02374  0.39246  0.09301  1.0000
  O   O136      1.0  0.03311  0.33597  0.038880000000000005  1.0000
  O   O137      1.0  0.42379  0.76145  0.05187000000000001  1.0000
  O   O138      1.0  0.424  0.73835  0.1037  1.0000
  O   O139      1.0  0.22677  0.4726600000000001  0.8237700000000002  1.0000
  O   O140      1.0  0.14543  0.53145  0.02039  1.0000
  O   O141      1.0  0.2809  0.61127  0.92433  1.0000
  O   O142      1.0  0.49535  0.8397199999999999  0.57589  1.0000
  O   O143      1.0  0.41946  0.82798  0.591  1.0000
  O   O144      1.0  0.43354  0.82088  0.17977  1.0000
  O   O145      1.0  0.4639400000000001  0.8809700000000001  0.17610000000000006  1.0000
  O   O146      1.0  0.05686000000000001  0.18958  0.5838  1.0000
  O   O147      1.0  0.10944  0.24201999999999999  0.59089  1.0000
  O   O148      1.0  0.30694  0.9663  0.51731  1.0000
  O   O149      1.0  0.37852  0.015699999999999985  0.34997  1.0000
  O   O150      1.0  0.27179  0.11477000000000004  0.4542000000000001  1.0000
  O   O151      1.0  0.49483  0.7755000000000001  0.6250100000000002  1.0000
  O   O152      1.0  0.99058  0.30653  0.10921  1.0000
