data_image0
_chemical_formula_structural       Rb6Co4H372C300O48
_chemical_formula_sum              "Rb6 Co4 H372 C300 O48"
_cell_length_a       23.14132
_cell_length_b       23.13908
_cell_length_c       23.141450000000003
_cell_angle_alpha    109.51723
_cell_angle_beta     109.50062
_cell_angle_gamma    109.49442

_space_group_name_H-M_alt    "P 1"
_space_group_IT_number       1

loop_
  _space_group_symop_operation_xyz
  'x, y, z'

loop_
  _atom_site_type_symbol
  _atom_site_label
  _atom_site_symmetry_multiplicity
  _atom_site_fract_x
  _atom_site_fract_y
  _atom_site_fract_z
  _atom_site_occupancy
  Rb  Rb1       1.0  0.26826  0.74971  0.51772  1.0000
  Rb  Rb2       1.0  0.23213999999999993  0.24984999999999993  0.98213  1.0000
  Rb  Rb3       1.0  0.75  0.4822  0.23218  1.0000
  Rb  Rb4       1.0  0.24972000000000003  0.01772000000000001  0.26786  1.0000
  Rb  Rb5       1.0  0.51792  0.76811  0.24989000000000003  1.0000
  Rb  Rb6       1.0  0.98202  0.7319599999999998  0.74988  1.0000
  Co  Co1       1.0  3.9999999999976435e-05  0.68535  0.50036  1.0000
  Co  Co2       1.0  0.50018  0.49992  0.18525  1.0000
  Co  Co3       1.0  0.31521  0.8150599999999999  0.31511  1.0000
  Co  Co4       1.0  0.18535000000000007  0.00016000000000009935  0.9998700000000001  1.0000
  H   H1        1.0  0.14959  0.5494  0.47014  1.0000
  H   H2        1.0  0.19754  0.7374  0.68227  1.0000
  H   H3        1.0  0.15511999999999998  0.65172  0.60892  1.0000
  H   H4        1.0  0.3335900000000001  0.60324  0.72267  1.0000
  H   H5        1.0  0.28574  0.5965  0.38364  1.0000
  H   H6        1.0  0.41842  0.82501  0.8590100000000002  1.0000
  H   H7        1.0  0.19267  0.57325  0.58375  1.0000
  H   H8        1.0  0.25553  0.54669  0.60638  1.0000
  H   H9        1.0  0.5325100000000001  0.7549799999999999  0.9413200000000002  1.0000
  H   H10       1.0  0.51668  0.8123899999999998  0.91121  1.0000
  H   H11       1.0  0.51658  0.7381399999999999  0.8548400000000002  1.0000
  H   H12       1.0  0.38667  0.89203  0.81896  1.0000
  H   H13       1.0  0.29818  0.8496  0.75247  1.0000
  H   H14       1.0  0.10973999999999999  0.61205  0.39217  1.0000
  H   H15       1.0  0.07927999999999995  0.5799099999999999  0.3004  1.0000
  H   H16       1.0  0.16872999999999996  0.6457399999999999  0.36238  1.0000
  H   H17       1.0  0.11194999999999998  0.49754999999999994  0.23382  1.0000
  H   H18       1.0  0.17993  0.48405  0.28038  1.0000
  H   H19       1.0  0.20011  0.56932  0.29026  1.0000
  H   H20       1.0  0.43442999999999987  0.6359599999999997  0.89753  1.0000
  H   H21       1.0  0.41989  0.61137  0.81043  1.0000
  H   H22       1.0  0.3482300000000001  0.59989  0.82709  1.0000
  H   H23       1.0  0.43107  0.73853  0.96913  1.0000
  H   H24       1.0  0.34524  0.70867  0.9015499999999999  1.0000
  H   H25       1.0  0.41529000000000005  0.79517  0.9382499999999999  1.0000
  H   H26       1.0  0.06410999999999997  0.48069  0.366  1.0000
  H   H27       1.0  0.09402  0.42955  0.32155  1.0000
  H   H28       1.0  0.035019999999999996  0.45213  0.27528  1.0000
  H   H29       1.0  0.45537  0.62014  0.66727  1.0000
  H   H30       1.0  0.41714  0.56886  0.5732  1.0000
  H   H31       1.0  0.36571  0.54771  0.61364  1.0000
  H   H32       1.0  0.3504500000000001  0.32065  0.90001  1.0000
  H   H33       1.0  0.30292  0.48505999999999994  0.04029  1.0000
  H   H34       1.0  0.34473  0.45392999999999994  0.99643  1.0000
  H   H35       1.0  0.16647  0.38911  0.76997  1.0000
  H   H36       1.0  0.21394  0.09773000000000007  0.81075  1.0000
  H   H37       1.0  0.08199999999999998  0.44070999999999994  0.90696  1.0000
  H   H38       1.0  0.30738  0.39136999999999994  0.88102  1.0000
  H   H39       1.0  0.24447000000000005  0.35102999999999995  0.79148  1.0000
  H   H40       1.0  0.9675099999999999  0.40846  0.72274  1.0000
  H   H41       1.0  0.98373  0.3944699999999999  0.79615  1.0000
  H   H42       1.0  0.98343  0.33792  0.72189  1.0000
  H   H43       1.0  0.11392  0.43261  0.00583  1.0000
  H   H44       1.0  0.20239000000000001  0.45455  0.05186  1.0000
  H   H45       1.0  0.39033  0.28248  0.00246  1.0000
  H   H46       1.0  0.42054  0.22102  0.00064  1.0000
  H   H47       1.0  0.33119  0.19358000000000006  0.97703  1.0000
  H   H48       1.0  0.3875800000000001  0.12168999999999999  0.88545  1.0000
  H   H49       1.0  0.31953  0.10014999999999998  0.80389  1.0000
  H   H50       1.0  0.29954  0.08990999999999993  0.86908  1.0000
  H   H51       1.0  0.06536000000000006  0.46251000000000003  0.7013700000000002  1.0000
  H   H52       1.0  0.07981999999999999  0.38992999999999994  0.69149  1.0000
  H   H53       1.0  0.15153999999999998  0.47843  0.75153  1.0000
  H   H54       1.0  0.06911999999999996  0.5379299999999999  0.8075  1.0000
  H   H55       1.0  0.15503000000000008  0.5563500000000001  0.8634200000000001  1.0000
  H   H56       1.0  0.08526999999999989  0.5231399999999998  0.8801599999999999  1.0000
  H   H57       1.0  0.43579000000000007  0.3018700000000001  0.9167100000000001  1.0000
  H   H58       1.0  0.40560000000000007  0.22734999999999997  0.83546  1.0000
  H   H59       1.0  0.4646100000000001  0.24007  0.91706  1.0000
  H   H60       1.0  0.044919999999999995  0.21238999999999997  0.66503  1.0000
  H   H61       1.0  0.08255000000000008  0.15614  0.65165  1.0000
  H   H62       1.0  0.13451999999999997  0.24814999999999998  0.68237  1.0000
  H   H63       1.0  0.42099  0.95022  0.60016  1.0000
  H   H64       1.0  0.4449199999999999  0.76225  0.4600699999999999  1.0000
  H   H65       1.0  0.45894  0.84837  0.5043  1.0000
  H   H66       1.0  0.61989  0.89685  0.7309  1.0000
  H   H67       1.0  0.28725  0.90324  0.68909  1.0000
  H   H68       1.0  0.53394  0.67506  0.59365  1.0000
  H   H69       1.0  0.51114  0.92685  0.61994  1.0000
  H   H70       1.0  0.56016  0.95345  0.70946  1.0000
  H   H71       1.0  0.68673  0.7451399999999999  0.77768  1.0000
  H   H72       1.0  0.59905  0.68774  0.70436  1.0000
  H   H73       1.0  0.61714  0.7619  0.7788  1.0000
  H   H74       1.0  0.4269599999999999  0.6081199999999999  0.49461999999999995  1.0000
  H   H75       1.0  0.40291000000000005  0.6504299999999998  0.44854  1.0000
  H   H76       1.0  0.28047  0.88781  0.49742  1.0000
  H   H77       1.0  0.22065000000000004  0.9196199999999999  0.4990800000000001  1.0000
  H   H78       1.0  0.21681000000000003  0.85371  0.52243  1.0000
  H   H79       1.0  0.23634  0.0017899999999999969  0.61407  1.0000
  H   H80       1.0  0.2962  0.015290000000000002  0.69567  1.0000
  H   H81       1.0  0.22071000000000005  0.9299699999999999  0.63018  1.0000
  H   H82       1.0  0.76212  0.8644  0.7989  1.0000
  H   H83       1.0  0.69961  0.8888  0.80916  1.0000
  H   H84       1.0  0.72756  0.90033  0.74889  1.0000
  H   H85       1.0  0.7307900000000002  0.7616899999999999  0.69253  1.0000
  H   H86       1.0  0.69286  0.79146  0.6367  1.0000
  H   H87       1.0  0.64299  0.70499  0.6202  1.0000
  H   H88       1.0  0.38569  0.019159999999999986  0.5837  1.0000
  H   H89       1.0  0.39214  0.07014  0.66473  1.0000
  H   H90       1.0  0.32333000000000006  0.04739000000000006  0.5829500000000001  1.0000
  H   H91       1.0  0.54746  0.88027  0.83563  1.0000
  H   H92       1.0  0.5045599999999999  0.9313199999999999  0.84857  1.0000
  H   H93       1.0  0.56622  0.95254  0.81839  1.0000
  H   H94       1.0  0.07907  0.17944999999999994  0.029860000000000005  1.0000
  H   H95       1.0  0.05447999999999999  0.015039999999999974  0.81744  1.0000
  H   H96       1.0  0.041620000000000004  0.04589000000000001  0.89023  1.0000
  H   H97       1.0  0.8804000000000001  0.11103999999999993  0.77716  1.0000
  H   H98       1.0  0.21321999999999997  0.40229999999999994  0.11658  1.0000
  H   H99       1.0  0.9658399999999999  0.05947000000000002  0.64114  1.0000
  H   H100      1.0  0.98913  0.10870000000000005  0.9158700000000001  1.0000
  H   H101      1.0  0.9400300000000001  0.14904999999999996  0.8934200000000001  1.0000
  H   H102      1.0  0.81379  0.09125  0.55862  1.0000
  H   H103      1.0  0.90128  0.1054  0.58894  1.0000
  H   H104      1.0  0.8835200000000001  0.16191999999999998  0.64517  1.0000
  H   H105      1.0  0.07265  0.06741999999999998  0.68113  1.0000
  H   H106      1.0  0.09672999999999994  0.04550999999999997  0.74758  1.0000
  H   H107      1.0  0.2194  0.21715999999999994  0.10774  1.0000
  H   H108      1.0  0.27945  0.27870999999999996  0.19951  1.0000
  H   H109      1.0  0.28327000000000013  0.30589  0.13747  1.0000
  H   H110      1.0  0.2642  0.3783099999999999  0.26624  1.0000
  H   H111      1.0  0.20443  0.4000699999999999  0.21988  1.0000
  H   H112      1.0  0.27974  0.4099899999999999  0.21  1.0000
  H   H113      1.0  0.73827  0.037210000000000014  0.60223  1.0000
  H   H114      1.0  0.80097  0.10991000000000001  0.68936  1.0000
  H   H115      1.0  0.7725200000000002  0.021530000000000007  0.67265  1.0000
  H   H116      1.0  0.76905  0.9618999999999998  0.53072  1.0000
  H   H117      1.0  0.80665  0.9436599999999998  0.5983  1.0000
  H   H118      1.0  0.8565900000000002  0.97687  0.56182  1.0000
  H   H119      1.0  0.11459  0.19828  0.13397  1.0000
  H   H120      1.0  0.10821000000000001  0.27287999999999996  0.17852  1.0000
  H   H121      1.0  0.17698000000000005  0.26004  0.22470000000000004  1.0000
  H   H122      1.0  0.95253  0.28742999999999996  0.83262  1.0000
  H   H123      1.0  0.9953900000000002  0.34364000000000006  0.9266000000000001  1.0000
  H   H124      1.0  0.9340899999999998  0.2515999999999999  0.88636  1.0000
  H   H125      1.0  0.6793699999999999  0.5297599999999999  0.07935  1.0000
  H   H126      1.0  0.51512  0.31742  0.05464  1.0000
  H   H127      1.0  0.54584  0.39010999999999996  0.04156  1.0000
  H   H128      1.0  0.6111  0.27712000000000003  0.88044  1.0000
  H   H129      1.0  0.90232  0.6167  0.21313999999999997  1.0000
  H   H130      1.0  0.55946  0.1410999999999999  0.9658699999999999  1.0000
  H   H131      1.0  0.60874  0.4158  0.9892  1.0000
  H   H132      1.0  0.64914  0.3934  0.94014  1.0000
  H   H133      1.0  0.59118  0.05851999999999996  0.81358  1.0000
  H   H134      1.0  0.6054600000000001  0.0888400000000001  0.9011200000000001  1.0000
  H   H135      1.0  0.6618400000000002  0.14509000000000008  0.8833300000000001  1.0000
  H   H136      1.0  0.5674  0.18108999999999997  0.07265  1.0000
  H   H137      1.0  0.54556  0.24762  0.09678  1.0000
  H   H138      1.0  0.71734  0.6078599999999998  0.21962  1.0000
  H   H139      1.0  0.77877  0.69966  0.27955  1.0000
  H   H140      1.0  0.80608  0.63772  0.28347  1.0000
  H   H141      1.0  0.87832  0.76633  0.26418  1.0000
  H   H142      1.0  0.8999500000000001  0.7198599999999999  0.20431  1.0000
  H   H143      1.0  0.91004  0.71009  0.27971  1.0000
  H   H144      1.0  0.53683  0.10205000000000007  0.73811  1.0000
  H   H145      1.0  0.60959  0.18918999999999997  0.80077  1.0000
  H   H146      1.0  0.52128  0.17254999999999995  0.77255  1.0000
  H   H147      1.0  0.46184000000000003  0.030590000000000006  0.76909  1.0000
  H   H148      1.0  0.44362  0.09816  0.80679  1.0000
  H   H149      1.0  0.47698  0.06170000000000007  0.8567000000000001  1.0000
  H   H150      1.0  0.69827  0.63395  0.11462000000000001  1.0000
  H   H151      1.0  0.77284  0.67851  0.10824  1.0000
  H   H152      1.0  0.7599800000000001  0.7247199999999999  0.17701  1.0000
  H   H153      1.0  0.7877299999999999  0.33275999999999994  0.95266  1.0000
  H   H154      1.0  0.8440000000000003  0.42679  0.9957700000000002  1.0000
  H   H155      1.0  0.7520400000000002  0.38658  0.9342  1.0000
  H   H156      1.0  0.4502100000000001  0.10004  0.42088  1.0000
  H   H157      1.0  0.26198  0.95972  0.44449  1.0000
  H   H158      1.0  0.3481  0.003960000000000036  0.45852000000000004  1.0000
  H   H159      1.0  0.39684  0.23068999999999998  0.61976  1.0000
  H   H160      1.0  0.40323  0.18902  0.28717  1.0000
  H   H161      1.0  0.17507000000000003  0.09358999999999995  0.53394  1.0000
  H   H162      1.0  0.4267000000000001  0.11964999999999994  0.5109  1.0000
  H   H163      1.0  0.45332000000000006  0.20914999999999997  0.56003  1.0000
  H   H164      1.0  0.24504  0.2775499999999999  0.68653  1.0000
  H   H165      1.0  0.18768999999999994  0.20412999999999998  0.59889  1.0000
  H   H166      1.0  0.26168  0.27858  0.61684  1.0000
  H   H167      1.0  0.10806  0.99457  0.42687  1.0000
  H   H168      1.0  0.15030000000000004  0.94841  0.40279  1.0000
  H   H169      1.0  0.38790000000000013  0.99733  0.28038  1.0000
  H   H170      1.0  0.41971  0.9990100000000001  0.22055  1.0000
  H   H171      1.0  0.35378  0.022319999999999996  0.21672  1.0000
  H   H172      1.0  0.50185  0.11403  0.23631  1.0000
  H   H173      1.0  0.51529  0.19561999999999996  0.29618  1.0000
  H   H174      1.0  0.43001999999999996  0.13011999999999999  0.22066000000000002  1.0000
  H   H175      1.0  0.36438000000000004  0.29912999999999995  0.76192  1.0000
  H   H176      1.0  0.38868  0.30919  0.69929  1.0000
  H   H177      1.0  0.4004300000000001  0.24915999999999994  0.72755  1.0000
  H   H178      1.0  0.26192  0.1927399999999999  0.7308500000000001  1.0000
  H   H179      1.0  0.29183  0.13696  0.69308  1.0000
  H   H180      1.0  0.20527000000000004  0.12020999999999998  0.64311  1.0000
  H   H181      1.0  0.51918  0.08364  0.38565  1.0000
  H   H182      1.0  0.5701300000000001  0.16466999999999998  0.39211000000000007  1.0000
  H   H183      1.0  0.5474199999999999  0.08288999999999998  0.3233  1.0000
  H   H184      1.0  0.38024000000000013  0.33548000000000006  0.54751  1.0000
  H   H185      1.0  0.43122  0.34848999999999997  0.5046  1.0000
  H   H186      1.0  0.45249  0.31819  0.56615  1.0000
  H   H187      1.0  0.8207700000000001  0.40035  0.35043  1.0000
  H   H188      1.0  0.98524  0.54063  0.30305  1.0000
  H   H189      1.0  0.9542799999999999  0.49671999999999994  0.34494  1.0000
  H   H190      1.0  0.88902  0.26996  0.16637  1.0000
  H   H191      1.0  0.5978  0.31065000000000004  0.21405  1.0000
  H   H192      1.0  0.94075  0.407  0.08203  1.0000
  H   H193      1.0  0.89135  0.3811  0.3074  1.0000
  H   H194      1.0  0.85103  0.29155999999999993  0.24445000000000003  1.0000
  H   H195      1.0  0.9084200000000002  0.22267000000000006  0.9674700000000002  1.0000
  H   H196      1.0  0.8944700000000001  0.2961300000000001  0.9836900000000001  1.0000
  H   H197      1.0  0.83793  0.22191000000000005  0.98341  1.0000
  H   H198      1.0  0.93271  0.50593  0.11398  1.0000
  H   H199      1.0  0.9546000000000002  0.55203  0.20239  1.0000
  H   H200      1.0  0.78258  0.50253  0.3904500000000001  1.0000
  H   H201      1.0  0.72116  0.50077  0.42071  1.0000
  H   H202      1.0  0.69371  0.47712999999999994  0.33133  1.0000
  H   H203      1.0  0.6218500000000001  0.3855199999999999  0.38773  1.0000
  H   H204      1.0  0.60034  0.30398  0.31965  1.0000
  H   H205      1.0  0.59003  0.36916  0.29969  1.0000
  H   H206      1.0  0.9624700000000002  0.20132  0.06532  1.0000
  H   H207      1.0  0.8899200000000003  0.19147999999999998  0.07979  1.0000
  H   H208      1.0  0.9784  0.25151  0.15152  1.0000
  H   H209      1.0  0.03786999999999998  0.30740999999999996  0.06905  1.0000
  H   H210      1.0  0.056320000000000016  0.36334999999999995  0.155  1.0000
  H   H211      1.0  0.023099999999999957  0.3801199999999999  0.08526  1.0000
  H   H212      1.0  0.8019400000000001  0.4165999999999999  0.43576000000000004  1.0000
  H   H213      1.0  0.72739  0.33539999999999986  0.40552  1.0000
  H   H214      1.0  0.74025  0.41702999999999996  0.4647  1.0000
  H   H215      1.0  0.712  0.16476  0.04478  1.0000
  H   H216      1.0  0.65574  0.15168  0.08242000000000001  1.0000
  H   H217      1.0  0.7476100000000002  0.18197  0.13434  1.0000
  H   H218      1.0  0.04943000000000001  0.97006  0.14947  1.0000
  H   H219      1.0  0.23723000000000005  0.18226999999999996  0.19726  1.0000
  H   H220      1.0  0.15153  0.10887  0.15492  1.0000
  H   H221      1.0  0.10333999999999999  0.22262  0.33354  1.0000
  H   H222      1.0  0.09646999999999989  0.8835399999999998  0.28563  1.0000
  H   H223      1.0  0.32498999999999995  0.35886999999999997  0.41842  1.0000
  H   H224      1.0  0.07327000000000002  0.08367  0.19254  1.0000
  H   H225      1.0  0.04676000000000001  0.10635999999999998  0.25545  1.0000
  H   H226      1.0  0.255  0.44129  0.53248  1.0000
  H   H227      1.0  0.31238  0.41117  0.51668  1.0000
  H   H228      1.0  0.23817999999999998  0.35483999999999993  0.51658  1.0000
  H   H229      1.0  0.39199  0.31886  0.38664  1.0000
  H   H230      1.0  0.34961  0.25239  0.29812  1.0000
  H   H231      1.0  0.11195999999999993  0.8920899999999998  0.10961  1.0000
  H   H232      1.0  0.07981999999999995  0.8002999999999999  0.07905  1.0000
  H   H233      1.0  0.14568000000000006  0.86224  0.16852  1.0000
  H   H234      1.0  0.9975999999999999  0.7337199999999999  0.11181000000000002  1.0000
  H   H235      1.0  0.9841100000000002  0.78025  0.17981  1.0000
  H   H236      1.0  0.06934000000000005  0.79015  0.19995  1.0000
  H   H237      1.0  0.13599999999999998  0.3974899999999999  0.43442000000000003  1.0000
  H   H238      1.0  0.11144999999999995  0.3104199999999999  0.41989  1.0000
  H   H239      1.0  0.09995000000000001  0.32705  0.34823  1.0000
  H   H240      1.0  0.23851000000000003  0.46908  0.43104  1.0000
  H   H241      1.0  0.20862999999999998  0.4014499999999999  0.34519  1.0000
  H   H242      1.0  0.29514  0.43815  0.41522  1.0000
  H   H243      1.0  0.9806600000000001  0.8658999999999999  0.06401  1.0000
  H   H244      1.0  0.92956  0.82146  0.09389  1.0000
  H   H245      1.0  0.9521300000000003  0.7752  0.03489  1.0000
  H   H246      1.0  0.12017000000000001  0.16727  0.45533  1.0000
  H   H247      1.0  0.06892  0.07323  0.4171  1.0000
  H   H248      1.0  0.047739999999999984  0.11362999999999998  0.36565  1.0000
  H   H249      1.0  0.60032  0.92109  0.4504500000000001  1.0000
  H   H250      1.0  0.45995  0.94465  0.26211  1.0000
  H   H251      1.0  0.50416  0.95873  0.3482  1.0000
  H   H252      1.0  0.7308  0.11984999999999994  0.3969  1.0000
  H   H253      1.0  0.68894  0.7870699999999999  0.40306  1.0000
  H   H254      1.0  0.59364  0.03391999999999999  0.17511  1.0000
  H   H255      1.0  0.6198700000000003  0.01108000000000006  0.42685000000000006  1.0000
  H   H256      1.0  0.70934  0.060179999999999984  0.45345  1.0000
  H   H257      1.0  0.7776  0.18662  0.24514999999999998  1.0000
  H   H258      1.0  0.7043  0.09894999999999998  0.18778  1.0000
  H   H259      1.0  0.77871  0.11703  0.26188  1.0000
  H   H260      1.0  0.4947  0.92693  0.10815000000000001  1.0000
  H   H261      1.0  0.44852999999999993  0.9028899999999997  0.15039  1.0000
  H   H262      1.0  0.49748  0.7804499999999999  0.38791  1.0000
  H   H263      1.0  0.49916  0.72062  0.41969  1.0000
  H   H264      1.0  0.5224799999999999  0.7167799999999999  0.35378  1.0000
  H   H265      1.0  0.61413  0.73637  0.50188  1.0000
  H   H266      1.0  0.6957  0.79621  0.51533  1.0000
  H   H267      1.0  0.63024  0.7206799999999999  0.43005000000000004  1.0000
  H   H268      1.0  0.7989100000000001  0.26208  0.36441  1.0000
  H   H269      1.0  0.8091100000000002  0.19958  0.38882  1.0000
  H   H270      1.0  0.7489300000000002  0.22763  0.40039  1.0000
  H   H271      1.0  0.69258  0.23079  0.26178  1.0000
  H   H272      1.0  0.63676  0.19294999999999998  0.29158  1.0000
  H   H273      1.0  0.62021  0.14301999999999998  0.20512  1.0000
  H   H274      1.0  0.5837399999999999  0.8857199999999998  0.51921  1.0000
  H   H275      1.0  0.6647699999999999  0.8921999999999998  0.57017  1.0000
  H   H276      1.0  0.58302  0.8234  0.54747  1.0000
  H   H277      1.0  0.83544  0.047490000000000004  0.38021  1.0000
  H   H278      1.0  0.8484800000000001  0.004629999999999989  0.43125  1.0000
  H   H279      1.0  0.8181  0.06615000000000006  0.4524500000000001  1.0000
  H   H280      1.0  0.029690000000000008  0.57883  0.67932  1.0000
  H   H281      1.0  0.8177  0.55427  0.51496  1.0000
  H   H282      1.0  0.89038  0.54122  0.54593  1.0000
  H   H283      1.0  0.77705  0.38021  0.61117  1.0000
  H   H284      1.0  0.11654999999999996  0.7131499999999998  0.90219  1.0000
  H   H285      1.0  0.64127  0.4659  0.55963  1.0000
  H   H286      1.0  0.9158099999999998  0.4885899999999999  0.60874  1.0000
  H   H287      1.0  0.8933  0.43978  0.6493  1.0000
  H   H288      1.0  0.55845  0.31349999999999995  0.59113  1.0000
  H   H289      1.0  0.58881  0.40107  0.60553  1.0000
  H   H290      1.0  0.64496  0.38318  0.66189  1.0000
  H   H291      1.0  0.68126  0.57253  0.56734  1.0000
  H   H292      1.0  0.74784  0.59668  0.54557  1.0000
  H   H293      1.0  0.10766000000000005  0.71934  0.71711  1.0000
  H   H294      1.0  0.19939999999999997  0.7793899999999999  0.77866  1.0000
  H   H295      1.0  0.13736000000000007  0.78317  0.80585  1.0000
  H   H296      1.0  0.2661399999999999  0.7639599999999999  0.87813  1.0000
  H   H297      1.0  0.21970000000000017  0.7041700000000001  0.8998300000000001  1.0000
  H   H298      1.0  0.20995  0.77958  0.90988  1.0000
  H   H299      1.0  0.60193  0.23797999999999994  0.53679  1.0000
  H   H300      1.0  0.6890300000000003  0.30054999999999993  0.6096  1.0000
  H   H301      1.0  0.6724599999999998  0.27238  0.5213  1.0000
  H   H302      1.0  0.5306200000000001  0.26911000000000007  0.46187000000000006  1.0000
  H   H303      1.0  0.5982  0.30680999999999997  0.44369  1.0000
  H   H304      1.0  0.5618  0.35676  0.47713  1.0000
  H   H305      1.0  0.13377000000000006  0.61441  0.69808  1.0000
  H   H306      1.0  0.17833  0.60802  0.77264  1.0000
  H   H307      1.0  0.22451  0.67679  0.75979  1.0000
  H   H308      1.0  0.8326999999999999  0.45257999999999987  0.78769  1.0000
  H   H309      1.0  0.92667  0.49556999999999995  0.84393  1.0000
  H   H310      1.0  0.8864700000000001  0.43406  0.75194  1.0000
  H   H311      1.0  0.47007  0.64946  0.04929  1.0000
  H   H312      1.0  0.6821500000000001  0.69711  0.23693000000000003  1.0000
  H   H313      1.0  0.6086499999999999  0.6546599999999999  0.15133  1.0000
  H   H314      1.0  0.7225900000000001  0.8334499999999999  0.10316  1.0000
  H   H315      1.0  0.38367999999999985  0.7857299999999998  0.09659  1.0000
  H   H316      1.0  0.8587499999999998  0.9181999999999999  0.32487  1.0000
  H   H317      1.0  0.5836  0.69246  0.07304  1.0000
  H   H318      1.0  0.60628  0.75535  0.04654  1.0000
  H   H319      1.0  0.94117  0.03246000000000001  0.25504  1.0000
  H   H320      1.0  0.9110000000000001  0.016560000000000002  0.31236  1.0000
  H   H321      1.0  0.85468  0.01646999999999999  0.23814999999999997  1.0000
  H   H322      1.0  0.8187300000000001  0.8863599999999999  0.39176  1.0000
  H   H323      1.0  0.75215  0.7978699999999999  0.34933000000000003  1.0000
  H   H324      1.0  0.39225000000000004  0.6096499999999999  0.11197999999999998  1.0000
  H   H325      1.0  0.30052  0.57921  0.07998  1.0000
  H   H326      1.0  0.36254000000000003  0.6686599999999998  0.14583  1.0000
  H   H327      1.0  0.23388999999999993  0.6119899999999999  0.99782  1.0000
  H   H328      1.0  0.28036999999999995  0.6799699999999999  0.98431  1.0000
  H   H329      1.0  0.29038  0.70013  0.06959  1.0000
  H   H330      1.0  0.8974300000000001  0.93437  0.13594  1.0000
  H   H331      1.0  0.8103500000000001  0.91983  0.11138999999999999  1.0000
  H   H332      1.0  0.82702  0.8481700000000001  0.09986  1.0000
  H   H333      1.0  0.9690100000000003  0.93098  0.23846  1.0000
  H   H334      1.0  0.90146  0.8451299999999999  0.20858  1.0000
  H   H335      1.0  0.9381300000000001  0.9151700000000002  0.2950900000000001  1.0000
  H   H336      1.0  0.36585000000000006  0.5639700000000001  0.9805800000000001  1.0000
  H   H337      1.0  0.32138  0.5939  0.92954  1.0000
  H   H338      1.0  0.2752000000000001  0.5349600000000001  0.9522000000000002  1.0000
  H   H339      1.0  0.6673299999999999  0.9553099999999999  0.12021  1.0000
  H   H340      1.0  0.5733  0.91707  0.06888  1.0000
  H   H341      1.0  0.61375  0.8656199999999997  0.04778  1.0000
  H   H342      1.0  0.90021  0.85042  0.82074  1.0000
  H   H343      1.0  0.04057999999999993  0.8030499999999999  0.98518  1.0000
  H   H344      1.0  0.99675  0.84496  0.95424  1.0000
  H   H345      1.0  0.77005  0.6664799999999999  0.88914  1.0000
  H   H346      1.0  0.81078  0.7138999999999999  0.59779  1.0000
  H   H347      1.0  0.90714  0.58216  0.94085  1.0000
  H   H348      1.0  0.88109  0.80744  0.89136  1.0000
  H   H349      1.0  0.7915700000000001  0.7445399999999999  0.8510899999999999  1.0000
  H   H350      1.0  0.7227600000000001  0.4676  0.90845  1.0000
  H   H351      1.0  0.79615  0.48376  0.8944100000000001  1.0000
  H   H352      1.0  0.72197  0.48365  0.83801  1.0000
  H   H353      1.0  0.005939999999999993  0.61405  0.93272  1.0000
  H   H354      1.0  0.051989999999999995  0.70244  0.95456  1.0000
  H   H355      1.0  0.002489999999999953  0.89036  0.78254  1.0000
  H   H356      1.0  0.0006800000000000215  0.9204899999999999  0.7210300000000001  1.0000
  H   H357      1.0  0.97707  0.83113  0.69367  1.0000
  H   H358      1.0  0.8855  0.88757  0.62176  1.0000
  H   H359      1.0  0.80397  0.8195199999999999  0.60025  1.0000
  H   H360      1.0  0.86911  0.79951  0.58996  1.0000
  H   H361      1.0  0.7016499999999998  0.5656499999999999  0.96283  1.0000
  H   H362      1.0  0.69175  0.5801299999999999  0.8903  1.0000
  H   H363      1.0  0.7519  0.6518400000000001  0.9787900000000002  1.0000
  H   H364      1.0  0.8076200000000001  0.56911  0.038  1.0000
  H   H365      1.0  0.86365  0.65505  0.05652  1.0000
  H   H366      1.0  0.8802300000000001  0.58519  0.02314  1.0000
  H   H367      1.0  0.91665  0.93577  0.80191  1.0000
  H   H368      1.0  0.83544  0.90552  0.72737  1.0000
  H   H369      1.0  0.91702  0.9645999999999999  0.74013  1.0000
  H   H370      1.0  0.66483  0.54483  0.71207  1.0000
  H   H371      1.0  0.65173  0.5825299999999999  0.65587  1.0000
  H   H372      1.0  0.68214  0.63444  0.74779  1.0000
  C   C1        1.0  0.33733  0.6196  0.49076000000000003  1.0000
  C   C2        1.0  0.29818  0.72043  0.68388  1.0000
  C   C3        1.0  0.20169000000000004  0.5682199999999998  0.47485  1.0000
  C   C4        1.0  0.32766  0.61702  0.54695  1.0000
  C   C5        1.0  0.2958700000000001  0.6561699999999999  0.67266  1.0000
  C   C6        1.0  0.18715  0.70852  0.62815  1.0000
  C   C7        1.0  0.14436  0.53958  0.34534  1.0000
  C   C8        1.0  0.3369  0.65368  0.73134  1.0000
  C   C9        1.0  0.34402  0.78231  0.75058  1.0000
  C   C10       1.0  0.20879  0.567  0.41643  1.0000
  C   C11       1.0  0.25997000000000003  0.59266  0.5401300000000001  1.0000
  C   C12       1.0  0.27741000000000005  0.59413  0.42650000000000005  1.0000
  C   C13       1.0  0.14245999999999998  0.7279100000000001  0.58169  1.0000
  C   C14       1.0  0.37975000000000003  0.7129399999999999  0.7995  1.0000
  C   C15       1.0  0.38381  0.77713  0.80722  1.0000
  C   C16       1.0  0.24862000000000006  0.58957  0.60031  1.0000
  C   C17       1.0  0.50165  0.75679  0.89479  1.0000
  C   C18       1.0  0.34938  0.85275  0.76233  1.0000
  C   C19       1.0  0.12455000000000004  0.59805  0.35116  1.0000
  C   C20       1.0  0.16057999999999997  0.52179  0.28421  1.0000
  C   C21       1.0  0.40486000000000005  0.63489  0.84855  1.0000
  C   C22       1.0  0.4022200000000001  0.7400599999999998  0.92179  1.0000
  C   C23       1.0  0.08081999999999996  0.4716999999999999  0.32622  1.0000
  C   C24       1.0  0.42145999999999995  0.7105999999999999  0.86501  1.0000
  C   C25       1.0  0.40658  0.59142  0.61596  1.0000
  C   C26       1.0  0.16251000000000002  0.15339000000000003  0.78237  1.0000
  C   C27       1.0  0.2019099999999999  0.3856999999999999  0.92254  1.0000
  C   C28       1.0  0.29827000000000004  0.2732  0.86668  1.0000
  C   C29       1.0  0.17228000000000007  0.21928000000000006  0.78951  1.0000
  C   C30       1.0  0.20418999999999998  0.3768199999999999  0.8605899999999999  1.0000
  C   C31       1.0  0.31316  0.44128  0.02159  1.0000
  C   C32       1.0  0.3554000000000001  0.20087000000000002  0.8951900000000002  1.0000
  C   C33       1.0  0.16317000000000006  0.39445000000000013  0.8170800000000001  1.0000
  C   C34       1.0  0.15617  0.40655  0.93857  1.0000
  C   C35       1.0  0.2910500000000001  0.2076000000000001  0.8582300000000002  1.0000
  C   C36       1.0  0.24005000000000004  0.2802299999999999  0.83288  1.0000
  C   C37       1.0  0.22235  0.14897999999999992  0.81675  1.0000
  C   C38       1.0  0.35841  0.4397899999999999  0.08564  1.0000
  C   C39       1.0  0.12044000000000005  0.41977999999999993  0.83347  1.0000
  C   C40       1.0  0.11647999999999992  0.42346999999999996  0.89364  1.0000
  C   C41       1.0  0.25142000000000003  0.35183999999999993  0.84127  1.0000
  C   C42       1.0  0.9985000000000002  0.39291999999999994  0.75545  1.0000
  C   C43       1.0  0.15105999999999997  0.41317999999999994  0.00379  1.0000
  C   C44       1.0  0.3753500000000001  0.22657000000000008  0.9735500000000001  1.0000
  C   C45       1.0  0.33899000000000007  0.12342000000000002  0.86106  1.0000
  C   C46       1.0  0.09495000000000005  0.4432099999999999  0.72999  1.0000
  C   C47       1.0  0.09806999999999998  0.5195599999999999  0.83796  1.0000
  C   C48       1.0  0.41890000000000005  0.24529000000000012  0.8908700000000002  1.0000
  C   C49       1.0  0.07864000000000003  0.44339  0.78928  1.0000
  C   C50       1.0  0.09349000000000003  0.20959000000000003  0.68503  1.0000
  C   C51       1.0  0.37128999999999995  0.8803199999999999  0.71772  1.0000
  C   C52       1.0  0.4637100000000001  0.77968  0.5779700000000001  1.0000
  C   C53       1.0  0.40683999999999987  0.9314999999999998  0.63345  1.0000
  C   C54       1.0  0.4301199999999999  0.8829799999999999  0.71076  1.0000
  C   C55       1.0  0.51685  0.84394  0.64007  1.0000
  C   C56       1.0  0.42039000000000004  0.7917599999999999  0.47898  1.0000
  C   C57       1.0  0.30588  0.95996  0.60461  1.0000
  C   C58       1.0  0.57801  0.8464199999999998  0.68365  1.0000
  C   C59       1.0  0.4683800000000001  0.71779  0.56185  1.0000
  C   C60       1.0  0.34958000000000006  0.93267  0.64167  1.0000
  C   C61       1.0  0.4477499999999999  0.9072699999999999  0.66746  1.0000
  C   C62       1.0  0.33247  0.9056  0.68315  1.0000
  C   C63       1.0  0.35491  0.77328  0.41503  1.0000
  C   C64       1.0  0.58678  0.7871699999999998  0.66719  1.0000
  C   C65       1.0  0.53016  0.72296  0.60694  1.0000
  C   C66       1.0  0.5112  0.91052  0.6595  1.0000
  C   C67       1.0  0.6383399999999999  0.7433299999999999  0.74508  1.0000
  C   C68       1.0  0.4096099999999999  0.6473199999999999  0.4966  1.0000
  C   C69       1.0  0.25329999999999997  0.90153  0.52615  1.0000
  C   C70       1.0  0.26237999999999995  0.9775599999999999  0.63846  1.0000
  C   C71       1.0  0.7140899999999999  0.8653299999999999  0.77046  1.0000
  C   C72       1.0  0.68183  0.7601099999999998  0.66229  1.0000
  C   C73       1.0  0.35475  0.02797  0.60927  1.0000
  C   C74       1.0  0.65471  0.7895799999999998  0.71123  1.0000
  C   C75       1.0  0.5247899999999999  0.9088199999999999  0.81548  1.0000
  C   C76       1.0  0.12903999999999996  0.34664999999999996  0.00945  1.0000
  C   C77       1.0  0.03638000000000002  0.11436000000000002  0.81614  1.0000
  C   C78       1.0  0.09326  0.22685  0.02519  1.0000
  C   C79       1.0  0.07018  0.28074  0.95318  1.0000
  C   C80       1.0  0.98328  0.12319  0.82726  1.0000
  C   C81       1.0  0.07963000000000008  0.05874000000000006  0.8715900000000001  1.0000
  C   C82       1.0  0.1944  0.29914  0.15471  1.0000
  C   C83       1.0  0.9221400000000002  0.10561000000000006  0.76855  1.0000
  C   C84       1.0  0.03157999999999999  0.09351999999999992  0.74954  1.0000
  C   C85       1.0  0.15064  0.29245  0.08367  1.0000
  C   C86       1.0  0.052419999999999974  0.21980999999999998  0.9599  1.0000
  C   C87       1.0  0.16788000000000003  0.35102999999999995  0.07367  1.0000
  C   C88       1.0  0.14509000000000008  0.05999000000000004  0.9181800000000001  1.0000
  C   C89       1.0  0.9132600000000002  0.08036  0.70048  1.0000
  C   C90       1.0  0.96973  0.07660999999999998  0.69286  1.0000
  C   C91       1.0  0.9890000000000001  0.14822000000000002  0.89953  1.0000
  C   C92       1.0  0.8621000000000001  0.10692999999999997  0.60524  1.0000
  C   C93       1.0  0.09013999999999998  0.08689  0.73775  1.0000
  C   C94       1.0  0.24675  0.27314  0.14875  1.0000
  C   C95       1.0  0.23810000000000003  0.37661  0.21593000000000004  1.0000
  C   C96       1.0  0.7862100000000001  0.05663999999999999  0.65124  1.0000
  C   C97       1.0  0.81793  0.98039  0.57814  1.0000
  C   C98       1.0  0.14557  0.25487  0.17378  1.0000
  C   C99       1.0  0.84543  0.056579999999999984  0.63492  1.0000
  C   C100      1.0  0.97535  0.29023  0.8839900000000002  1.0000
  C   C101      1.0  0.84669  0.50951  0.12905  1.0000
  C   C102      1.0  0.61441  0.31611999999999996  0.03642  1.0000
  C   C103      1.0  0.7268  0.52511  0.09343  1.0000
  C   C104      1.0  0.7807600000000001  0.45318  0.0702  1.0000
  C   C105      1.0  0.6233000000000001  0.3272300000000001  0.9833700000000001  1.0000
  C   C106      1.0  0.55877  0.37157  0.07966  1.0000
  C   C107      1.0  0.7991500000000002  0.65476  0.19446  1.0000
  C   C108      1.0  0.60566  0.2685099999999999  0.92217  1.0000
  C   C109      1.0  0.59352  0.24948999999999993  0.0316  1.0000
  C   C110      1.0  0.7924300000000001  0.58367  0.15073  1.0000
  C   C111      1.0  0.71983  0.45987999999999996  0.05254  1.0000
  C   C112      1.0  0.85104  0.57373  0.16786  1.0000
  C   C113      1.0  0.5601600000000001  0.41840999999999995  0.14512  1.0000
  C   C114      1.0  0.58035  0.20041  0.91327  1.0000
  C   C115      1.0  0.57664  0.19282000000000005  0.96975  1.0000
  C   C116      1.0  0.64829  0.39948999999999996  0.98909  1.0000
  C   C117      1.0  0.60688  0.10512999999999993  0.86193  1.0000
  C   C118      1.0  0.5869  0.23773  0.09017  1.0000
  C   C119      1.0  0.77326  0.64891  0.24691  1.0000
  C   C120      1.0  0.8766000000000002  0.7159799999999998  0.23808  1.0000
  C   C121      1.0  0.55637  0.15109000000000006  0.78611  1.0000
  C   C122      1.0  0.48038  0.07800999999999994  0.818  1.0000
  C   C123      1.0  0.7548300000000001  0.6737999999999998  0.14561  1.0000
  C   C124      1.0  0.55649  0.13481000000000004  0.84539  1.0000
  C   C125      1.0  0.79054  0.38415000000000005  0.9755100000000001  1.0000
  C   C126      1.0  0.3803000000000001  0.21760999999999994  0.37122  1.0000
  C   C127      1.0  0.27955  0.07774999999999996  0.46352  1.0000
  C   C128      1.0  0.43146  0.13332999999999998  0.40674  1.0000
  C   C129      1.0  0.38294000000000006  0.21063999999999994  0.43005000000000004  1.0000
  C   C130      1.0  0.34383  0.13984  0.51669  1.0000
  C   C131      1.0  0.29149  0.9786699999999999  0.41998  1.0000
  C   C132      1.0  0.45999  0.10453999999999998  0.30582  1.0000
  C   C133      1.0  0.34639000000000003  0.18345999999999998  0.57789  1.0000
  C   C134      1.0  0.21772  0.06170999999999999  0.4682700000000001  1.0000
  C   C135      1.0  0.43268  0.14158999999999997  0.34951  1.0000
  C   C136      1.0  0.40722  0.16730999999999996  0.44764000000000004  1.0000
  C   C137      1.0  0.40559  0.18305  0.3324  1.0000
  C   C138      1.0  0.27296  0.91477  0.35438  1.0000
  C   C139      1.0  0.28717  0.16709  0.5867  1.0000
  C   C140      1.0  0.22294000000000003  0.10682  0.5301  1.0000
  C   C141      1.0  0.41039  0.15923  0.51103  1.0000
  C   C142      1.0  0.24324  0.24492999999999995  0.63815  1.0000
  C   C143      1.0  0.14723000000000003  0.9965  0.40951  1.0000
  C   C144      1.0  0.40161  0.02607999999999999  0.25323  1.0000
  C   C145      1.0  0.47759  0.13840999999999998  0.26234  1.0000
  C   C146      1.0  0.36533  0.27059999999999995  0.71393  1.0000
  C   C147      1.0  0.26035  0.16241999999999998  0.68191  1.0000
  C   C148      1.0  0.52798  0.10919999999999999  0.35471  1.0000
  C   C149      1.0  0.28963  0.21123  0.65462  1.0000
  C   C150      1.0  0.4087600000000001  0.31533999999999995  0.52478  1.0000
  C   C151      1.0  0.6533999999999999  0.28233999999999987  0.16254  1.0000
  C   C152      1.0  0.8859399999999997  0.4227199999999999  0.20206  1.0000
  C   C153      1.0  0.7732900000000001  0.36689999999999995  0.29828  1.0000
  C   C154      1.0  0.71931  0.28954  0.1723  1.0000
  C   C155      1.0  0.8768900000000001  0.36069  0.20423  1.0000
  C   C156      1.0  0.94153  0.52184  0.31335  1.0000
  C   C157      1.0  0.7009800000000002  0.39527999999999996  0.35549  1.0000
  C   C158      1.0  0.8944900000000001  0.31713  0.16318000000000002  1.0000
  C   C159      1.0  0.9067599999999999  0.4387599999999999  0.15632  1.0000
  C   C160      1.0  0.70768  0.35834  0.2911  1.0000
  C   C161      1.0  0.7802800000000001  0.3330199999999999  0.24003999999999998  1.0000
  C   C162      1.0  0.6490500000000002  0.31675  0.22242  1.0000
  C   C163      1.0  0.9398700000000001  0.5857399999999999  0.35865  1.0000
  C   C164      1.0  0.91977  0.33348999999999995  0.12042  1.0000
  C   C165      1.0  0.92358  0.39373  0.11654  1.0000
  C   C166      1.0  0.85186  0.34138  0.25142  1.0000
  C   C167      1.0  0.89291  0.25543  0.9984800000000001  1.0000
  C   C168      1.0  0.9132600000000002  0.5039  0.1511  1.0000
  C   C169      1.0  0.72669  0.47364999999999996  0.3755  1.0000
  C   C170      1.0  0.62357  0.3611399999999999  0.33912  1.0000
  C   C171      1.0  0.94319  0.22996999999999998  0.09493  1.0000
  C   C172      1.0  0.01952999999999999  0.3379  0.09804  1.0000
  C   C173      1.0  0.74538  0.39083999999999997  0.41892  1.0000
  C   C174      1.0  0.94337  0.28927  0.07862  1.0000
  C   C175      1.0  0.7092300000000001  0.18485  0.09337  1.0000
  C   C176      1.0  0.11954999999999995  0.9906799999999999  0.33723  1.0000
  C   C177      1.0  0.22042  0.1838  0.29804  1.0000
  C   C178      1.0  0.0682399999999999  0.9747599999999997  0.20159  1.0000
  C   C179      1.0  0.11702  0.04689  0.32759  1.0000
  C   C180      1.0  0.1562  0.17258  0.29574  1.0000
  C   C181      1.0  0.20833999999999991  0.12814  0.18686  1.0000
  C   C182      1.0  0.03956999999999998  0.8452399999999999  0.14424  1.0000
  C   C183      1.0  0.15373  0.23127  0.33681  1.0000
  C   C184      1.0  0.28232  0.25048  0.34394  1.0000
  C   C185      1.0  0.06697  0.91633  0.20867000000000002  1.0000
  C   C186      1.0  0.09268000000000001  0.04007000000000001  0.25988  1.0000
  C   C187      1.0  0.09413  0.92642  0.27732  1.0000
  C   C188      1.0  0.22754  0.08158999999999998  0.14196  1.0000
  C   C189      1.0  0.21296999999999994  0.29941999999999996  0.37972  1.0000
  C   C190      1.0  0.27712  0.30711000000000005  0.38373  1.0000
  C   C191      1.0  0.08960000000000003  0.10024000000000001  0.24850000000000003  1.0000
  C   C192      1.0  0.2568  0.39475  0.50161  1.0000
  C   C193      1.0  0.35274000000000005  0.26224  0.34932  1.0000
  C   C194      1.0  0.09798  0.85105  0.12438  1.0000
  C   C195      1.0  0.021829999999999995  0.78412  0.16043  1.0000
  C   C196      1.0  0.13496000000000002  0.34851000000000004  0.40485  1.0000
  C   C197      1.0  0.24005000000000004  0.42172  0.40217  1.0000
  C   C198      1.0  0.9716999999999998  0.8261299999999999  0.08072  1.0000
  C   C199      1.0  0.21063  0.36495  0.42143  1.0000
  C   C200      1.0  0.09146  0.11596  0.40652  1.0000
  C   C201      1.0  0.71758  0.87113  0.38019  1.0000
  C   C202      1.0  0.57794  0.9636399999999999  0.27966  1.0000
  C   C203      1.0  0.6335400000000001  0.9068799999999999  0.43162  1.0000
  C   C204      1.0  0.71069  0.93002  0.38291  1.0000
  C   C205      1.0  0.64  0.01681999999999999  0.34395  1.0000
  C   C206      1.0  0.47889000000000004  0.92014  0.29162  1.0000
  C   C207      1.0  0.6046600000000001  0.80588  0.46002000000000004  1.0000
  C   C208      1.0  0.6835800000000001  0.07797999999999998  0.34646  1.0000
  C   C209      1.0  0.56183  0.96834  0.2178  1.0000
  C   C210      1.0  0.6416899999999999  0.8495599999999999  0.43271999999999994  1.0000
  C   C211      1.0  0.6674599999999999  0.9477299999999999  0.40731  1.0000
  C   C212      1.0  0.68303  0.8323399999999997  0.40549  1.0000
  C   C213      1.0  0.415  0.8546199999999999  0.27315  1.0000
  C   C214      1.0  0.6671799999999999  0.08675999999999999  0.28722  1.0000
  C   C215      1.0  0.60691  0.030149999999999996  0.223  1.0000
  C   C216      1.0  0.6594300000000001  0.011160000000000028  0.41052  1.0000
  C   C217      1.0  0.7450100000000001  0.13824999999999996  0.24335999999999997  1.0000
  C   C218      1.0  0.49661  0.90957  0.14732  1.0000
  C   C219      1.0  0.5262200000000001  0.7532899999999999  0.40161  1.0000
  C   C220      1.0  0.63851  0.76239  0.47762  1.0000
  C   C221      1.0  0.77045  0.21406999999999995  0.36535  1.0000
  C   C222      1.0  0.66233  0.18185  0.26022  1.0000
  C   C223      1.0  0.60931  0.85479  0.52802  1.0000
  C   C224      1.0  0.71121  0.15467999999999998  0.28964  1.0000
  C   C225      1.0  0.8153  0.024779999999999986  0.40874  1.0000
  C   C226      1.0  0.009439999999999966  0.62899  0.84664  1.0000
  C   C227      1.0  0.8161800000000001  0.5361499999999999  0.6143  1.0000
  C   C228      1.0  0.025059999999999936  0.5930599999999999  0.72676  1.0000
  C   C229      1.0  0.95316  0.57007  0.78076  1.0000
  C   C230      1.0  0.8272400000000002  0.4830599999999999  0.62323  1.0000
  C   C231      1.0  0.87179  0.5792999999999999  0.55872  1.0000
  C   C232      1.0  0.15458  0.69425  0.79899  1.0000
  C   C233      1.0  0.76849  0.42194999999999994  0.60567  1.0000
  C   C234      1.0  0.7496300000000002  0.5314499999999999  0.5935000000000001  1.0000
  C   C235      1.0  0.08354000000000002  0.6505000000000001  0.7923200000000001  1.0000
  C   C236      1.0  0.95983  0.55222  0.7198  1.0000
  C   C237      1.0  0.07361999999999992  0.6677999999999997  0.85095  1.0000
  C   C238      1.0  0.91873  0.64471  0.5602  1.0000
  C   C239      1.0  0.7004400000000003  0.41316  0.58043  1.0000
  C   C240      1.0  0.69293  0.46968  0.57673  1.0000
  C   C241      1.0  0.89946  0.48869  0.64829  1.0000
  C   C242      1.0  0.6051  0.36186000000000007  0.60692  1.0000
  C   C243      1.0  0.7379  0.59005  0.58688  1.0000
  C   C244      1.0  0.14864999999999998  0.7466599999999999  0.77307  1.0000
  C   C245      1.0  0.21582  0.73791  0.87644  1.0000
  C   C246      1.0  0.651  0.28596  0.55639  1.0000
  C   C247      1.0  0.57805  0.31800999999999996  0.48045  1.0000
  C   C248      1.0  0.1736199999999999  0.64539  0.75465  1.0000
  C   C249      1.0  0.63481  0.34532999999999997  0.55657  1.0000
  C   C250      1.0  0.8840600000000001  0.47537999999999997  0.79049  1.0000
  C   C251      1.0  0.49077  0.83726  0.11961  1.0000
  C   C252      1.0  0.68372  0.79791  0.22021  1.0000
  C   C253      1.0  0.4747899999999999  0.7015899999999999  0.06814  1.0000
  C   C254      1.0  0.54693  0.82758  0.11699999999999999  1.0000
  C   C255      1.0  0.67252  0.79565  0.156  1.0000
  C   C256      1.0  0.6280300000000002  0.68675  0.20816  1.0000
  C   C257      1.0  0.3453400000000001  0.64431  0.03964  1.0000
  C   C258      1.0  0.73123  0.83671  0.15356  1.0000
  C   C259      1.0  0.75036  0.8437799999999999  0.28212  1.0000
  C   C260      1.0  0.4164  0.7087099999999998  0.06697  1.0000
  C   C261      1.0  0.54006  0.75984  0.09255  1.0000
  C   C262      1.0  0.42652  0.77738  0.09417  1.0000
  C   C263      1.0  0.5815700000000001  0.6420299999999999  0.22752000000000003  1.0000
  C   C264      1.0  0.7993600000000001  0.8795699999999997  0.21283000000000002  1.0000
  C   C265      1.0  0.8070100000000002  0.8835799999999999  0.27697  1.0000
  C   C266      1.0  0.60019  0.74843  0.0894  1.0000
  C   C267      1.0  0.89462  0.0015300000000000086  0.25679  1.0000
  C   C268      1.0  0.7621  0.84911  0.35253  1.0000
  C   C269      1.0  0.35126  0.62448  0.09808  1.0000
  C   C270      1.0  0.28427  0.66059  0.02202  1.0000
  C   C271      1.0  0.84846  0.90479  0.13489  1.0000
  C   C272      1.0  0.9216700000000002  0.9021100000000001  0.24000000000000002  1.0000
  C   C273      1.0  0.32612  0.58075  0.97171  1.0000
  C   C274      1.0  0.86489  0.92135  0.21056  1.0000
  C   C275      1.0  0.6160299999999999  0.9064999999999998  0.09147  1.0000
  C   C276      1.0  0.78243  0.66244  0.6534  1.0000
  C   C277      1.0  0.9226699999999999  0.7020699999999999  0.8858799999999999  1.0000
  C   C278      1.0  0.86681  0.7982499999999999  0.77326  1.0000
  C   C279      1.0  0.78958  0.6722399999999998  0.71931  1.0000
  C   C280      1.0  0.8607000000000001  0.7042799999999999  0.8769199999999999  1.0000
  C   C281      1.0  0.021770000000000032  0.81329  0.94142  1.0000
  C   C282      1.0  0.89525  0.85537  0.70093  1.0000
  C   C283      1.0  0.8172000000000001  0.66326  0.89455  1.0000
  C   C284      1.0  0.93876  0.65636  0.90675  1.0000
  C   C285      1.0  0.85832  0.7910099999999999  0.70765  1.0000
  C   C286      1.0  0.8329999999999999  0.7400299999999997  0.78028  1.0000
  C   C287      1.0  0.81682  0.72229  0.64903  1.0000
  C   C288      1.0  0.08568999999999999  0.85847  0.93974  1.0000
  C   C289      1.0  0.8336200000000001  0.62056  0.91991  1.0000
  C   C290      1.0  0.8938099999999998  0.61664  0.92364  1.0000
  C   C291      1.0  0.84135  0.7514599999999998  0.85188  1.0000
  C   C292      1.0  0.7555100000000001  0.49862000000000006  0.8929600000000001  1.0000
  C   C293      1.0  0.0038800000000000934  0.6511400000000002  0.9132400000000002  1.0000
  C   C294      1.0  0.9735900000000002  0.87534  0.72662  1.0000
  C   C295      1.0  0.86112  0.8389799999999998  0.6235  1.0000
  C   C296      1.0  0.7302700000000001  0.5952200000000001  0.9435400000000002  1.0000
  C   C297      1.0  0.83811  0.5980799999999998  0.01966  1.0000
  C   C298      1.0  0.8908500000000003  0.91886  0.74532  1.0000
  C   C299      1.0  0.78946  0.5787799999999999  0.94355  1.0000
  C   C300      1.0  0.6849400000000001  0.59343  0.70934  1.0000
  O   O1        1.0  0.2529  0.72345  0.62831  1.0000
  O   O2        1.0  0.16060999999999998  0.7527899999999998  0.54656  1.0000
  O   O3        1.0  0.38588  0.64231  0.61141  1.0000
  O   O4        1.0  0.08404999999999999  0.71319  0.5836  1.0000
  O   O5        1.0  0.24727000000000007  0.37556000000000006  0.9709500000000001  1.0000
  O   O6        1.0  0.34063999999999994  0.38655999999999996  0.09257  1.0000
  O   O7        1.0  0.11411000000000003  0.22550999999999993  0.75659  1.0000
  O   O8        1.0  0.4169  0.50019  0.12909000000000004  1.0000
  O   O9        1.0  0.40519000000000005  0.7767099999999999  0.52954  1.0000
  O   O10       1.0  0.29464  0.7483599999999999  0.40785  1.0000
  O   O11       1.0  0.46928000000000003  0.8578099999999997  0.74379  1.0000
  O   O12       1.0  0.37189000000000005  0.7884799999999998  0.37174  1.0000
  O   O13       1.0  0.09493000000000004  0.12454999999999994  0.8717500000000001  1.0000
  O   O14       1.0  0.20557  0.11277000000000005  0.95298  1.0000
  O   O15       1.0  0.031049999999999973  0.27447999999999995  0.8887399999999999  1.0000
  O   O16       1.0  0.12776999999999994  0.99984  0.91676  1.0000
  O   O17       1.0  0.62456  0.37171999999999994  0.09497  1.0000
  O   O18       1.0  0.61308  0.4534999999999999  0.20556  1.0000
  O   O19       1.0  0.77449  0.38871999999999995  0.031010000000000003  1.0000
  O   O20       1.0  0.49994999999999995  0.41684999999999994  0.12788  1.0000
  O   O21       1.0  0.27652  0.029339999999999988  0.40492  1.0000
  O   O22       1.0  0.24816000000000002  0.9078599999999999  0.29424  1.0000
  O   O23       1.0  0.35776  0.24365999999999993  0.46920000000000006  1.0000
  O   O24       1.0  0.28803  0.8713299999999999  0.37121  1.0000
  O   O25       1.0  0.87583  0.47115  0.24747  1.0000
  O   O26       1.0  0.8865600000000001  0.5925  0.34091  1.0000
  O   O27       1.0  0.72552  0.25651999999999997  0.11412999999999998  1.0000
  O   O28       1.0  0.00033999999999999157  0.62942  0.41709  1.0000
  O   O29       1.0  0.22338  0.12825  0.2526  1.0000
  O   O30       1.0  0.25253  0.046479999999999994  0.16004  1.0000
  O   O31       1.0  0.14234000000000005  0.11139000000000003  0.38582  1.0000
  O   O32       1.0  0.21259000000000003  0.08338  0.08347  1.0000
  O   O33       1.0  0.5295599999999999  0.9050599999999998  0.27666  1.0000
  O   O34       1.0  0.40799999999999986  0.7943999999999999  0.24823999999999996  1.0000
  O   O35       1.0  0.74367  0.9691599999999999  0.35771  1.0000
  O   O36       1.0  0.37155999999999995  0.8714299999999999  0.28821  1.0000
  O   O37       1.0  0.8717499999999998  0.5946899999999999  0.62443  1.0000
  O   O38       1.0  0.9538599999999999  0.7051699999999999  0.61316  1.0000
  O   O39       1.0  0.8887300000000001  0.53095  0.77455  1.0000
  O   O40       1.0  0.91711  0.6274899999999999  0.4999700000000001  1.0000
  O   O41       1.0  0.6281800000000002  0.75251  0.22318  1.0000
  O   O42       1.0  0.5463500000000001  0.66012  0.25233  1.0000
  O   O43       1.0  0.61139  0.8858399999999998  0.14235  1.0000
  O   O44       1.0  0.5834999999999999  0.5836199999999999  0.21284  1.0000
  O   O45       1.0  0.9710000000000001  0.74745  0.8757  1.0000
  O   O46       1.0  0.09242000000000004  0.8407500000000001  0.8864200000000001  1.0000
  O   O47       1.0  0.7565600000000001  0.6140899999999999  0.72553  1.0000
  O   O48       1.0  0.12937  0.91693  0.00024000000000000003  1.0000
