data_image0
_chemical_formula_structural       Cu16H256C336N32O80
_chemical_formula_sum              "Cu16 H256 C336 N32 O80"
_cell_length_a       15.39661
_cell_length_b       22.02886
_cell_length_c       30.40777
_cell_angle_alpha    90.0
_cell_angle_beta     89.92193
_cell_angle_gamma    90.00046

_symmetry_space_group_name_H-M    'P 1'
_symmetry_Int_Tables_number       1

loop_
  _symmetry_equiv_pos_as_xyz
  'x,y,z'

loop_
  _atom_site_type_symbol
  _atom_site_label
  _atom_site_symmetry_multiplicity
  _atom_site_fract_x
  _atom_site_fract_y
  _atom_site_fract_z
  _atom_site_occupancy
  Cu  Cu1       1.0  0.6983100000000002  0.83124  0.12046999999999997  1.0000
  Cu  Cu2       1.0  0.6938200000000002  0.7157599999999998  0.12974  1.0000
  Cu  Cu3       1.0  0.30167  0.33124  0.37953  1.0000
  Cu  Cu4       1.0  0.30618  0.21577  0.37026  1.0000
  Cu  Cu5       1.0  0.19836  0.6688699999999999  0.8803799999999998  1.0000
  Cu  Cu6       1.0  0.19337  0.7841299999999999  0.87063  1.0000
  Cu  Cu7       1.0  0.80163  0.16887  0.6196099999999998  1.0000
  Cu  Cu8       1.0  0.8066300000000002  0.28413  0.62936  1.0000
  Cu  Cu9       1.0  0.30171000000000003  0.16877  0.8795299999999998  1.0000
  Cu  Cu10      1.0  0.30617  0.28425  0.87026  1.0000
  Cu  Cu11      1.0  0.6983100000000002  0.66876  0.62046  1.0000
  Cu  Cu12      1.0  0.6938200000000002  0.7842399999999999  0.62974  1.0000
  Cu  Cu13      1.0  0.80163  0.3311299999999999  0.11960999999999997  1.0000
  Cu  Cu14      1.0  0.8066200000000002  0.21586999999999995  0.12936  1.0000
  Cu  Cu15      1.0  0.19837000000000005  0.8311299999999999  0.3803899999999999  1.0000
  Cu  Cu16      1.0  0.19337  0.71587  0.37064  1.0000
  H   H1        1.0  0.8255600000000002  0.01043  0.20314999999999994  1.0000
  H   H2        1.0  0.009970000000000003  0.03041  0.14570999999999998  1.0000
  H   H3        1.0  0.6615400000000002  0.83839  0.9991499999999999  1.0000
  H   H4        1.0  0.67508  0.8951399999999998  0.92934  1.0000
  H   H5        1.0  0.5647700000000002  0.8811399999999999  0.8699899999999998  1.0000
  H   H6        1.0  0.44124000000000013  0.81159  0.8808999999999998  1.0000
  H   H7        1.0  0.3543100000000001  0.67445  0.9955299999999998  1.0000
  H   H8        1.0  0.46913  0.6848699999999999  0.05336999999999999  1.0000
  H   H9        1.0  0.94765  0.8351299999999999  0.19113  1.0000
  H   H10       1.0  0.06144  0.83802  0.24856999999999996  1.0000
  H   H11       1.0  0.9366000000000002  0.7358899999999998  0.3728199999999999  1.0000
  H   H12       1.0  0.78894  0.69929  0.3914799999999999  1.0000
  H   H13       1.0  0.67102  0.70364  0.33571  1.0000
  H   H14       1.0  0.7010300000000003  0.7416299999999999  0.26069  1.0000
  H   H15       1.0  0.5524100000000002  0.03524  0.07017999999999999  1.0000
  H   H16       1.0  0.66354  0.10365  0.10541  1.0000
  H   H17       1.0  0.79438  0.94201  0.15118  1.0000
  H   H18       1.0  0.9331100000000002  0.11933  0.18397  1.0000
  H   H19       1.0  0.8337  0.14382  0.24455999999999994  1.0000
  H   H20       1.0  0.8684400000000002  0.07954  0.27464  1.0000
  H   H21       1.0  0.9811800000000003  0.18839  0.24754999999999996  1.0000
  H   H22       1.0  0.94671  0.17247999999999997  0.3013899999999999  1.0000
  H   H23       1.0  0.10159  0.13998  0.28825  1.0000
  H   H24       1.0  0.03523  0.07727  0.30201  1.0000
  H   H25       1.0  0.128  0.04977  0.23804  1.0000
  H   H26       1.0  0.09126  0.11434999999999998  0.20868  1.0000
  H   H27       1.0  0.9797700000000001  0.0076  0.23985  1.0000
  H   H28       1.0  0.9734200000000002  0.9692299999999998  0.09524  1.0000
  H   H29       1.0  0.10510000000000003  0.83789  0.025339999999999998  1.0000
  H   H30       1.0  0.18684000000000006  0.80377  0.0921  1.0000
  H   H31       1.0  0.16217  0.8596  0.16364  1.0000
  H   H32       1.0  0.5733300000000002  0.9217399999999999  0.07623  1.0000
  H   H33       1.0  0.17443000000000006  0.51043  0.2968399999999999  1.0000
  H   H34       1.0  0.9900300000000002  0.53041  0.35429  1.0000
  H   H35       1.0  0.33845  0.33838  0.50085  1.0000
  H   H36       1.0  0.3249200000000001  0.39513  0.57066  1.0000
  H   H37       1.0  0.43522  0.38113999999999987  0.63001  1.0000
  H   H38       1.0  0.55875  0.31159  0.6191  1.0000
  H   H39       1.0  0.6456900000000002  0.17445  0.50446  1.0000
  H   H40       1.0  0.53087  0.18486999999999998  0.44662999999999997  1.0000
  H   H41       1.0  0.05235  0.33513  0.30886999999999987  1.0000
  H   H42       1.0  0.9385600000000002  0.33802  0.25143  1.0000
  H   H43       1.0  0.06339  0.23588999999999993  0.12717  1.0000
  H   H44       1.0  0.21106  0.19928999999999994  0.10851999999999998  1.0000
  H   H45       1.0  0.32898  0.20364  0.16429  1.0000
  H   H46       1.0  0.29896  0.24163  0.23930999999999994  1.0000
  H   H47       1.0  0.4475900000000001  0.5352399999999999  0.42982  1.0000
  H   H48       1.0  0.33646  0.60365  0.39459  1.0000
  H   H49       1.0  0.20562000000000005  0.44200999999999996  0.34882  1.0000
  H   H50       1.0  0.06689  0.61933  0.31603  1.0000
  H   H51       1.0  0.1663  0.6438199999999998  0.25544  1.0000
  H   H52       1.0  0.13156000000000007  0.57954  0.22535999999999998  1.0000
  H   H53       1.0  0.01882  0.68839  0.25245  1.0000
  H   H54       1.0  0.05329  0.6724899999999999  0.19860999999999995  1.0000
  H   H55       1.0  0.89841  0.6399799999999999  0.21175  1.0000
  H   H56       1.0  0.9647700000000002  0.57727  0.19799  1.0000
  H   H57       1.0  0.87199  0.54977  0.26196  1.0000
  H   H58       1.0  0.90874  0.61435  0.29132  1.0000
  H   H59       1.0  0.02023  0.5076  0.26014  1.0000
  H   H60       1.0  0.026580000000000006  0.46923  0.40476  1.0000
  H   H61       1.0  0.8949  0.33788999999999997  0.47466  1.0000
  H   H62       1.0  0.81316  0.30377  0.4078999999999999  1.0000
  H   H63       1.0  0.8378300000000001  0.3596  0.33636  1.0000
  H   H64       1.0  0.4266700000000001  0.42174  0.42376999999999987  1.0000
  H   H65       1.0  0.3257700000000001  0.49008  0.79741  1.0000
  H   H66       1.0  0.50941  0.46996999999999994  0.85436  1.0000
  H   H67       1.0  0.16051  0.6618199999999999  0.0006899999999999997  1.0000
  H   H68       1.0  0.17429000000000006  0.6048  0.07033999999999997  1.0000
  H   H69       1.0  0.06476  0.61903  0.13018  1.0000
  H   H70       1.0  0.9413000000000002  0.6887399999999999  0.11977999999999997  1.0000
  H   H71       1.0  0.8538900000000003  0.82611  0.005409999999999998  1.0000
  H   H72       1.0  0.9687200000000002  0.81605  0.9473899999999997  1.0000
  H   H73       1.0  0.4486  0.6640799999999999  0.80925  1.0000
  H   H74       1.0  0.5615  0.6615199999999999  0.7512099999999998  1.0000
  H   H75       1.0  0.4356  0.7644399999999999  0.62796  1.0000
  H   H76       1.0  0.28738000000000014  0.8004599999999997  0.60985  1.0000
  H   H77       1.0  0.16985  0.79488  0.6659699999999997  1.0000
  H   H78       1.0  0.20087000000000005  0.7569399999999998  0.74081  1.0000
  H   H79       1.0  0.05137  0.4654499999999999  0.92991  1.0000
  H   H80       1.0  0.16194999999999998  0.3967899999999999  0.89424  1.0000
  H   H81       1.0  0.29445  0.55817  0.8490399999999998  1.0000
  H   H82       1.0  0.43348000000000003  0.38116999999999995  0.8162999999999998  1.0000
  H   H83       1.0  0.3335100000000001  0.35669  0.7561099999999997  1.0000
  H   H84       1.0  0.36845  0.4206599999999999  0.7257399999999998  1.0000
  H   H85       1.0  0.48039  0.31126999999999994  0.75239  1.0000
  H   H86       1.0  0.4456400000000001  0.32782  0.6987499999999998  1.0000
  H   H87       1.0  0.60106  0.3593999999999999  0.7115899999999997  1.0000
  H   H88       1.0  0.5352100000000002  0.42235999999999996  0.6979899999999999  1.0000
  H   H89       1.0  0.62862  0.4494299999999999  0.7616399999999998  1.0000
  H   H90       1.0  0.59142  0.38512  0.7912099999999997  1.0000
  H   H91       1.0  0.4811900000000001  0.49257  0.7602499999999998  1.0000
  H   H92       1.0  0.47424  0.5303699999999999  0.90473  1.0000
  H   H93       1.0  0.60416  0.6622699999999999  0.9746899999999997  1.0000
  H   H94       1.0  0.68664  0.6963999999999999  0.90807  1.0000
  H   H95       1.0  0.66356  0.64025  0.83661  1.0000
  H   H96       1.0  0.0739  0.57886  0.9245199999999998  1.0000
  H   H97       1.0  0.6742200000000003  0.9900799999999997  0.70259  1.0000
  H   H98       1.0  0.4905800000000001  0.9699699999999998  0.6456399999999999  1.0000
  H   H99       1.0  0.8394800000000002  0.16182  0.49930999999999987  1.0000
  H   H100      1.0  0.8257  0.10480999999999999  0.42966  1.0000
  H   H101      1.0  0.9352300000000002  0.11902  0.36981  1.0000
  H   H102      1.0  0.058700000000000016  0.18871999999999994  0.38022  1.0000
  H   H103      1.0  0.14611  0.32608999999999994  0.49458999999999986  1.0000
  H   H104      1.0  0.03128  0.31604  0.55261  1.0000
  H   H105      1.0  0.55138  0.16406999999999997  0.69075  1.0000
  H   H106      1.0  0.4384900000000001  0.16151  0.7487899999999997  1.0000
  H   H107      1.0  0.5644  0.26443999999999995  0.87203  1.0000
  H   H108      1.0  0.71261  0.30045999999999995  0.89014  1.0000
  H   H109      1.0  0.83014  0.2948799999999999  0.8340299999999998  1.0000
  H   H110      1.0  0.79912  0.25694  0.75918  1.0000
  H   H111      1.0  0.94862  0.9654499999999998  0.5700899999999999  1.0000
  H   H112      1.0  0.8380300000000002  0.8968  0.60576  1.0000
  H   H113      1.0  0.7055400000000002  0.05816999999999999  0.65095  1.0000
  H   H114      1.0  0.5665100000000002  0.8811699999999998  0.68369  1.0000
  H   H115      1.0  0.66648  0.85669  0.7438799999999998  1.0000
  H   H116      1.0  0.63154  0.9206599999999998  0.77426  1.0000
  H   H117      1.0  0.5196100000000002  0.81127  0.7475999999999999  1.0000
  H   H118      1.0  0.55435  0.8278199999999999  0.8012399999999997  1.0000
  H   H119      1.0  0.39894  0.8593999999999999  0.7884099999999998  1.0000
  H   H120      1.0  0.46478000000000014  0.92236  0.80201  1.0000
  H   H121      1.0  0.37137  0.9494299999999998  0.7383599999999998  1.0000
  H   H122      1.0  0.4085800000000001  0.88512  0.7087899999999998  1.0000
  H   H123      1.0  0.5188  0.99257  0.7397399999999997  1.0000
  H   H124      1.0  0.52575  0.030359999999999998  0.59527  1.0000
  H   H125      1.0  0.39583  0.16227  0.5253  1.0000
  H   H126      1.0  0.31336000000000014  0.1964  0.5919199999999998  1.0000
  H   H127      1.0  0.3364300000000001  0.14025  0.6633799999999999  1.0000
  H   H128      1.0  0.9260900000000002  0.07885999999999999  0.5754699999999998  1.0000
  H   H129      1.0  0.17443000000000006  0.9895699999999997  0.79684  1.0000
  H   H130      1.0  0.9900300000000002  0.9695899999999997  0.85429  1.0000
  H   H131      1.0  0.33845  0.16162  0.0008499999999999997  1.0000
  H   H132      1.0  0.3249200000000001  0.10487  0.07066  1.0000
  H   H133      1.0  0.43522  0.11885999999999998  0.13001  1.0000
  H   H134      1.0  0.55876  0.18841999999999998  0.11909999999999997  1.0000
  H   H135      1.0  0.6456900000000002  0.32555  0.004459999999999999  1.0000
  H   H136      1.0  0.53087  0.31514  0.94662  1.0000
  H   H137      1.0  0.052340000000000005  0.16487999999999997  0.8088699999999998  1.0000
  H   H138      1.0  0.9385500000000002  0.16198  0.75143  1.0000
  H   H139      1.0  0.06339000000000003  0.26411  0.62717  1.0000
  H   H140      1.0  0.21105  0.30072  0.60852  1.0000
  H   H141      1.0  0.32898  0.29637  0.6642799999999998  1.0000
  H   H142      1.0  0.29896  0.25838  0.7393099999999998  1.0000
  H   H143      1.0  0.4475900000000001  0.9647599999999998  0.92981  1.0000
  H   H144      1.0  0.33646  0.8963499999999998  0.8945899999999998  1.0000
  H   H145      1.0  0.20562000000000005  0.05798999999999999  0.84881  1.0000
  H   H146      1.0  0.06688000000000002  0.88067  0.81603  1.0000
  H   H147      1.0  0.1663  0.85619  0.75543  1.0000
  H   H148      1.0  0.13156000000000007  0.9204599999999997  0.72536  1.0000
  H   H149      1.0  0.01882  0.81162  0.7524499999999997  1.0000
  H   H150      1.0  0.05328  0.82752  0.6986  1.0000
  H   H151      1.0  0.8984  0.8600299999999999  0.71174  1.0000
  H   H152      1.0  0.9647700000000002  0.9227299999999999  0.6979899999999999  1.0000
  H   H153      1.0  0.87199  0.9502399999999999  0.76196  1.0000
  H   H154      1.0  0.90874  0.88566  0.79132  1.0000
  H   H155      1.0  0.02023  0.9924  0.76014  1.0000
  H   H156      1.0  0.026580000000000006  0.030769999999999995  0.90476  1.0000
  H   H157      1.0  0.8949  0.16210999999999998  0.9746599999999997  1.0000
  H   H158      1.0  0.81315  0.19623999999999994  0.90789  1.0000
  H   H159      1.0  0.8378300000000001  0.1404  0.8363599999999999  1.0000
  H   H160      1.0  0.4266700000000001  0.07825999999999998  0.92377  1.0000
  H   H161      1.0  0.8255700000000002  0.4895699999999999  0.70315  1.0000
  H   H162      1.0  0.009970000000000007  0.46959  0.64571  1.0000
  H   H163      1.0  0.6615400000000002  0.66162  0.49914999999999987  1.0000
  H   H164      1.0  0.67508  0.60487  0.42934  1.0000
  H   H165      1.0  0.5647700000000002  0.6188599999999999  0.36999  1.0000
  H   H166      1.0  0.44124000000000013  0.6884199999999999  0.3809  1.0000
  H   H167      1.0  0.3543100000000001  0.82555  0.4955299999999999  1.0000
  H   H168      1.0  0.46913  0.8151399999999999  0.55337  1.0000
  H   H169      1.0  0.94765  0.6648799999999999  0.6911299999999998  1.0000
  H   H170      1.0  0.06144  0.66198  0.74856  1.0000
  H   H171      1.0  0.9366000000000002  0.7641099999999998  0.87282  1.0000
  H   H172      1.0  0.78894  0.8007199999999999  0.89147  1.0000
  H   H173      1.0  0.67102  0.79637  0.8357099999999997  1.0000
  H   H174      1.0  0.7010300000000003  0.75837  0.7606899999999998  1.0000
  H   H175      1.0  0.5524100000000002  0.46475999999999995  0.57018  1.0000
  H   H176      1.0  0.66353  0.39636  0.6054  1.0000
  H   H177      1.0  0.79438  0.55799  0.65118  1.0000
  H   H178      1.0  0.9331100000000002  0.38067  0.68396  1.0000
  H   H179      1.0  0.8337  0.35619  0.74456  1.0000
  H   H180      1.0  0.8684400000000002  0.42046  0.77464  1.0000
  H   H181      1.0  0.9811700000000002  0.31162  0.7475499999999998  1.0000
  H   H182      1.0  0.94671  0.3275199999999999  0.80139  1.0000
  H   H183      1.0  0.10159  0.36002999999999996  0.78825  1.0000
  H   H184      1.0  0.03523  0.42272999999999994  0.80201  1.0000
  H   H185      1.0  0.128  0.45024  0.7380299999999999  1.0000
  H   H186      1.0  0.09126  0.3856599999999999  0.70868  1.0000
  H   H187      1.0  0.9797700000000001  0.4924  0.7398499999999998  1.0000
  H   H188      1.0  0.9734100000000002  0.53077  0.59524  1.0000
  H   H189      1.0  0.10509  0.66212  0.52533  1.0000
  H   H190      1.0  0.18684000000000006  0.69624  0.5921  1.0000
  H   H191      1.0  0.16217  0.6403999999999999  0.66363  1.0000
  H   H192      1.0  0.5733300000000002  0.5782599999999999  0.57623  1.0000
  H   H193      1.0  0.6742200000000003  0.50992  0.20258999999999994  1.0000
  H   H194      1.0  0.4905800000000001  0.53003  0.14564  1.0000
  H   H195      1.0  0.8394800000000002  0.33819  0.9992999999999999  1.0000
  H   H196      1.0  0.8257200000000002  0.39520999999999995  0.9296599999999998  1.0000
  H   H197      1.0  0.9352500000000002  0.38097  0.86981  1.0000
  H   H198      1.0  0.058700000000000016  0.31125  0.88022  1.0000
  H   H199      1.0  0.1461  0.17387999999999998  0.9945899999999998  1.0000
  H   H200      1.0  0.03127  0.18394999999999997  0.05260999999999998  1.0000
  H   H201      1.0  0.55139  0.33592999999999995  0.19074999999999995  1.0000
  H   H202      1.0  0.4385000000000001  0.33848999999999996  0.24878999999999996  1.0000
  H   H203      1.0  0.5644  0.23556999999999997  0.37203  1.0000
  H   H204      1.0  0.71261  0.19954  0.3901499999999999  1.0000
  H   H205      1.0  0.83015  0.20512  0.33403  1.0000
  H   H206      1.0  0.7991300000000002  0.24306  0.25919  1.0000
  H   H207      1.0  0.94863  0.53455  0.07009  1.0000
  H   H208      1.0  0.8380300000000002  0.60321  0.10576  1.0000
  H   H209      1.0  0.7055400000000002  0.44183  0.15095  1.0000
  H   H210      1.0  0.5665200000000002  0.61883  0.18368999999999994  1.0000
  H   H211      1.0  0.66648  0.64332  0.24387999999999996  1.0000
  H   H212      1.0  0.63154  0.57935  0.27426  1.0000
  H   H213      1.0  0.5196100000000002  0.6887299999999998  0.24760999999999994  1.0000
  H   H214      1.0  0.55435  0.67219  0.30124  1.0000
  H   H215      1.0  0.39894  0.6406  0.2884099999999999  1.0000
  H   H216      1.0  0.46478000000000014  0.57765  0.30201  1.0000
  H   H217      1.0  0.37138  0.55057  0.23836  1.0000
  H   H218      1.0  0.4085800000000001  0.6148899999999999  0.20879  1.0000
  H   H219      1.0  0.5188  0.50744  0.23974  1.0000
  H   H220      1.0  0.52575  0.4696399999999999  0.09526999999999998  1.0000
  H   H221      1.0  0.39584  0.33774  0.0253  1.0000
  H   H222      1.0  0.31336000000000014  0.3035999999999999  0.09193  1.0000
  H   H223      1.0  0.33644000000000013  0.35974999999999996  0.16338  1.0000
  H   H224      1.0  0.9261000000000003  0.42114  0.07546999999999998  1.0000
  H   H225      1.0  0.3257700000000001  0.00992  0.29741  1.0000
  H   H226      1.0  0.50942  0.03003  0.35436  1.0000
  H   H227      1.0  0.16051  0.8381899999999998  0.50069  1.0000
  H   H228      1.0  0.17429000000000006  0.8951999999999999  0.57033  1.0000
  H   H229      1.0  0.06476  0.8809799999999998  0.63018  1.0000
  H   H230      1.0  0.9412900000000002  0.8112799999999999  0.61977  1.0000
  H   H231      1.0  0.8538900000000003  0.6739  0.5054  1.0000
  H   H232      1.0  0.9687200000000002  0.68396  0.44739  1.0000
  H   H233      1.0  0.44861  0.83593  0.30925  1.0000
  H   H234      1.0  0.5615  0.83849  0.25121  1.0000
  H   H235      1.0  0.4356  0.73557  0.12796  1.0000
  H   H236      1.0  0.28738000000000014  0.69954  0.10985  1.0000
  H   H237      1.0  0.16985  0.70512  0.16597  1.0000
  H   H238      1.0  0.20087000000000005  0.7430599999999998  0.24080999999999994  1.0000
  H   H239      1.0  0.05137  0.03455  0.42991  1.0000
  H   H240      1.0  0.16197000000000006  0.10321  0.39423999999999987  1.0000
  H   H241      1.0  0.29445  0.94183  0.34905  1.0000
  H   H242      1.0  0.43348000000000003  0.11883  0.3163  1.0000
  H   H243      1.0  0.3335200000000001  0.14331  0.25611  1.0000
  H   H244      1.0  0.36845  0.07933999999999998  0.22574  1.0000
  H   H245      1.0  0.48039  0.18873  0.25239  1.0000
  H   H246      1.0  0.4456500000000001  0.17218  0.19875  1.0000
  H   H247      1.0  0.60106  0.1406  0.21158999999999997  1.0000
  H   H248      1.0  0.5352200000000003  0.07765  0.19799  1.0000
  H   H249      1.0  0.62862  0.05057  0.26164  1.0000
  H   H250      1.0  0.59142  0.11489  0.29121  1.0000
  H   H251      1.0  0.4811900000000001  0.00744  0.26025  1.0000
  H   H252      1.0  0.4742500000000001  0.9696399999999997  0.40472999999999987  1.0000
  H   H253      1.0  0.60416  0.8377399999999999  0.4747  1.0000
  H   H254      1.0  0.68664  0.8035999999999999  0.40807  1.0000
  H   H255      1.0  0.66356  0.8597499999999998  0.33662  1.0000
  H   H256      1.0  0.0739  0.92114  0.4245199999999999  1.0000
  C   C1        1.0  0.59806  0.76199  0.05735  1.0000
  C   C2        1.0  0.5359700000000001  0.75608  0.01981  1.0000
  C   C3        1.0  0.5427  0.79206  0.98076  1.0000
  C   C4        1.0  0.61331  0.8326099999999999  0.9734  1.0000
  C   C5        1.0  0.62074  0.8642799999999999  0.93439  1.0000
  C   C6        1.0  0.55819  0.85647  0.9008599999999998  1.0000
  C   C7        1.0  0.48871000000000003  0.8176699999999999  0.9068999999999998  1.0000
  C   C8        1.0  0.47799000000000014  0.78481  0.9468699999999998  1.0000
  C   C9        1.0  0.4077900000000001  0.7431499999999999  0.9541999999999998  1.0000
  C   C10       1.0  0.33157  0.73726  0.92394  1.0000
  C   C11       1.0  0.40646  0.70727  0.99167  1.0000
  C   C12       1.0  0.4704700000000001  0.71337  0.02418  1.0000
  C   C13       1.0  0.7945100000000003  0.78214  0.19299  1.0000
  C   C14       1.0  0.8560900000000002  0.7864199999999999  0.23078999999999994  1.0000
  C   C15       1.0  0.9351100000000002  0.8146  0.22303999999999993  1.0000
  C   C16       1.0  0.00016  0.81539  0.25545  1.0000
  C   C17       1.0  0.98658  0.7867  0.29533  1.0000
  C   C18       1.0  0.9041200000000003  0.76067  0.30589  1.0000
  C   C19       1.0  0.88527  0.7368699999999999  0.34832  1.0000
  C   C20       1.0  0.80296  0.7164399999999999  0.35863  1.0000
  C   C21       1.0  0.7361  0.71858  0.32684  1.0000
  C   C22       1.0  0.75274  0.7400299999999999  0.28497  1.0000
  C   C23       1.0  0.8367600000000002  0.7613999999999997  0.27314  1.0000
  C   C24       1.0  0.062190000000000016  0.7814299999999998  0.3257599999999999  1.0000
  C   C25       1.0  0.6068200000000002  0.016359999999999996  0.08845  1.0000
  C   C26       1.0  0.66713  0.05442  0.10848  1.0000
  C   C27       1.0  0.7350100000000003  0.02823  0.1327  1.0000
  C   C28       1.0  0.7414900000000002  0.96505  0.13419999999999996  1.0000
  C   C29       1.0  0.8021300000000002  0.06891  0.15205999999999995  1.0000
  C   C30       1.0  0.9167300000000003  0.08376999999999998  0.20793999999999996  1.0000
  C   C31       1.0  0.8899300000000002  0.11454  0.25117  1.0000
  C   C32       1.0  0.9659200000000002  0.1511  0.2702099999999999  1.0000
  C   C33       1.0  0.04723  0.11185  0.27656999999999987  1.0000
  C   C34       1.0  0.07236  0.08025999999999998  0.23337  1.0000
  C   C35       1.0  0.99595  0.04265  0.21537  1.0000
  C   C36       1.0  0.055180000000000014  0.95325  0.17730999999999994  1.0000
  C   C37       1.0  0.06873  0.92054  0.13468  1.0000
  C   C38       1.0  0.02354  0.9341299999999999  0.0958  1.0000
  C   C39       1.0  0.095  0.8600799999999998  0.05698  1.0000
  C   C40       1.0  0.14122  0.8414099999999999  0.09418999999999998  1.0000
  C   C41       1.0  0.12792  0.87207  0.13365  1.0000
  C   C42       1.0  0.61784  0.9536  0.09173999999999997  1.0000
  C   C43       1.0  0.4019300000000001  0.26199  0.44265  1.0000
  C   C44       1.0  0.4640300000000001  0.25608  0.48019  1.0000
  C   C45       1.0  0.4572900000000001  0.29206  0.51924  1.0000
  C   C46       1.0  0.3866900000000001  0.33261  0.52659  1.0000
  C   C47       1.0  0.3792600000000001  0.36428  0.5656  1.0000
  C   C48       1.0  0.44180000000000014  0.35647  0.5991399999999998  1.0000
  C   C49       1.0  0.51128  0.31767  0.5931  1.0000
  C   C50       1.0  0.52201  0.28481  0.5531199999999997  1.0000
  C   C51       1.0  0.5922  0.24315  0.54579  1.0000
  C   C52       1.0  0.66842  0.23726  0.57606  1.0000
  C   C53       1.0  0.5935300000000002  0.20726999999999998  0.50833  1.0000
  C   C54       1.0  0.5295300000000002  0.21336999999999998  0.47582  1.0000
  C   C55       1.0  0.20549  0.28214  0.30701  1.0000
  C   C56       1.0  0.1439  0.28641999999999995  0.26921  1.0000
  C   C57       1.0  0.06489000000000003  0.31459999999999994  0.27696  1.0000
  C   C58       1.0  0.99984  0.31539  0.24454999999999993  1.0000
  C   C59       1.0  0.01342  0.28669999999999995  0.20467  1.0000
  C   C60       1.0  0.09588  0.26066999999999996  0.19411  1.0000
  C   C61       1.0  0.11473000000000003  0.23686999999999994  0.15168  1.0000
  C   C62       1.0  0.19704  0.21643999999999997  0.14136999999999994  1.0000
  C   C63       1.0  0.2638900000000001  0.21857999999999994  0.17316  1.0000
  C   C64       1.0  0.24726000000000006  0.24003  0.21503  1.0000
  C   C65       1.0  0.16324000000000005  0.2614  0.22685  1.0000
  C   C66       1.0  0.9378100000000003  0.28142  0.17422999999999994  1.0000
  C   C67       1.0  0.39317  0.5163599999999999  0.4115499999999999  1.0000
  C   C68       1.0  0.33286  0.55441  0.3915099999999999  1.0000
  C   C69       1.0  0.2649800000000001  0.52823  0.3673  1.0000
  C   C70       1.0  0.25851  0.46503999999999995  0.3657999999999999  1.0000
  C   C71       1.0  0.19787  0.56891  0.34794  1.0000
  C   C72       1.0  0.08327000000000001  0.58377  0.2920599999999999  1.0000
  C   C73       1.0  0.11007000000000003  0.61454  0.24883  1.0000
  C   C74       1.0  0.03408  0.6511  0.22978999999999994  1.0000
  C   C75       1.0  0.95276  0.61185  0.22343  1.0000
  C   C76       1.0  0.9276400000000002  0.58026  0.26663  1.0000
  C   C77       1.0  0.00405  0.54265  0.28463  1.0000
  C   C78       1.0  0.9448200000000002  0.4532499999999999  0.32269  1.0000
  C   C79       1.0  0.93127  0.4205399999999999  0.36531999999999987  1.0000
  C   C80       1.0  0.9764600000000002  0.43413  0.4042  1.0000
  C   C81       1.0  0.9050000000000002  0.36008  0.44302  1.0000
  C   C82       1.0  0.8587700000000003  0.3413999999999999  0.4058099999999999  1.0000
  C   C83       1.0  0.8720800000000002  0.37206999999999996  0.36635  1.0000
  C   C84       1.0  0.38215  0.4535999999999999  0.40826  1.0000
  C   C85       1.0  0.09664  0.73811  0.9427799999999997  1.0000
  C   C86       1.0  0.03496  0.7441799999999998  0.9804999999999998  1.0000
  C   C87       1.0  0.04179  0.708  0.01944  1.0000
  C   C88       1.0  0.1124  0.66745  0.026559999999999993  1.0000
  C   C89       1.0  0.11999000000000003  0.6357199999999998  0.06552  1.0000
  C   C90       1.0  0.05781  0.64361  0.09929999999999997  1.0000
  C   C91       1.0  0.98834  0.68246  0.09352  1.0000
  C   C92       1.0  0.97738  0.71524  0.053519999999999984  1.0000
  C   C93       1.0  0.9074300000000001  0.75706  0.04634999999999999  1.0000
  C   C94       1.0  0.8317  0.7629999999999999  0.07687999999999998  1.0000
  C   C95       1.0  0.9059500000000003  0.7931699999999999  0.00903  1.0000
  C   C96       1.0  0.9698400000000003  0.7871899999999997  0.9763899999999998  1.0000
  C   C97       1.0  0.29486  0.71739  0.8079999999999998  1.0000
  C   C98       1.0  0.35651  0.71315  0.77016  1.0000
  C   C99       1.0  0.43562  0.68493  0.7775099999999998  1.0000
  C   C100      1.0  0.50029  0.68441  0.7448099999999998  1.0000
  C   C101      1.0  0.48648000000000013  0.7135299999999999  0.7051299999999998  1.0000
  C   C102      1.0  0.40384  0.7394299999999998  0.69495  1.0000
  C   C103      1.0  0.38446000000000013  0.76326  0.65263  1.0000
  C   C104      1.0  0.3018300000000001  0.7831999999999999  0.64259  1.0000
  C   C105      1.0  0.23523000000000005  0.7804499999999999  0.67458  1.0000
  C   C106      1.0  0.25235  0.7589899999999998  0.71636  1.0000
  C   C107      1.0  0.33676  0.7382599999999998  0.7279099999999997  1.0000
  C   C108      1.0  0.56191  0.7186999999999999  0.67444  1.0000
  C   C109      1.0  0.10613000000000003  0.48412999999999995  0.91171  1.0000
  C   C110      1.0  0.16616000000000006  0.44601999999999997  0.8914399999999999  1.0000
  C   C111      1.0  0.23455000000000006  0.47203  0.8674  1.0000
  C   C112      1.0  0.24141  0.5352099999999999  0.86603  1.0000
  C   C113      1.0  0.3017  0.43124  0.8480499999999997  1.0000
  C   C114      1.0  0.4171900000000001  0.41669  0.79232  1.0000
  C   C115      1.0  0.3898900000000001  0.38574999999999987  0.7492499999999997  1.0000
  C   C116      1.0  0.4653800000000001  0.34884  0.72996  1.0000
  C   C117      1.0  0.54701  0.38775  0.7234099999999998  1.0000
  C   C118      1.0  0.5727  0.41923  0.76653  1.0000
  C   C119      1.0  0.4968300000000001  0.45736  0.78468  1.0000
  C   C120      1.0  0.55629  0.54665  0.8226999999999999  1.0000
  C   C121      1.0  0.5696600000000003  0.57929  0.8653399999999998  1.0000
  C   C122      1.0  0.5242500000000002  0.56556  0.9042  1.0000
  C   C123      1.0  0.59475  0.63989  0.94308  1.0000
  C   C124      1.0  0.64134  0.6585899999999999  0.9059399999999997  1.0000
  C   C125      1.0  0.62877  0.6278  0.86649  1.0000
  C   C126      1.0  0.11789000000000002  0.54685  0.90876  1.0000
  C   C127      1.0  0.9033500000000002  0.23811  0.55721  1.0000
  C   C128      1.0  0.9650300000000003  0.24416999999999997  0.5195  1.0000
  C   C129      1.0  0.9582  0.20799999999999996  0.48056  1.0000
  C   C130      1.0  0.8876000000000002  0.16744999999999996  0.4734399999999999  1.0000
  C   C131      1.0  0.88  0.13571  0.43447999999999987  1.0000
  C   C132      1.0  0.94218  0.14359999999999998  0.40069  1.0000
  C   C133      1.0  0.01166  0.18244999999999997  0.40648  1.0000
  C   C134      1.0  0.02261000000000001  0.21522999999999998  0.44648  1.0000
  C   C135      1.0  0.09256000000000003  0.25705999999999996  0.4536399999999999  1.0000
  C   C136      1.0  0.16829  0.26300999999999997  0.4231099999999999  1.0000
  C   C137      1.0  0.09404  0.29316  0.4909699999999999  1.0000
  C   C138      1.0  0.030160000000000006  0.28718  0.5236  1.0000
  C   C139      1.0  0.7051300000000003  0.21737999999999993  0.6919999999999997  1.0000
  C   C140      1.0  0.64348  0.21315  0.7298299999999998  1.0000
  C   C141      1.0  0.5643700000000003  0.18492  0.7224899999999997  1.0000
  C   C142      1.0  0.4997000000000001  0.18441  0.7551899999999998  1.0000
  C   C143      1.0  0.51351  0.21352999999999997  0.7948599999999998  1.0000
  C   C144      1.0  0.59615  0.23942999999999995  0.80505  1.0000
  C   C145      1.0  0.61553  0.26326  0.84737  1.0000
  C   C146      1.0  0.69816  0.2832  0.8574  1.0000
  C   C147      1.0  0.7647600000000002  0.28045  0.8254099999999998  1.0000
  C   C148      1.0  0.74764  0.25898  0.78364  1.0000
  C   C149      1.0  0.66323  0.23826  0.7720899999999998  1.0000
  C   C150      1.0  0.43808000000000014  0.21869999999999998  0.82555  1.0000
  C   C151      1.0  0.8938600000000002  0.9841299999999998  0.5882799999999998  1.0000
  C   C152      1.0  0.8338300000000002  0.94602  0.60856  1.0000
  C   C153      1.0  0.76544  0.9720299999999998  0.6326  1.0000
  C   C154      1.0  0.75858  0.03520999999999999  0.63396  1.0000
  C   C155      1.0  0.6982900000000002  0.93124  0.6519499999999998  1.0000
  C   C156      1.0  0.5828  0.91669  0.70768  1.0000
  C   C157      1.0  0.6101000000000002  0.8857499999999999  0.7507399999999997  1.0000
  C   C158      1.0  0.5346100000000001  0.84884  0.77004  1.0000
  C   C159      1.0  0.4529800000000001  0.8877499999999999  0.7765799999999998  1.0000
  C   C160      1.0  0.4273  0.9192299999999999  0.7334699999999998  1.0000
  C   C161      1.0  0.50316  0.9573599999999999  0.71532  1.0000
  C   C162      1.0  0.4437000000000001  0.04664999999999998  0.6773  1.0000
  C   C163      1.0  0.43034  0.07929  0.6346499999999998  1.0000
  C   C164      1.0  0.4757400000000001  0.06556  0.59579  1.0000
  C   C165      1.0  0.4052400000000001  0.13988999999999996  0.55691  1.0000
  C   C166      1.0  0.35865000000000014  0.15859  0.59405  1.0000
  C   C167      1.0  0.3712300000000001  0.12779  0.6335  1.0000
  C   C168      1.0  0.8821000000000002  0.04685  0.59123  1.0000
  C   C169      1.0  0.40194000000000013  0.23800999999999994  0.94265  1.0000
  C   C170      1.0  0.4640200000000001  0.24392  0.9801899999999999  1.0000
  C   C171      1.0  0.4572900000000001  0.20794  0.01924  1.0000
  C   C172      1.0  0.3866900000000001  0.16738999999999998  0.026589999999999992  1.0000
  C   C173      1.0  0.3792600000000001  0.13572  0.06561  1.0000
  C   C174      1.0  0.44180000000000014  0.14353  0.09913999999999999  1.0000
  C   C175      1.0  0.51128  0.18232999999999996  0.09309999999999997  1.0000
  C   C176      1.0  0.52201  0.21519  0.05313  1.0000
  C   C177      1.0  0.59221  0.25685  0.04579  1.0000
  C   C178      1.0  0.66843  0.26274  0.07606  1.0000
  C   C179      1.0  0.5935300000000002  0.29273  0.008329999999999997  1.0000
  C   C180      1.0  0.5295300000000002  0.28663  0.97582  1.0000
  C   C181      1.0  0.20548  0.21785999999999997  0.80701  1.0000
  C   C182      1.0  0.1439  0.21358999999999997  0.76921  1.0000
  C   C183      1.0  0.06489  0.1854  0.77695  1.0000
  C   C184      1.0  0.9998300000000001  0.18461  0.74455  1.0000
  C   C185      1.0  0.013410000000000004  0.2133  0.7046699999999998  1.0000
  C   C186      1.0  0.09587000000000002  0.23933  0.69411  1.0000
  C   C187      1.0  0.11472  0.26314  0.65168  1.0000
  C   C188      1.0  0.19704  0.28356  0.64136  1.0000
  C   C189      1.0  0.2638900000000001  0.28142  0.67316  1.0000
  C   C190      1.0  0.24726000000000006  0.25997999999999993  0.71503  1.0000
  C   C191      1.0  0.16324000000000005  0.2386  0.72685  1.0000
  C   C192      1.0  0.9378100000000003  0.21857999999999994  0.6742299999999998  1.0000
  C   C193      1.0  0.39317  0.98364  0.91154  1.0000
  C   C194      1.0  0.33286  0.9455799999999999  0.89151  1.0000
  C   C195      1.0  0.2649800000000001  0.97177  0.8672999999999998  1.0000
  C   C196      1.0  0.25851  0.034949999999999995  0.8657999999999998  1.0000
  C   C197      1.0  0.19787  0.9310899999999999  0.84794  1.0000
  C   C198      1.0  0.08326  0.9162399999999998  0.7920599999999998  1.0000
  C   C199      1.0  0.11006000000000003  0.8854599999999998  0.7488299999999998  1.0000
  C   C200      1.0  0.03408  0.8488999999999998  0.7297899999999998  1.0000
  C   C201      1.0  0.95276  0.8881599999999998  0.7234299999999998  1.0000
  C   C202      1.0  0.9276400000000002  0.9197399999999999  0.7666299999999998  1.0000
  C   C203      1.0  0.00405  0.9573599999999999  0.78463  1.0000
  C   C204      1.0  0.9448200000000002  0.04674999999999999  0.8226799999999997  1.0000
  C   C205      1.0  0.93126  0.07945999999999999  0.8653199999999998  1.0000
  C   C206      1.0  0.9764500000000002  0.06588  0.9042  1.0000
  C   C207      1.0  0.9049900000000002  0.13992  0.94302  1.0000
  C   C208      1.0  0.8587700000000003  0.1586  0.9058099999999998  1.0000
  C   C209      1.0  0.8720800000000002  0.12793  0.8663499999999997  1.0000
  C   C210      1.0  0.38215  0.04639999999999998  0.9082599999999998  1.0000
  C   C211      1.0  0.59807  0.73801  0.5573499999999999  1.0000
  C   C212      1.0  0.5359700000000001  0.74392  0.51981  1.0000
  C   C213      1.0  0.54271  0.70795  0.4807599999999999  1.0000
  C   C214      1.0  0.61331  0.6673899999999999  0.4734099999999999  1.0000
  C   C215      1.0  0.62074  0.6357199999999998  0.43439  1.0000
  C   C216      1.0  0.5582  0.6435299999999999  0.4008599999999999  1.0000
  C   C217      1.0  0.48871000000000003  0.68233  0.4069  1.0000
  C   C218      1.0  0.47799000000000014  0.7151899999999999  0.44687  1.0000
  C   C219      1.0  0.4077900000000001  0.7568499999999999  0.4542  1.0000
  C   C220      1.0  0.33157  0.76274  0.42394  1.0000
  C   C221      1.0  0.40647  0.79273  0.4916699999999999  1.0000
  C   C222      1.0  0.4704700000000001  0.78663  0.52418  1.0000
  C   C223      1.0  0.7945100000000003  0.7178699999999999  0.69299  1.0000
  C   C224      1.0  0.8560900000000002  0.71359  0.73079  1.0000
  C   C225      1.0  0.9351000000000003  0.6854  0.72304  1.0000
  C   C226      1.0  0.0001599999999999999  0.68461  0.75545  1.0000
  C   C227      1.0  0.98658  0.7133  0.7953199999999998  1.0000
  C   C228      1.0  0.9041200000000003  0.73933  0.80588  1.0000
  C   C229      1.0  0.88527  0.7631399999999999  0.84832  1.0000
  C   C230      1.0  0.80295  0.78356  0.8586299999999998  1.0000
  C   C231      1.0  0.7361  0.78142  0.82683  1.0000
  C   C232      1.0  0.75273  0.75998  0.78496  1.0000
  C   C233      1.0  0.8367600000000002  0.7385999999999999  0.77314  1.0000
  C   C234      1.0  0.062190000000000016  0.71858  0.8257599999999998  1.0000
  C   C235      1.0  0.6068200000000002  0.48363999999999996  0.58845  1.0000
  C   C236      1.0  0.66713  0.4455899999999999  0.60848  1.0000
  C   C237      1.0  0.7350100000000003  0.47176999999999997  0.63269  1.0000
  C   C238      1.0  0.7414900000000002  0.53496  0.6341899999999998  1.0000
  C   C239      1.0  0.8021200000000003  0.4310899999999999  0.65205  1.0000
  C   C240      1.0  0.9167300000000003  0.41624  0.7079399999999998  1.0000
  C   C241      1.0  0.8899300000000002  0.38545999999999997  0.7511699999999998  1.0000
  C   C242      1.0  0.9659200000000002  0.3489  0.7701999999999998  1.0000
  C   C243      1.0  0.04723  0.38815999999999995  0.7765699999999998  1.0000
  C   C244      1.0  0.07236  0.41974  0.7333599999999998  1.0000
  C   C245      1.0  0.99595  0.45736  0.71537  1.0000
  C   C246      1.0  0.055180000000000014  0.54675  0.67731  1.0000
  C   C247      1.0  0.06873  0.57946  0.6346799999999998  1.0000
  C   C248      1.0  0.02354  0.5658799999999999  0.5958  1.0000
  C   C249      1.0  0.095  0.63993  0.55697  1.0000
  C   C250      1.0  0.14122  0.6586  0.5941899999999998  1.0000
  C   C251      1.0  0.12791  0.62793  0.63364  1.0000
  C   C252      1.0  0.61784  0.5464  0.59174  1.0000
  C   C253      1.0  0.9033600000000003  0.26189  0.05720999999999998  1.0000
  C   C254      1.0  0.9650300000000003  0.25582  0.0195  1.0000
  C   C255      1.0  0.9582  0.29199  0.9805599999999998  1.0000
  C   C256      1.0  0.8876000000000002  0.33255  0.97344  1.0000
  C   C257      1.0  0.88001  0.36428999999999995  0.9344799999999998  1.0000
  C   C258      1.0  0.94219  0.35639  0.90069  1.0000
  C   C259      1.0  0.01166  0.31753  0.90648  1.0000
  C   C260      1.0  0.02261000000000001  0.28476  0.9464799999999998  1.0000
  C   C261      1.0  0.09258  0.24294999999999997  0.9536499999999998  1.0000
  C   C262      1.0  0.16832000000000005  0.23699999999999996  0.9231299999999998  1.0000
  C   C263      1.0  0.09404  0.20682  0.9909699999999998  1.0000
  C   C264      1.0  0.030150000000000007  0.2128  0.023599999999999993  1.0000
  C   C265      1.0  0.7051400000000002  0.2826199999999999  0.19199999999999995  1.0000
  C   C266      1.0  0.64348  0.28685999999999995  0.22984  1.0000
  C   C267      1.0  0.5643800000000002  0.31508  0.22248999999999994  1.0000
  C   C268      1.0  0.4997100000000001  0.3155899999999999  0.25519  1.0000
  C   C269      1.0  0.51352  0.28647999999999996  0.29486  1.0000
  C   C270      1.0  0.59615  0.26058  0.3050499999999999  1.0000
  C   C271      1.0  0.61554  0.23675  0.3473699999999999  1.0000
  C   C272      1.0  0.69817  0.21679999999999996  0.3573999999999999  1.0000
  C   C273      1.0  0.7647700000000002  0.21954999999999997  0.32541  1.0000
  C   C274      1.0  0.74765  0.24101999999999998  0.2836399999999999  1.0000
  C   C275      1.0  0.66324  0.26174  0.27209  1.0000
  C   C276      1.0  0.4380900000000001  0.28130999999999995  0.32555999999999996  1.0000
  C   C277      1.0  0.8938600000000002  0.51588  0.08829  1.0000
  C   C278      1.0  0.8338300000000002  0.55399  0.10856  1.0000
  C   C279      1.0  0.76545  0.52798  0.13259999999999994  1.0000
  C   C280      1.0  0.75858  0.46479  0.13395999999999994  1.0000
  C   C281      1.0  0.6983000000000003  0.56877  0.15194999999999995  1.0000
  C   C282      1.0  0.58281  0.58332  0.20767999999999995  1.0000
  C   C283      1.0  0.6101000000000002  0.6142499999999999  0.25073999999999996  1.0000
  C   C284      1.0  0.5346100000000001  0.65117  0.27004  1.0000
  C   C285      1.0  0.4529900000000001  0.6122599999999999  0.2765799999999999  1.0000
  C   C286      1.0  0.4273  0.58077  0.23347  1.0000
  C   C287      1.0  0.50316  0.5426399999999999  0.21531999999999996  1.0000
  C   C288      1.0  0.44371  0.45336  0.1773  1.0000
  C   C289      1.0  0.43034  0.42071  0.13464999999999994  1.0000
  C   C290      1.0  0.4757500000000001  0.43445  0.0958  1.0000
  C   C291      1.0  0.4052500000000001  0.36011  0.056909999999999995  1.0000
  C   C292      1.0  0.35865000000000014  0.34140999999999994  0.09405999999999998  1.0000
  C   C293      1.0  0.3712300000000001  0.37221  0.13350999999999993  1.0000
  C   C294      1.0  0.8821000000000002  0.4531599999999999  0.09122999999999998  1.0000
  C   C295      1.0  0.09664  0.7619  0.44278  1.0000
  C   C296      1.0  0.03497  0.7558299999999999  0.48049999999999987  1.0000
  C   C297      1.0  0.04179  0.7919999999999998  0.51944  1.0000
  C   C298      1.0  0.1124  0.83255  0.52655  1.0000
  C   C299      1.0  0.11999000000000003  0.86429  0.5655099999999997  1.0000
  C   C300      1.0  0.05781  0.8563999999999998  0.5993  1.0000
  C   C301      1.0  0.98834  0.81755  0.59351  1.0000
  C   C302      1.0  0.97738  0.7847699999999997  0.55352  1.0000
  C   C303      1.0  0.9074300000000001  0.74295  0.5463499999999998  1.0000
  C   C304      1.0  0.8317  0.7369999999999998  0.5768799999999997  1.0000
  C   C305      1.0  0.9059500000000003  0.70684  0.50903  1.0000
  C   C306      1.0  0.9698400000000003  0.71282  0.47638999999999987  1.0000
  C   C307      1.0  0.29486  0.78262  0.3079999999999999  1.0000
  C   C308      1.0  0.35652  0.78686  0.27016  1.0000
  C   C309      1.0  0.43562  0.81508  0.27750999999999987  1.0000
  C   C310      1.0  0.50029  0.81559  0.24480999999999994  1.0000
  C   C311      1.0  0.48648000000000013  0.78648  0.20513  1.0000
  C   C312      1.0  0.40385  0.7605799999999999  0.19494999999999996  1.0000
  C   C313      1.0  0.38446000000000013  0.73675  0.15262999999999993  1.0000
  C   C314      1.0  0.3018300000000001  0.7168  0.1426  1.0000
  C   C315      1.0  0.23523000000000005  0.7195599999999999  0.17458999999999994  1.0000
  C   C316      1.0  0.25235  0.7410199999999999  0.21635999999999994  1.0000
  C   C317      1.0  0.33676  0.7617399999999999  0.22791  1.0000
  C   C318      1.0  0.56191  0.7812999999999999  0.17444  1.0000
  C   C319      1.0  0.10614  0.01587  0.41171  1.0000
  C   C320      1.0  0.16617000000000007  0.05399  0.39144  1.0000
  C   C321      1.0  0.23455000000000006  0.02796999999999999  0.3673999999999999  1.0000
  C   C322      1.0  0.24141  0.9647999999999998  0.3660299999999999  1.0000
  C   C323      1.0  0.3017  0.06876999999999998  0.3480499999999999  1.0000
  C   C324      1.0  0.4171900000000001  0.08331  0.2923199999999999  1.0000
  C   C325      1.0  0.3898900000000001  0.11424999999999998  0.24924999999999994  1.0000
  C   C326      1.0  0.46539000000000014  0.15116  0.22996  1.0000
  C   C327      1.0  0.54701  0.11225999999999998  0.22340999999999994  1.0000
  C   C328      1.0  0.5727  0.08077  0.26653  1.0000
  C   C329      1.0  0.4968400000000001  0.04263999999999999  0.28468  1.0000
  C   C330      1.0  0.55629  0.9533599999999999  0.3227  1.0000
  C   C331      1.0  0.5696600000000003  0.9207099999999998  0.3653499999999999  1.0000
  C   C332      1.0  0.5242500000000002  0.9344499999999999  0.4042  1.0000
  C   C333      1.0  0.59475  0.86011  0.44308  1.0000
  C   C334      1.0  0.6413500000000001  0.8414099999999999  0.40594  1.0000
  C   C335      1.0  0.62877  0.87221  0.36648999999999987  1.0000
  C   C336      1.0  0.1179  0.9531599999999998  0.4087699999999999  1.0000
  N   N1        1.0  0.6848000000000002  0.9283799999999998  0.11365  1.0000
  N   N2        1.0  0.84459  0.04977  0.18854  1.0000
  N   N3        1.0  0.017900000000000006  0.00961  0.17521  1.0000
  N   N4        1.0  0.036  0.90513  0.05746  1.0000
  N   N5        1.0  0.31520000000000004  0.42837  0.38635  1.0000
  N   N6        1.0  0.15541000000000005  0.54977  0.31146  1.0000
  N   N7        1.0  0.98209  0.50961  0.32478  1.0000
  N   N8        1.0  0.9640000000000002  0.40512999999999993  0.44254  1.0000
  N   N9        1.0  0.18496  0.57192  0.8867699999999997  1.0000
  N   N10       1.0  0.34539  0.4508999999999999  0.812  1.0000
  N   N11       1.0  0.51938  0.4901999999999999  0.82479  1.0000
  N   N12       1.0  0.5362100000000002  0.59455  0.94256  1.0000
  N   N13       1.0  0.8150300000000003  0.07192  0.6132299999999998  1.0000
  N   N14       1.0  0.6546  0.9509  0.688  1.0000
  N   N15       1.0  0.4806200000000001  0.99021  0.6752099999999998  1.0000
  N   N16       1.0  0.46378  0.09455  0.55744  1.0000
  N   N17       1.0  0.31520000000000004  0.07163  0.8863499999999997  1.0000
  N   N18       1.0  0.15541000000000005  0.9502299999999998  0.81145  1.0000
  N   N19       1.0  0.98209  0.99039  0.82478  1.0000
  N   N20       1.0  0.9640000000000002  0.09487  0.94254  1.0000
  N   N21       1.0  0.6848000000000002  0.57163  0.6136499999999998  1.0000
  N   N22       1.0  0.8445800000000002  0.45022999999999996  0.68854  1.0000
  N   N23       1.0  0.017900000000000006  0.49038999999999994  0.6752099999999998  1.0000
  N   N24       1.0  0.03599  0.59487  0.55746  1.0000
  N   N25       1.0  0.8150400000000002  0.42808  0.11322999999999997  1.0000
  N   N26       1.0  0.65461  0.5491099999999999  0.18799999999999994  1.0000
  N   N27       1.0  0.4806200000000001  0.5098  0.17521  1.0000
  N   N28       1.0  0.46378  0.40546  0.057439999999999984  1.0000
  N   N29       1.0  0.18496  0.9280799999999999  0.38676999999999995  1.0000
  N   N30       1.0  0.34539  0.04910999999999999  0.312  1.0000
  N   N31       1.0  0.5193800000000002  0.009799999999999998  0.32479  1.0000
  N   N32       1.0  0.5362200000000003  0.90546  0.44256  1.0000
  O   O1        1.0  0.6142300000000003  0.8155599999999998  0.07113999999999997  1.0000
  O   O2        1.0  0.6273300000000003  0.71259  0.07327  1.0000
  O   O3        1.0  0.7830900000000001  0.8306099999999998  0.17077  1.0000
  O   O4        1.0  0.76135  0.73008  0.185  1.0000
  O   O5        1.0  0.10216  0.83008  0.3354999999999999  1.0000
  O   O6        1.0  0.08202  0.7276099999999999  0.3380699999999999  1.0000
  O   O7        1.0  0.30646  0.7849  0.9035599999999998  1.0000
  O   O8        1.0  0.2952700000000001  0.6851699999999998  0.9223499999999998  1.0000
  O   O9        1.0  0.8188800000000003  0.11791  0.13333  1.0000
  O   O10       1.0  0.07557  0.9301  0.21304999999999993  1.0000
  O   O11       1.0  0.38575  0.31556  0.4288599999999999  1.0000
  O   O12       1.0  0.37267  0.21258999999999997  0.42673  1.0000
  O   O13       1.0  0.21691000000000005  0.33060999999999996  0.32922  1.0000
  O   O14       1.0  0.23865000000000006  0.23008  0.31499  1.0000
  O   O15       1.0  0.89784  0.33008  0.16449  1.0000
  O   O16       1.0  0.91798  0.22761  0.16193  1.0000
  O   O17       1.0  0.69353  0.2849  0.5964399999999997  1.0000
  O   O18       1.0  0.7047200000000002  0.18516999999999995  0.57764  1.0000
  O   O19       1.0  0.18112000000000006  0.6179099999999998  0.3666699999999999  1.0000
  O   O20       1.0  0.92443  0.43009  0.28695  1.0000
  O   O21       1.0  0.11234000000000002  0.68451  0.92888  1.0000
  O   O22       1.0  0.12592000000000006  0.7874899999999999  0.9267799999999998  1.0000
  O   O23       1.0  0.2853900000000001  0.66953  0.8312099999999998  1.0000
  O   O24       1.0  0.25945  0.76906  0.81502  1.0000
  O   O25       1.0  0.60097  0.66979  0.66438  1.0000
  O   O26       1.0  0.5825800000000002  0.77242  0.66224  1.0000
  O   O27       1.0  0.8052300000000002  0.7148099999999998  0.09609  1.0000
  O   O28       1.0  0.7972200000000003  0.81553  0.07978999999999997  1.0000
  O   O29       1.0  0.31761  0.382  0.86656  1.0000
  O   O30       1.0  0.57655  0.5698999999999999  0.78692  1.0000
  O   O31       1.0  0.88765  0.1845  0.57112  1.0000
  O   O32       1.0  0.8740800000000002  0.28749  0.5732099999999998  1.0000
  O   O33       1.0  0.7146  0.16953  0.6687899999999998  1.0000
  O   O34       1.0  0.7405500000000003  0.26906  0.68498  1.0000
  O   O35       1.0  0.39903  0.16978  0.83561  1.0000
  O   O36       1.0  0.4174000000000001  0.27242  0.83776  1.0000
  O   O37       1.0  0.19477000000000005  0.21480999999999995  0.40391  1.0000
  O   O38       1.0  0.20276  0.31554  0.4201999999999999  1.0000
  O   O39       1.0  0.68239  0.882  0.63343  1.0000
  O   O40       1.0  0.4234400000000001  0.06989999999999999  0.71307  1.0000
  O   O41       1.0  0.38578000000000007  0.18443999999999997  0.92885  1.0000
  O   O42       1.0  0.37267  0.28741  0.92673  1.0000
  O   O43       1.0  0.21691000000000005  0.1694  0.82923  1.0000
  O   O44       1.0  0.23864  0.26992  0.81499  1.0000
  O   O45       1.0  0.89783  0.16992  0.66449  1.0000
  O   O46       1.0  0.91798  0.27239  0.6619199999999997  1.0000
  O   O47       1.0  0.69353  0.2151  0.09644  1.0000
  O   O48       1.0  0.7047200000000002  0.31484  0.07764  1.0000
  O   O49       1.0  0.18112000000000006  0.88209  0.8666599999999998  1.0000
  O   O50       1.0  0.92443  0.06991  0.78695  1.0000
  O   O51       1.0  0.6142400000000002  0.6844399999999999  0.57114  1.0000
  O   O52       1.0  0.6273300000000003  0.7874099999999999  0.5732699999999998  1.0000
  O   O53       1.0  0.7830900000000001  0.66939  0.67077  1.0000
  O   O54       1.0  0.76134  0.76992  0.685  1.0000
  O   O55       1.0  0.10216  0.6699199999999998  0.8355  1.0000
  O   O56       1.0  0.08202  0.77239  0.8380699999999998  1.0000
  O   O57       1.0  0.30646  0.7151  0.40355999999999986  1.0000
  O   O58       1.0  0.2952800000000001  0.81484  0.42235  1.0000
  O   O59       1.0  0.8188700000000001  0.38209  0.6333299999999997  1.0000
  O   O60       1.0  0.07556000000000003  0.5699099999999999  0.71305  1.0000
  O   O61       1.0  0.88766  0.31549  0.07112  1.0000
  O   O62       1.0  0.8740800000000002  0.21251  0.07321  1.0000
  O   O63       1.0  0.71461  0.33047999999999994  0.16878999999999994  1.0000
  O   O64       1.0  0.7405500000000003  0.23095  0.18498  1.0000
  O   O65       1.0  0.3990200000000001  0.33022  0.33562  1.0000
  O   O66       1.0  0.41742  0.22757999999999995  0.33776  1.0000
  O   O67       1.0  0.19477000000000005  0.28519  0.90391  1.0000
  O   O68       1.0  0.2028  0.18448  0.92022  1.0000
  O   O69       1.0  0.6824  0.61801  0.13343  1.0000
  O   O70       1.0  0.4234400000000001  0.4301  0.21308  1.0000
  O   O71       1.0  0.11234000000000002  0.8155  0.42888  1.0000
  O   O72       1.0  0.12592000000000006  0.7125199999999998  0.4267899999999999  1.0000
  O   O73       1.0  0.2853900000000001  0.83048  0.3312099999999999  1.0000
  O   O74       1.0  0.25944  0.7309499999999998  0.3150199999999999  1.0000
  O   O75       1.0  0.60097  0.8302199999999997  0.16438  1.0000
  O   O76       1.0  0.58259  0.72758  0.16224  1.0000
  O   O77       1.0  0.8052300000000002  0.78519  0.59608  1.0000
  O   O78       1.0  0.7972300000000002  0.68447  0.5798  1.0000
  O   O79       1.0  0.3176  0.11800999999999998  0.36656  1.0000
  O   O80       1.0  0.57656  0.9301099999999998  0.28692  1.0000
