data_image0
_chemical_formula_structural       Cd12H280C480N40Cl32O56
_chemical_formula_sum              "Cd12 H280 C480 N40 Cl32 O56"
_cell_length_a       20.43412
_cell_length_b       20.44227
_cell_length_c       50.25049
_cell_angle_alpha    89.98495
_cell_angle_beta     90.00318999999999
_cell_angle_gamma    90.02146999999998

_symmetry_space_group_name_H-M    'P 1'
_symmetry_Int_Tables_number       1

loop_
  _symmetry_equiv_pos_as_xyz
  'x,y,z'

loop_
  _atom_site_type_symbol
  _atom_site_label
  _atom_site_symmetry_multiplicity
  _atom_site_fract_x
  _atom_site_fract_y
  _atom_site_fract_z
  _atom_site_occupancy
  Cd  Cd1       1.0  0.69025  0.0908  0.96398  1.0000
  Cd  Cd2       1.0  0.30973999999999996  0.90969  0.46417000000000014  1.0000
  Cd  Cd3       1.0  0.09873  0.68635  0.285  1.0000
  Cd  Cd4       1.0  0.9069699999999999  0.30987999999999993  0.78629  1.0000
  Cd  Cd5       1.0  0.79837  0.20136  0.8749800000000002  1.0000
  Cd  Cd6       1.0  0.2019  0.79804  0.3758500000000001  1.0000
  Cd  Cd7       1.0  0.90351  0.68632  0.71471  1.0000
  Cd  Cd8       1.0  0.09272  0.31054  0.21386000000000005  1.0000
  Cd  Cd9       1.0  0.31368  0.09635  0.03519  1.0000
  Cd  Cd10      1.0  0.6856099999999999  0.90258  0.53495  1.0000
  Cd  Cd11      1.0  0.79774  0.7982899999999999  0.62515  1.0000
  Cd  Cd12      1.0  0.20173  0.2018  0.12505  1.0000
  H   H1        1.0  0.28979  0.23642999999999997  0.91322  1.0000
  H   H2        1.0  0.3016  0.25407  0.84281  1.0000
  H   H3        1.0  0.32025  0.9959  0.07507000000000001  1.0000
  H   H4        1.0  0.41802999999999996  0.83326  0.10993  1.0000
  H   H5        1.0  0.6765  0.26346  0.8457200000000001  1.0000
  H   H6        1.0  0.55477  0.25595  0.8414100000000001  1.0000
  H   H7        1.0  0.55583  0.12804  0.90992  1.0000
  H   H8        1.0  0.67623  0.14038  0.91147  1.0000
  H   H9        1.0  0.46126  0.24602999999999997  0.90933  1.0000
  H   H10       1.0  0.52792  0.11479999999999999  0.83427  1.0000
  H   H11       1.0  0.34704  0.04495  0.80098  1.0000
  H   H12       1.0  0.28433  0.10422999999999999  0.83555  1.0000
  H   H13       1.0  0.31361  0.10021  0.91375  1.0000
  H   H14       1.0  0.25451  0.02915  0.94551  1.0000
  H   H15       1.0  0.0714  0.08285  0.90951  1.0000
  H   H16       1.0  0.13057  0.24782  0.8446800000000001  1.0000
  H   H17       1.0  0.92067  0.18199  0.83124  1.0000
  H   H18       1.0  0.04213  0.16698  0.8318000000000001  1.0000
  H   H19       1.0  0.03548  0.1912  0.9169900000000001  1.0000
  H   H20       1.0  0.91482  0.20468  0.9131400000000001  1.0000
  H   H21       1.0  0.63563  0.16051  0.040600000000000004  1.0000
  H   H22       1.0  0.56357  0.11833999999999999  0.07672  1.0000
  H   H23       1.0  0.5435  0.93957  0.03173  1.0000
  H   H24       1.0  0.61632  0.98954  0.9973300000000003  1.0000
  H   H25       1.0  0.63391  0.99693  0.09239  1.0000
  H   H26       1.0  0.60735  0.9151499999999999  0.1703  1.0000
  H   H27       1.0  0.48775  0.9088900000000001  0.16301  1.0000
  H   H28       1.0  0.41618  0.01244  0.056810000000000006  1.0000
  H   H29       1.0  0.3870799999999999  0.04784  0.14441  1.0000
  H   H30       1.0  0.3427  0.11765  0.18063  1.0000
  H   H31       1.0  0.26833  0.94773  0.22065  1.0000
  H   H32       1.0  0.32861  0.76812  0.16254  1.0000
  H   H33       1.0  0.18019  0.88477  0.20016000000000003  1.0000
  H   H34       1.0  0.34212  0.75167  0.2133  1.0000
  H   H35       1.0  0.27039  0.69004  0.24529  1.0000
  H   H36       1.0  0.70988  0.76031  0.4131200000000001  1.0000
  H   H37       1.0  0.69848  0.74604  0.34281  1.0000
  H   H38       1.0  0.67964  0.00362  0.57501  1.0000
  H   H39       1.0  0.58248  0.16685  0.60968  1.0000
  H   H40       1.0  0.32355999999999996  0.73509  0.3468100000000001  1.0000
  H   H41       1.0  0.44504  0.74373  0.3419100000000001  1.0000
  H   H42       1.0  0.44472  0.87296  0.40997  1.0000
  H   H43       1.0  0.32444  0.85965  0.4121  1.0000
  H   H44       1.0  0.53874  0.75282  0.40922  1.0000
  H   H45       1.0  0.47233  0.885  0.3344300000000001  1.0000
  H   H46       1.0  0.65325  0.95461  0.3011  1.0000
  H   H47       1.0  0.7159499999999999  0.89562  0.33575  1.0000
  H   H48       1.0  0.6863  0.89957  0.4137400000000001  1.0000
  H   H49       1.0  0.74531  0.97082  0.44545  1.0000
  H   H50       1.0  0.92851  0.91714  0.4095600000000001  1.0000
  H   H51       1.0  0.86963  0.75231  0.34464  1.0000
  H   H52       1.0  0.08026  0.8174300000000001  0.33184  1.0000
  H   H53       1.0  0.95869  0.8326800000000001  0.33204  1.0000
  H   H54       1.0  0.96387  0.8087499999999999  0.41724000000000006  1.0000
  H   H55       1.0  0.08443  0.7949400000000001  0.41381000000000007  1.0000
  H   H56       1.0  0.36431  0.8394199999999999  0.54056  1.0000
  H   H57       1.0  0.43646  0.8815999999999999  0.57665  1.0000
  H   H58       1.0  0.45637999999999995  0.06041  0.53163  1.0000
  H   H59       1.0  0.38364  0.01038  0.4972300000000001  1.0000
  H   H60       1.0  0.36601  0.00298  0.59235  1.0000
  H   H61       1.0  0.3927  0.08477  0.67022  1.0000
  H   H62       1.0  0.51228  0.09102  0.66293  1.0000
  H   H63       1.0  0.58364  0.98721  0.55674  1.0000
  H   H64       1.0  0.61254  0.95212  0.64446  1.0000
  H   H65       1.0  0.65687  0.8823899999999999  0.68075  1.0000
  H   H66       1.0  0.73152  0.05256  0.72058  1.0000
  H   H67       1.0  0.67158  0.23186999999999997  0.66235  1.0000
  H   H68       1.0  0.81958  0.11522999999999999  0.69994  1.0000
  H   H69       1.0  0.65746  0.2482  0.71313  1.0000
  H   H70       1.0  0.72929  0.30998  0.74508  1.0000
  H   H71       1.0  0.23649000000000003  0.2895  0.33678000000000013  1.0000
  H   H72       1.0  0.25396  0.30157  0.40718000000000004  1.0000
  H   H73       1.0  0.99461  0.31984  0.17496000000000003  1.0000
  H   H74       1.0  0.8332599999999999  0.41766999999999993  0.14023  1.0000
  H   H75       1.0  0.26695  0.67477  0.40312  1.0000
  H   H76       1.0  0.25697  0.55338  0.40793000000000007  1.0000
  H   H77       1.0  0.12732  0.5557  0.34  1.0000
  H   H78       1.0  0.14037  0.67598  0.33847  1.0000
  H   H79       1.0  0.24575  0.4608  0.34056  1.0000
  H   H80       1.0  0.11477  0.52763  0.41566  1.0000
  H   H81       1.0  0.04497  0.34697  0.44913  1.0000
  H   H82       1.0  0.10426  0.28404  0.41462  1.0000
  H   H83       1.0  0.10022  0.3136  0.33627  1.0000
  H   H84       1.0  0.02912  0.25459  0.30452  1.0000
  H   H85       1.0  0.083  0.07135  0.34042  1.0000
  H   H86       1.0  0.24781  0.13036  0.40534  1.0000
  H   H87       1.0  0.18233  0.92123  0.41894000000000003  1.0000
  H   H88       1.0  0.16704  0.04266  0.4181800000000001  1.0000
  H   H89       1.0  0.19148  0.03509  0.33301  1.0000
  H   H90       1.0  0.20460999999999996  0.91451  0.33706  1.0000
  H   H91       1.0  0.16048999999999997  0.63593  0.20936  1.0000
  H   H92       1.0  0.1186  0.56361  0.17326000000000003  1.0000
  H   H93       1.0  0.9397  0.54329  0.21826  1.0000
  H   H94       1.0  0.98941  0.61649  0.2526  1.0000
  H   H95       1.0  0.99705  0.63395  0.1576  1.0000
  H   H96       1.0  0.91515  0.60746  0.07972  1.0000
  H   H97       1.0  0.90909  0.48787  0.087  1.0000
  H   H98       1.0  0.01182  0.4161  0.19327  1.0000
  H   H99       1.0  0.04783  0.38733  0.10563  1.0000
  H   H100      1.0  0.11767999999999999  0.34291  0.06938  1.0000
  H   H101      1.0  0.94747  0.26856  0.02943  1.0000
  H   H102      1.0  0.768  0.32811  0.08773  1.0000
  H   H103      1.0  0.8848299999999999  0.1806  0.05016  1.0000
  H   H104      1.0  0.75167  0.34254  0.03678  1.0000
  H   H105      1.0  0.68978  0.27046  0.004910000000000001  1.0000
  H   H106      1.0  0.76036  0.70963  0.8368900000000001  1.0000
  H   H107      1.0  0.74581  0.69804  0.9071800000000002  1.0000
  H   H108      1.0  0.00567  0.6802  0.67496  1.0000
  H   H109      1.0  0.16673  0.58274  0.64029  1.0000
  H   H110      1.0  0.73563  0.32344  0.9037  1.0000
  H   H111      1.0  0.74398  0.44495  0.9083700000000001  1.0000
  H   H112      1.0  0.87237  0.44426  0.84001  1.0000
  H   H113      1.0  0.85953  0.32401  0.8382000000000002  1.0000
  H   H114      1.0  0.7527499999999999  0.53851  0.8408100000000002  1.0000
  H   H115      1.0  0.88499  0.47214  0.91563  1.0000
  H   H116      1.0  0.9545999999999999  0.65305  0.94889  1.0000
  H   H117      1.0  0.89554  0.7157  0.91427  1.0000
  H   H118      1.0  0.89949  0.68618  0.83621  1.0000
  H   H119      1.0  0.9708099999999998  0.74535  0.8045400000000003  1.0000
  H   H120      1.0  0.9171699999999999  0.92837  0.8406  1.0000
  H   H121      1.0  0.7525199999999999  0.8692400000000001  0.90557  1.0000
  H   H122      1.0  0.81775  0.07925  0.91872  1.0000
  H   H123      1.0  0.83297  0.9578099999999999  0.9184  1.0000
  H   H124      1.0  0.8088699999999999  0.96362  0.83318  1.0000
  H   H125      1.0  0.79557  0.0842  0.83678  1.0000
  H   H126      1.0  0.8394399999999999  0.36398  0.7094300000000002  1.0000
  H   H127      1.0  0.8813299999999998  0.43624  0.67336  1.0000
  H   H128      1.0  0.06027  0.45643  0.7183  1.0000
  H   H129      1.0  0.01055  0.38352  0.7526800000000001  1.0000
  H   H130      1.0  0.00291  0.36607  0.65761  1.0000
  H   H131      1.0  0.08479  0.39253999999999994  0.57976  1.0000
  H   H132      1.0  0.0909  0.51213  0.58698  1.0000
  H   H133      1.0  0.98797  0.58392  0.69325  1.0000
  H   H134      1.0  0.952  0.61281  0.6056  1.0000
  H   H135      1.0  0.8822  0.65723  0.56937  1.0000
  H   H136      1.0  0.05247  0.73154  0.52938  1.0000
  H   H137      1.0  0.23196  0.67183  0.58757  1.0000
  H   H138      1.0  0.11464999999999999  0.81967  0.5502  1.0000
  H   H139      1.0  0.24815  0.65798  0.53668  1.0000
  H   H140      1.0  0.30976  0.73026  0.50482  1.0000
  H   H141      1.0  0.76359  0.28981  0.6633  1.0000
  H   H142      1.0  0.7456499999999999  0.30161  0.59296  1.0000
  H   H143      1.0  0.00555  0.31968  0.82505  1.0000
  H   H144      1.0  0.16688  0.41736  0.8597500000000002  1.0000
  H   H145      1.0  0.73539  0.67623  0.59634  1.0000
  H   H146      1.0  0.74417  0.55468  0.5915700000000002  1.0000
  H   H147      1.0  0.8721799999999998  0.55545  0.66002  1.0000
  H   H148      1.0  0.85951  0.67568  0.66183  1.0000
  H   H149      1.0  0.75403  0.46107999999999993  0.65931  1.0000
  H   H150      1.0  0.8852700000000001  0.52782  0.58422  1.0000
  H   H151      1.0  0.955  0.34706  0.5509  1.0000
  H   H152      1.0  0.89575  0.28425  0.58547  1.0000
  H   H153      1.0  0.89988  0.31358  0.66381  1.0000
  H   H154      1.0  0.97085  0.25438  0.6955300000000001  1.0000
  H   H155      1.0  0.91716  0.07144  0.65949  1.0000
  H   H156      1.0  0.75215  0.1306  0.59463  1.0000
  H   H157      1.0  0.81741  0.92055  0.58132  1.0000
  H   H158      1.0  0.8329499999999999  0.04198  0.58179  1.0000
  H   H159      1.0  0.80873  0.03572  0.6669800000000001  1.0000
  H   H160      1.0  0.79504  0.91516  0.6632400000000002  1.0000
  H   H161      1.0  0.8394099999999999  0.6359099999999999  0.7905700000000002  1.0000
  H   H162      1.0  0.88131  0.56371  0.8266900000000003  1.0000
  H   H163      1.0  0.06020999999999999  0.5435  0.78166  1.0000
  H   H164      1.0  0.01044  0.61656  0.74731  1.0000
  H   H165      1.0  0.00296  0.63392  0.84241  1.0000
  H   H166      1.0  0.08489  0.60739  0.9202600000000001  1.0000
  H   H167      1.0  0.09101  0.48783  0.9130000000000001  1.0000
  H   H168      1.0  0.98816  0.41608999999999996  0.80675  1.0000
  H   H169      1.0  0.95202  0.38709  0.8944  1.0000
  H   H170      1.0  0.8822699999999999  0.34279  0.9307000000000002  1.0000
  H   H171      1.0  0.05247  0.26851  0.9706700000000003  1.0000
  H   H172      1.0  0.23194999999999996  0.32807  0.9124100000000002  1.0000
  H   H173      1.0  0.11545  0.18012  0.9500300000000003  1.0000
  H   H174      1.0  0.24809  0.34254  0.9632  1.0000
  H   H175      1.0  0.31019  0.27092  0.99507  1.0000
  H   H176      1.0  0.24008  0.70983  0.16305000000000006  1.0000
  H   H177      1.0  0.25433  0.69834  0.09294  1.0000
  H   H178      1.0  0.9942099999999999  0.68033  0.32506000000000007  1.0000
  H   H179      1.0  0.8331799999999999  0.58267  0.3597  1.0000
  H   H180      1.0  0.26453  0.32387  0.09624000000000003  1.0000
  H   H181      1.0  0.25665  0.44550999999999996  0.09179000000000002  1.0000
  H   H182      1.0  0.12748  0.44420999999999994  0.15992  1.0000
  H   H183      1.0  0.14043  0.32395  0.16167  1.0000
  H   H184      1.0  0.24753999999999998  0.53876  0.15919  1.0000
  H   H185      1.0  0.11498000000000001  0.47234  0.08448  1.0000
  H   H186      1.0  0.04552  0.65325  0.051150000000000015  1.0000
  H   H187      1.0  0.10449  0.71591  0.08582  1.0000
  H   H188      1.0  0.10049999999999999  0.68644  0.1638  1.0000
  H   H189      1.0  0.02919  0.74558  0.19544000000000003  1.0000
  H   H190      1.0  0.08289  0.9285999999999999  0.15939  1.0000
  H   H191      1.0  0.24757  0.8695099999999999  0.09441  1.0000
  H   H192      1.0  0.18264  0.07958  0.08124000000000002  1.0000
  H   H193      1.0  0.16729  0.95814  0.08163  1.0000
  H   H194      1.0  0.19112  0.9641099999999999  0.16681  1.0000
  H   H195      1.0  0.2046  0.08467  0.1632  1.0000
  H   H196      1.0  0.1605  0.36411  0.29061  1.0000
  H   H197      1.0  0.11856999999999998  0.43626  0.3266900000000001  1.0000
  H   H198      1.0  0.93967  0.45646999999999993  0.28173  1.0000
  H   H199      1.0  0.98937  0.38357  0.24735  1.0000
  H   H200      1.0  0.99703  0.36608999999999997  0.34242  1.0000
  H   H201      1.0  0.9151399999999998  0.3925  0.42027  1.0000
  H   H202      1.0  0.90905  0.5121  0.41301  1.0000
  H   H203      1.0  0.01202  0.584  0.30675  1.0000
  H   H204      1.0  0.04787  0.61273  0.39444000000000007  1.0000
  H   H205      1.0  0.11759  0.65698  0.43077  1.0000
  H   H206      1.0  0.94722  0.73138  0.47063  1.0000
  H   H207      1.0  0.76794  0.67158  0.41225  1.0000
  H   H208      1.0  0.8838899999999998  0.8197100000000002  0.45005  1.0000
  H   H209      1.0  0.75166  0.6569  0.46310000000000007  1.0000
  H   H210      1.0  0.68949  0.72821  0.49503  1.0000
  H   H211      1.0  0.71039  0.23585999999999996  0.08636000000000002  1.0000
  H   H212      1.0  0.69833  0.25412  0.15709  1.0000
  H   H213      1.0  0.67975  0.9969  0.9249600000000001  1.0000
  H   H214      1.0  0.58241  0.83319  0.89025  1.0000
  H   H215      1.0  0.32403  0.26421  0.15401  1.0000
  H   H216      1.0  0.44567999999999997  0.25582  0.15854  1.0000
  H   H217      1.0  0.44442  0.12803  0.09007  1.0000
  H   H218      1.0  0.32408  0.14048  0.08846000000000001  1.0000
  H   H219      1.0  0.53883  0.24554  0.09047  1.0000
  H   H220      1.0  0.47227  0.11482  0.16575  1.0000
  H   H221      1.0  0.65291  0.045  0.19906  1.0000
  H   H222      1.0  0.71579  0.10426999999999999  0.16459000000000001  1.0000
  H   H223      1.0  0.68641  0.10002  0.08622000000000003  1.0000
  H   H224      1.0  0.74554  0.029110000000000004  0.05448  1.0000
  H   H225      1.0  0.92864  0.08292  0.09046000000000001  1.0000
  H   H226      1.0  0.86941  0.24787  0.15527  1.0000
  H   H227      1.0  0.07926  0.18242  0.1687  1.0000
  H   H228      1.0  0.9578  0.16711  0.16818000000000002  1.0000
  H   H229      1.0  0.96423  0.19137  0.08299  1.0000
  H   H230      1.0  0.08492  0.20479000000000003  0.08678  1.0000
  H   H231      1.0  0.36432  0.16044  0.9594  1.0000
  H   H232      1.0  0.4365  0.11837  0.9233  1.0000
  H   H233      1.0  0.45658  0.93961  0.96836  1.0000
  H   H234      1.0  0.38359  0.98953  0.002700000000000001  1.0000
  H   H235      1.0  0.36609  0.9969999999999999  0.9075900000000001  1.0000
  H   H236      1.0  0.39276  0.91512  0.82974  1.0000
  H   H237      1.0  0.51233  0.9088900000000001  0.83706  1.0000
  H   H238      1.0  0.5836  0.0126  0.9432600000000001  1.0000
  H   H239      1.0  0.61288  0.04791  0.85549  1.0000
  H   H240      1.0  0.65708  0.11754  0.8191800000000002  1.0000
  H   H241      1.0  0.73157  0.94748  0.7793400000000001  1.0000
  H   H242      1.0  0.6713499999999999  0.76815  0.83757  1.0000
  H   H243      1.0  0.81995  0.8848899999999998  0.7999900000000001  1.0000
  H   H244      1.0  0.65784  0.7516  0.7868500000000002  1.0000
  H   H245      1.0  0.7293899999999999  0.6903  0.75468  1.0000
  H   H246      1.0  0.28947  0.76427  0.58639  1.0000
  H   H247      1.0  0.30156  0.7462  0.65721  1.0000
  H   H248      1.0  0.32016  0.00292  0.42495000000000005  1.0000
  H   H249      1.0  0.41816  0.16664  0.39013000000000003  1.0000
  H   H250      1.0  0.6754  0.73317  0.6529400000000001  1.0000
  H   H251      1.0  0.55401  0.74312  0.658  1.0000
  H   H252      1.0  0.55553  0.87296  0.59011  1.0000
  H   H253      1.0  0.67562  0.85919  0.58809  1.0000
  H   H254      1.0  0.46092  0.75461  0.59044  1.0000
  H   H255      1.0  0.52765  0.88527  0.66569  1.0000
  H   H256      1.0  0.34702  0.9549599999999999  0.69908  1.0000
  H   H257      1.0  0.28407  0.89568  0.6646200000000001  1.0000
  H   H258      1.0  0.31349  0.89988  0.58626  1.0000
  H   H259      1.0  0.25446  0.9708499999999999  0.55448  1.0000
  H   H260      1.0  0.07125  0.91716  0.59047  1.0000
  H   H261      1.0  0.13043  0.7523  0.65537  1.0000
  H   H262      1.0  0.9204399999999999  0.81749  0.66869  1.0000
  H   H263      1.0  0.04196  0.8327699999999999  0.66819  1.0000
  H   H264      1.0  0.03539  0.8086799999999998  0.58301  1.0000
  H   H265      1.0  0.91479  0.79524  0.58679  1.0000
  H   H266      1.0  0.63604  0.8397999999999999  0.45938  1.0000
  H   H267      1.0  0.56352  0.88168  0.4233100000000001  1.0000
  H   H268      1.0  0.54352  0.060529999999999994  0.4683  1.0000
  H   H269      1.0  0.61665  0.0107  0.50264  1.0000
  H   H270      1.0  0.63392  0.0030399999999999997  0.40762  1.0000
  H   H271      1.0  0.60716  0.08485  0.32974  1.0000
  H   H272      1.0  0.48759  0.091  0.33707  1.0000
  H   H273      1.0  0.41635  0.98741  0.4432700000000001  1.0000
  H   H274      1.0  0.38727  0.95215  0.3556000000000001  1.0000
  H   H275      1.0  0.34277  0.8822  0.31943  1.0000
  H   H276      1.0  0.2683  0.05217  0.27941  1.0000
  H   H277      1.0  0.32854  0.23173999999999997  0.33757000000000004  1.0000
  H   H278      1.0  0.18042  0.11506  0.30002  1.0000
  H   H279      1.0  0.34261  0.24813000000000002  0.28673  1.0000
  H   H280      1.0  0.27056  0.3103  0.25493  1.0000
  C   C1        1.0  0.64766  0.23466999999999996  0.85967  1.0000
  C   C2        1.0  0.57995  0.22969  0.8572100000000001  1.0000
  C   C3        1.0  0.54483  0.19133  0.8754500000000001  1.0000
  C   C4        1.0  0.58024  0.159  0.8953600000000002  1.0000
  C   C5        1.0  0.648  0.16588  0.8962200000000001  1.0000
  C   C6        1.0  0.47232  0.18632  0.87449  1.0000
  C   C7        1.0  0.43656999999999996  0.21787  0.8940000000000001  1.0000
  C   C8        1.0  0.36749  0.21443999999999996  0.8944  1.0000
  C   C9        1.0  0.33353  0.1794  0.87507  1.0000
  C   C10       1.0  0.3695  0.14613  0.85471  1.0000
  C   C11       1.0  0.43982  0.14926  0.85428  1.0000
  C   C12       1.0  0.47478999999999993  0.11392999999999999  0.8345500000000001  1.0000
  C   C13       1.0  0.44122  0.07785  0.8157300000000001  1.0000
  C   C14       1.0  0.37211  0.07449  0.81581  1.0000
  C   C15       1.0  0.33737  0.10798  0.8350000000000002  1.0000
  C   C16       1.0  0.26096  0.17729  0.8757600000000002  1.0000
  C   C17       1.0  0.22673  0.13646  0.8942  1.0000
  C   C18       1.0  0.2606  0.09754  0.91311  1.0000
  C   C19       1.0  0.22801  0.057109999999999994  0.93062  1.0000
  C   C20       1.0  0.15925  0.05201  0.9288200000000001  1.0000
  C   C21       1.0  0.12411999999999998  0.08855999999999999  0.9106500000000002  1.0000
  C   C22       1.0  0.15653  0.13343  0.89361  1.0000
  C   C23       1.0  0.12207999999999998  0.1746  0.87523  1.0000
  C   C24       1.0  0.15638  0.21455999999999997  0.85791  1.0000
  C   C25       1.0  0.22534  0.21564  0.85797  1.0000
  C   C26       1.0  0.9483  0.18393  0.84981  1.0000
  C   C27       1.0  0.01584  0.17543  0.8502900000000001  1.0000
  C   C28       1.0  0.049819999999999996  0.17801999999999998  0.87454  1.0000
  C   C29       1.0  0.01247  0.18769  0.8976000000000001  1.0000
  C   C30       1.0  0.9452000000000002  0.19613999999999998  0.89567  1.0000
  C   C31       1.0  0.61399  0.11188999999999999  0.03912  1.0000
  C   C32       1.0  0.57374  0.08806  0.05938  1.0000
  C   C33       1.0  0.54707  0.025069999999999995  0.05726  1.0000
  C   C34       1.0  0.56239  0.9888800000000001  0.0344  1.0000
  C   C35       1.0  0.60321  0.0168  0.015260000000000001  1.0000
  C   C36       1.0  0.50505  0.9975299999999999  0.07868  1.0000
  C   C37       1.0  0.53308  0.9753  0.10310000000000002  1.0000
  C   C38       1.0  0.60158  0.97792  0.10766  1.0000
  C   C39       1.0  0.62732  0.95591  0.13139  1.0000
  C   C40       1.0  0.58622  0.93083  0.15154  1.0000
  C   C41       1.0  0.51956  0.92743  0.1474  1.0000
  C   C42       1.0  0.49056999999999995  0.9489799999999999  0.12326  1.0000
  C   C43       1.0  0.42107  0.9456  0.11915  1.0000
  C   C44       1.0  0.39603999999999995  0.96976  0.09526  1.0000
  C   C45       1.0  0.43818999999999997  0.99422  0.07513  1.0000
  C   C46       1.0  0.37854  0.91737  0.14041  1.0000
  C   C47       1.0  0.35181  0.95695  0.1611  1.0000
  C   C48       1.0  0.3609  0.02583  0.16099  1.0000
  C   C49       1.0  0.33716999999999997  0.06484  0.18115000000000003  1.0000
  C   C50       1.0  0.30346  0.03558  0.2026  1.0000
  C   C51       1.0  0.29319  0.96884  0.20363  1.0000
  C   C52       1.0  0.31601  0.92782  0.18281  1.0000
  C   C53       1.0  0.30653  0.85809  0.18307  1.0000
  C   C54       1.0  0.33364  0.82106  0.16277  1.0000
  C   C55       1.0  0.369  0.85008  0.14164000000000002  1.0000
  C   C56       1.0  0.16846  0.80364  0.22755000000000003  1.0000
  C   C57       1.0  0.20272  0.84296  0.20978000000000002  1.0000
  C   C58       1.0  0.26736  0.82364  0.20380000000000004  1.0000
  C   C59       1.0  0.29203  0.76756  0.21688  1.0000
  C   C60       1.0  0.25291  0.73298  0.23468  1.0000
  C   C61       1.0  0.35245  0.7645  0.36051  1.0000
  C   C62       1.0  0.4200400000000001  0.77002  0.3577500000000001  1.0000
  C   C63       1.0  0.45529  0.8088899999999999  0.37574  1.0000
  C   C64       1.0  0.42014  0.84148  0.39565000000000006  1.0000
  C   C65       1.0  0.35245  0.83407  0.39681  1.0000
  C   C66       1.0  0.52779  0.8135099999999998  0.37462  1.0000
  C   C67       1.0  0.56345  0.78082  0.39383  1.0000
  C   C68       1.0  0.63253  0.78371  0.39411000000000007  1.0000
  C   C69       1.0  0.66659  0.81969  0.3751000000000001  1.0000
  C   C70       1.0  0.6306899999999999  0.85384  0.35495000000000004  1.0000
  C   C71       1.0  0.56037  0.85084  0.3545200000000001  1.0000
  C   C72       1.0  0.52545  0.88607  0.33476000000000006  1.0000
  C   C73       1.0  0.55905  0.9220399999999999  0.31592  1.0000
  C   C74       1.0  0.62815  0.9254  0.31603  1.0000
  C   C75       1.0  0.66289  0.89206  0.33527  1.0000
  C   C76       1.0  0.73915  0.8220699999999999  0.37589  1.0000
  C   C77       1.0  0.77324  0.8631  0.3943  1.0000
  C   C78       1.0  0.7393099999999999  0.90214  0.41314  1.0000
  C   C79       1.0  0.7718199999999998  0.9427799999999998  0.43059  1.0000
  C   C80       1.0  0.84057  0.94796  0.42880000000000007  1.0000
  C   C81       1.0  0.8757799999999999  0.91138  0.41069  1.0000
  C   C82       1.0  0.8434599999999999  0.86633  0.3937  1.0000
  C   C83       1.0  0.8780099999999998  0.82518  0.37534  1.0000
  C   C84       1.0  0.8437999999999999  0.78531  0.3579500000000001  1.0000
  C   C85       1.0  0.77482  0.78407  0.35802000000000006  1.0000
  C   C86       1.0  0.05227  0.81568  0.35033  1.0000
  C   C87       1.0  0.98471  0.82426  0.3506000000000001  1.0000
  C   C88       1.0  0.95029  0.82177  0.37475  1.0000
  C   C89       1.0  0.98727  0.81213  0.39792  1.0000
  C   C90       1.0  0.05455999999999999  0.80355  0.3962000000000001  1.0000
  C   C91       1.0  0.38596  0.88805  0.53906  1.0000
  C   C92       1.0  0.42621  0.9118899999999999  0.55932  1.0000
  C   C93       1.0  0.45286  0.9748800000000001  0.55719  1.0000
  C   C94       1.0  0.43752  0.01109  0.53433  1.0000
  C   C95       1.0  0.39672  0.98316  0.51518  1.0000
  C   C96       1.0  0.49484  0.00238  0.5786  1.0000
  C   C97       1.0  0.46686  0.02471  0.60302  1.0000
  C   C98       1.0  0.39837  0.02209  0.60759  1.0000
  C   C99       1.0  0.37266  0.04406  0.63132  1.0000
  C   C100      1.0  0.4138  0.06913  0.65146  1.0000
  C   C101      1.0  0.48046000000000005  0.07253  0.6473  1.0000
  C   C102      1.0  0.5094  0.05101  0.62316  1.0000
  C   C103      1.0  0.5789  0.054369999999999995  0.61903  1.0000
  C   C104      1.0  0.60384  0.030100000000000002  0.59515  1.0000
  C   C105      1.0  0.56169  0.00558  0.57505  1.0000
  C   C106      1.0  0.6214199999999999  0.08268999999999999  0.64027  1.0000
  C   C107      1.0  0.64799  0.04313  0.6610300000000001  1.0000
  C   C108      1.0  0.6388  0.9742399999999999  0.661  1.0000
  C   C109      1.0  0.66252  0.93523  0.68117  1.0000
  C   C110      1.0  0.69633  0.9646  0.7025800000000001  1.0000
  C   C111      1.0  0.70666  0.03133  0.70357  1.0000
  C   C112      1.0  0.68375  0.07227  0.68274  1.0000
  C   C113      1.0  0.6932999999999999  0.14195  0.68295  1.0000
  C   C114      1.0  0.6663  0.17897  0.66261  1.0000
  C   C115      1.0  0.6309199999999999  0.15002  0.64151  1.0000
  C   C116      1.0  0.8314299999999999  0.19663  0.72725  1.0000
  C   C117      1.0  0.79714  0.15711  0.70955  1.0000
  C   C118      1.0  0.73242  0.17643  0.7036300000000001  1.0000
  C   C119      1.0  0.70764  0.23245  0.7166800000000002  1.0000
  C   C120      1.0  0.7468  0.26711  0.73444  1.0000
  C   C121      1.0  0.23671999999999999  0.64637  0.38955  1.0000
  C   C122      1.0  0.23058999999999996  0.57888  0.39223  1.0000
  C   C123      1.0  0.19106  0.54421  0.3743  1.0000
  C   C124      1.0  0.15868  0.5799  0.35448  1.0000
  C   C125      1.0  0.16613  0.64756  0.35359  1.0000
  C   C126      1.0  0.18586999999999998  0.47183  0.37538  1.0000
  C   C127      1.0  0.21766  0.43611000000000005  0.35594  1.0000
  C   C128      1.0  0.21437  0.36716  0.35557000000000005  1.0000
  C   C129      1.0  0.17942  0.33328  0.3749700000000001  1.0000
  C   C130      1.0  0.14594  0.3692  0.39531  1.0000
  C   C131      1.0  0.14891  0.43946  0.39567  1.0000
  C   C132      1.0  0.11376  0.47451999999999994  0.41542  1.0000
  C   C133      1.0  0.07774  0.44102  0.43427  1.0000
  C   C134      1.0  0.07444  0.37195  0.43424  1.0000
  C   C135      1.0  0.10792999999999998  0.33708  0.4150800000000001  1.0000
  C   C136      1.0  0.17741  0.26081  0.37424  1.0000
  C   C137      1.0  0.1366  0.22662  0.35579  1.0000
  C   C138      1.0  0.09762  0.26059  0.33693  1.0000
  C   C139      1.0  0.05709999999999999  0.22805999999999998  0.31943  1.0000
  C   C140      1.0  0.05199  0.15931  0.32121  1.0000
  C   C141      1.0  0.08861  0.12407  0.3393300000000001  1.0000
  C   C142      1.0  0.13363999999999998  0.15645  0.3563200000000001  1.0000
  C   C143      1.0  0.17493  0.12202  0.37465000000000004  1.0000
  C   C144      1.0  0.21487  0.15628  0.39201  1.0000
  C   C145      1.0  0.21585  0.2252  0.39201  1.0000
  C   C146      1.0  0.18394  0.94868  0.40034  1.0000
  C   C147      1.0  0.17540999999999998  0.01613  0.3997300000000001  1.0000
  C   C148      1.0  0.17813  0.04982999999999999  0.37543000000000004  1.0000
  C   C149      1.0  0.18776  0.01221  0.35244  1.0000
  C   C150      1.0  0.19609  0.9449899999999999  0.3545  1.0000
  C   C151      1.0  0.11185  0.61418  0.21079000000000003  1.0000
  C   C152      1.0  0.08823999999999999  0.57375  0.19057  1.0000
  C   C153      1.0  0.0252  0.54705  0.19268000000000002  1.0000
  C   C154      1.0  0.9889800000000001  0.5623  0.21555  1.0000
  C   C155      1.0  0.01664  0.60335  0.23465000000000005  1.0000
  C   C156      1.0  0.9975799999999999  0.50499  0.17128  1.0000
  C   C157      1.0  0.9754599999999999  0.53321  0.14686  1.0000
  C   C158      1.0  0.9779999999999999  0.60165  0.14234  1.0000
  C   C159      1.0  0.95586  0.6274  0.11863  1.0000
  C   C160      1.0  0.93092  0.58631  0.09846  1.0000
  C   C161      1.0  0.92758  0.5197  0.10258  1.0000
  C   C162      1.0  0.94898  0.4907599999999999  0.12676  1.0000
  C   C163      1.0  0.94533  0.4213799999999999  0.13092  1.0000
  C   C164      1.0  0.9692699999999999  0.39607  0.15479  1.0000
  C   C165      1.0  0.99374  0.43823  0.17493  1.0000
  C   C166      1.0  0.91724  0.37892  0.10963  1.0000
  C   C167      1.0  0.9568499999999999  0.35208999999999996  0.08896  1.0000
  C   C168      1.0  0.02578  0.36114  0.08906  1.0000
  C   C169      1.0  0.06481  0.33737  0.06891  1.0000
  C   C170      1.0  0.0355  0.30361  0.04749  1.0000
  C   C171      1.0  0.96868  0.29345  0.04643000000000001  1.0000
  C   C172      1.0  0.9277099999999999  0.31635  0.06725  1.0000
  C   C173      1.0  0.8579799999999999  0.30688  0.06703  1.0000
  C   C174      1.0  0.8208999999999999  0.33377  0.08737  1.0000
  C   C175      1.0  0.8499199999999999  0.36921  0.10840000000000002  1.0000
  C   C176      1.0  0.8035099999999998  0.16839  0.02282  1.0000
  C   C177      1.0  0.84293  0.20308  0.0405  1.0000
  C   C178      1.0  0.82354  0.2678  0.04634000000000001  1.0000
  C   C179      1.0  0.76747  0.29242  0.03327  1.0000
  C   C180      1.0  0.7327399999999998  0.25312  0.015570000000000004  1.0000
  C   C181      1.0  0.76482  0.3523  0.8898900000000001  1.0000
  C   C182      1.0  0.77019  0.41988999999999993  0.89251  1.0000
  C   C183      1.0  0.80877  0.4551  0.8743800000000003  1.0000
  C   C184      1.0  0.84117  0.41978  0.8544700000000002  1.0000
  C   C185      1.0  0.83404  0.3521  0.8534900000000001  1.0000
  C   C186      1.0  0.8133900000000001  0.52758  0.8754400000000001  1.0000
  C   C187      1.0  0.78074  0.56325  0.85621  1.0000
  C   C188      1.0  0.78362  0.63225  0.8559100000000001  1.0000
  C   C189      1.0  0.81962  0.6663  0.8749100000000002  1.0000
  C   C190      1.0  0.8537899999999999  0.63041  0.89508  1.0000
  C   C191      1.0  0.8507599999999998  0.56016  0.89554  1.0000
  C   C192      1.0  0.8860099999999999  0.52524  0.9153  1.0000
  C   C193      1.0  0.9220199999999998  0.55888  0.9341100000000001  1.0000
  C   C194      1.0  0.92533  0.62793  0.9339800000000001  1.0000
  C   C195      1.0  0.89197  0.66266  0.91475  1.0000
  C   C196      1.0  0.8219999999999998  0.73882  0.87414  1.0000
  C   C197      1.0  0.86314  0.77304  0.85579  1.0000
  C   C198      1.0  0.90213  0.73918  0.83691  1.0000
  C   C199      1.0  0.9428000000000001  0.77178  0.81947  1.0000
  C   C200      1.0  0.9479799999999999  0.8405100000000001  0.8213  1.0000
  C   C201      1.0  0.9114999999999999  0.87565  0.83949  1.0000
  C   C202      1.0  0.86649  0.8432  0.8564800000000002  1.0000
  C   C203      1.0  0.82543  0.87762  0.8749100000000002  1.0000
  C   C204      1.0  0.78534  0.84334  0.89219  1.0000
  C   C205      1.0  0.78398  0.77443  0.8920300000000002  1.0000
  C   C206      1.0  0.81617  0.05143  0.9002000000000001  1.0000
  C   C207      1.0  0.82475  0.98395  0.89985  1.0000
  C   C208      1.0  0.82224  0.94979  0.87565  1.0000
  C   C209      1.0  0.8125499999999999  0.98691  0.8525200000000001  1.0000
  C   C210      1.0  0.80412  0.05410000000000001  0.8543300000000001  1.0000
  C   C211      1.0  0.88805  0.38578  0.7109500000000001  1.0000
  C   C212      1.0  0.91169  0.42612  0.69067  1.0000
  C   C213      1.0  0.9747099999999999  0.4529000000000001  0.69274  1.0000
  C   C214      1.0  0.01092  0.43757999999999997  0.7156  1.0000
  C   C215      1.0  0.98321  0.39664  0.73476  1.0000
  C   C216      1.0  0.00237  0.49494999999999995  0.67132  1.0000
  C   C217      1.0  0.024539999999999996  0.46682  0.64689  1.0000
  C   C218      1.0  0.02204  0.39837999999999996  0.64237  1.0000
  C   C219      1.0  0.04411  0.37263  0.61866  1.0000
  C   C220      1.0  0.06905  0.41372999999999993  0.59849  1.0000
  C   C221      1.0  0.07241  0.48034  0.60259  1.0000
  C   C222      1.0  0.05102999999999999  0.50928  0.62677  1.0000
  C   C223      1.0  0.05479  0.57865  0.63095  1.0000
  C   C224      1.0  0.030809999999999997  0.60384  0.6548200000000002  1.0000
  C   C225      1.0  0.006259999999999999  0.56173  0.67496  1.0000
  C   C226      1.0  0.08282  0.6212  0.60965  1.0000
  C   C227      1.0  0.04316  0.64786  0.58893  1.0000
  C   C228      1.0  0.97419  0.63888  0.58904  1.0000
  C   C229      1.0  0.9351  0.66276  0.56891  1.0000
  C   C230      1.0  0.9644299999999999  0.69642  0.54747  1.0000
  C   C231      1.0  0.031239999999999997  0.70669  0.54641  1.0000
  C   C232      1.0  0.07221  0.68368  0.56722  1.0000
  C   C233      1.0  0.1419  0.69321  0.567  1.0000
  C   C234      1.0  0.17906  0.66628  0.58732  1.0000
  C   C235      1.0  0.15016  0.63092  0.60841  1.0000
  C   C236      1.0  0.19620000000000004  0.83227  0.52294  1.0000
  C   C237      1.0  0.15662  0.7972799999999999  0.5406  1.0000
  C   C238      1.0  0.17631  0.7325  0.54638  1.0000
  C   C239      1.0  0.23229  0.7081299999999999  0.53328  1.0000
  C   C240      1.0  0.26702  0.74757  0.51556  1.0000
  C   C241      1.0  0.76479  0.64744  0.6101  1.0000
  C   C242      1.0  0.7702999999999999  0.57988  0.60742  1.0000
  C   C243      1.0  0.8088899999999999  0.54464  0.62553  1.0000
  C   C244      1.0  0.8411299999999999  0.57995  0.6455  1.0000
  C   C245      1.0  0.83404  0.64763  0.6465200000000002  1.0000
  C   C246      1.0  0.81384  0.47217  0.62446  1.0000
  C   C247      1.0  0.78219  0.43641  0.64396  1.0000
  C   C248      1.0  0.7856  0.36742  0.6444  1.0000
  C   C249      1.0  0.82057  0.33348  0.62504  1.0000
  C   C250      1.0  0.85396  0.36945  0.60468  1.0000
  C   C251      1.0  0.85093  0.43972  0.60425  1.0000
  C   C252      1.0  0.8861899999999999  0.47471  0.58449  1.0000
  C   C253      1.0  0.9222  0.44112999999999997  0.56567  1.0000
  C   C254      1.0  0.9255  0.37206  0.56576  1.0000
  C   C255      1.0  0.8920199999999999  0.33728  0.58495  1.0000
  C   C256      1.0  0.82274  0.26095  0.62578  1.0000
  C   C257      1.0  0.86356  0.22672  0.64422  1.0000
  C   C258      1.0  0.90249  0.26058  0.66314  1.0000
  C   C259      1.0  0.9429299999999999  0.22793  0.6806100000000003  1.0000
  C   C260      1.0  0.94802  0.15923  0.67881  1.0000
  C   C261      1.0  0.9114999999999999  0.12413  0.66061  1.0000
  C   C262      1.0  0.86657  0.15653  0.6436000000000001  1.0000
  C   C263      1.0  0.82535  0.12206999999999998  0.6252200000000001  1.0000
  C   C264      1.0  0.78538  0.15639  0.6079  1.0000
  C   C265      1.0  0.7843899999999999  0.22531999999999996  0.60799  1.0000
  C   C266      1.0  0.8157999999999999  0.94826  0.5998700000000001  1.0000
  C   C267      1.0  0.82449  0.01574  0.6003  1.0000
  C   C268      1.0  0.8219399999999999  0.04984  0.62452  1.0000
  C   C269      1.0  0.81225  0.012569999999999998  0.6476  1.0000
  C   C270      1.0  0.80367  0.94536  0.6457300000000002  1.0000
  C   C271      1.0  0.8880699999999999  0.6142  0.7891300000000002  1.0000
  C   C272      1.0  0.91175  0.57382  0.8093800000000002  1.0000
  C   C273      1.0  0.97475  0.54708  0.80729  1.0000
  C   C274      1.0  0.01092  0.56241  0.7844  1.0000
  C   C275      1.0  0.98325  0.60344  0.76528  1.0000
  C   C276      1.0  0.0024  0.50502  0.82869  1.0000
  C   C277      1.0  0.02459  0.53316  0.85312  1.0000
  C   C278      1.0  0.02205  0.60159  0.8576600000000002  1.0000
  C   C279      1.0  0.04416  0.62734  0.88137  1.0000
  C   C280      1.0  0.06912  0.58623  0.90153  1.0000
  C   C281      1.0  0.07245  0.51963  0.89741  1.0000
  C   C282      1.0  0.05108  0.4907  0.8732300000000001  1.0000
  C   C283      1.0  0.05477  0.42133  0.86907  1.0000
  C   C284      1.0  0.03083  0.39612  0.8451800000000003  1.0000
  C   C285      1.0  0.00629  0.43826000000000004  0.82505  1.0000
  C   C286      1.0  0.08282  0.37876  0.89036  1.0000
  C   C287      1.0  0.04316  0.35203  0.91107  1.0000
  C   C288      1.0  0.97419  0.36101  0.9109800000000001  1.0000
  C   C289      1.0  0.93516  0.33722  0.93114  1.0000
  C   C290      1.0  0.96449  0.30365  0.95261  1.0000
  C   C291      1.0  0.03127  0.2933  0.9536300000000002  1.0000
  C   C292      1.0  0.07225  0.31619  0.9328000000000001  1.0000
  C   C293      1.0  0.14199  0.30659  0.93304  1.0000
  C   C294      1.0  0.17902  0.33355  0.91269  1.0000
  C   C295      1.0  0.1501  0.36898  0.8916  1.0000
  C   C296      1.0  0.19689  0.16844  0.9773000000000001  1.0000
  C   C297      1.0  0.15731999999999996  0.20272  0.95963  1.0000
  C   C298      1.0  0.17647999999999997  0.26743  0.95372  1.0000
  C   C299      1.0  0.23253000000000001  0.29234  0.96675  1.0000
  C   C300      1.0  0.26732  0.25325  0.9844600000000002  1.0000
  C   C301      1.0  0.23539  0.35264  0.11008  1.0000
  C   C302      1.0  0.23022  0.42026  0.10755000000000003  1.0000
  C   C303      1.0  0.19143  0.45530999999999994  0.12563  1.0000
  C   C304      1.0  0.15879999999999997  0.41986  0.14547000000000002  1.0000
  C   C305      1.0  0.16595  0.35218  0.14642  1.0000
  C   C306      1.0  0.18673  0.52778  0.1246  1.0000
  C   C307      1.0  0.21938  0.56345  0.14384  1.0000
  C   C308      1.0  0.21633000000000002  0.63243  0.14416  1.0000
  C   C309      1.0  0.18042  0.66653  0.12516000000000002  1.0000
  C   C310      1.0  0.14626  0.63063  0.10499  1.0000
  C   C311      1.0  0.14925  0.56036  0.10454000000000001  1.0000
  C   C312      1.0  0.11396999999999999  0.52544  0.08478  1.0000
  C   C313      1.0  0.07805  0.5591  0.06595  1.0000
  C   C314      1.0  0.07476  0.62815  0.06608  1.0000
  C   C315      1.0  0.10809999999999999  0.66288  0.08532  1.0000
  C   C316      1.0  0.17808  0.73908  0.12593  1.0000
  C   C317      1.0  0.1369  0.77329  0.14425  1.0000
  C   C318      1.0  0.09787  0.73942  0.16313  1.0000
  C   C319      1.0  0.05719  0.77201  0.18053000000000002  1.0000
  C   C320      1.0  0.05208  0.8407099999999998  0.17871  1.0000
  C   C321      1.0  0.08856  0.87589  0.16052000000000002  1.0000
  C   C322      1.0  0.13358  0.8434699999999999  0.14354  1.0000
  C   C323      1.0  0.17473  0.8779299999999999  0.12512  1.0000
  C   C324      1.0  0.21473  0.8436499999999999  0.10782000000000003  1.0000
  C   C325      1.0  0.21604999999999996  0.77471  0.10801000000000001  1.0000
  C   C326      1.0  0.18417999999999998  0.0518  0.09977000000000001  1.0000
  C   C327      1.0  0.17557  0.98431  0.10016000000000003  1.0000
  C   C328      1.0  0.178  0.9501599999999999  0.12437  1.0000
  C   C329      1.0  0.18762  0.98736  0.14746000000000004  1.0000
  C   C330      1.0  0.19609  0.05457  0.14565  1.0000
  C   C331      1.0  0.11187  0.38586  0.2891  1.0000
  C   C332      1.0  0.0882  0.42619  0.30936  1.0000
  C   C333      1.0  0.025209999999999996  0.45297  0.30729  1.0000
  C   C334      1.0  0.9890099999999998  0.43764  0.28444  1.0000
  C   C335      1.0  0.01669  0.39672999999999997  0.26527  1.0000
  C   C336      1.0  0.9976  0.49503  0.3287  1.0000
  C   C337      1.0  0.9754399999999999  0.46685999999999994  0.35312000000000004  1.0000
  C   C338      1.0  0.9779400000000001  0.39842  0.35766000000000003  1.0000
  C   C339      1.0  0.95584  0.37264  0.3813700000000001  1.0000
  C   C340      1.0  0.9309  0.41369999999999996  0.40154  1.0000
  C   C341      1.0  0.92757  0.48031  0.39742  1.0000
  C   C342      1.0  0.94896  0.50927  0.37324000000000007  1.0000
  C   C343      1.0  0.94522  0.57864  0.36905  1.0000
  C   C344      1.0  0.96915  0.60384  0.34518000000000004  1.0000
  C   C345      1.0  0.99372  0.56181  0.32504  1.0000
  C   C346      1.0  0.9171199999999999  0.62116  0.39034  1.0000
  C   C347      1.0  0.95671  0.64787  0.41106  1.0000
  C   C348      1.0  0.02568  0.63883  0.4110000000000001  1.0000
  C   C349      1.0  0.06467  0.66257  0.4311800000000001  1.0000
  C   C350      1.0  0.03527  0.6962  0.45262  1.0000
  C   C351      1.0  0.9684799999999999  0.70655  0.45361  1.0000
  C   C352      1.0  0.92754  0.68368  0.43277  1.0000
  C   C353      1.0  0.8577899999999999  0.69327  0.433  1.0000
  C   C354      1.0  0.82088  0.66625  0.4126300000000001  1.0000
  C   C355      1.0  0.8498399999999999  0.63087  0.3915600000000001  1.0000
  C   C356      1.0  0.80244  0.8310399999999999  0.4773700000000001  1.0000
  C   C357      1.0  0.84215  0.797  0.45966  1.0000
  C   C358      1.0  0.82316  0.73226  0.4537  1.0000
  C   C359      1.0  0.76716  0.70713  0.4666900000000001  1.0000
  C   C360      1.0  0.73229  0.74609  0.48444  1.0000
  C   C361      1.0  0.35274  0.23504  0.14016  1.0000
  C   C362      1.0  0.4204  0.22969  0.14272  1.0000
  C   C363      1.0  0.45543  0.19123  0.12451  1.0000
  C   C364      1.0  0.41998  0.15897  0.1046  1.0000
  C   C365      1.0  0.35225  0.16599  0.10372000000000003  1.0000
  C   C366      1.0  0.52788  0.18616  0.12545  1.0000
  C   C367      1.0  0.56357  0.21755999999999998  0.10588  1.0000
  C   C368      1.0  0.63266  0.21413  0.1055  1.0000
  C   C369      1.0  0.66661  0.17928  0.1249  1.0000
  C   C370      1.0  0.63068  0.14609  0.14529  1.0000
  C   C371      1.0  0.56038  0.14923  0.14572  1.0000
  C   C372      1.0  0.52539  0.11402  0.16548  1.0000
  C   C373      1.0  0.55885  0.07791999999999999  0.18432  1.0000
  C   C374      1.0  0.6279299999999999  0.0746  0.18424  1.0000
  C   C375      1.0  0.66276  0.10807  0.16506000000000004  1.0000
  C   C376      1.0  0.73911  0.17725  0.12418  1.0000
  C   C377      1.0  0.77331  0.1364  0.10577000000000003  1.0000
  C   C378      1.0  0.73944  0.09744  0.08688  1.0000
  C   C379      1.0  0.7720499999999999  0.05702  0.06939  1.0000
  C   C380      1.0  0.8408199999999999  0.05198  0.07119  1.0000
  C   C381      1.0  0.87592  0.08855999999999999  0.08936  1.0000
  C   C382      1.0  0.8435  0.13341  0.10639  1.0000
  C   C383      1.0  0.87789  0.17464  0.12476  1.0000
  C   C384      1.0  0.8436  0.21457  0.14207  1.0000
  C   C385      1.0  0.7746399999999999  0.2156  0.142  1.0000
  C   C386      1.0  0.05161999999999999  0.18418  0.15014000000000002  1.0000
  C   C387      1.0  0.9840899999999999  0.17557  0.14968  1.0000
  C   C388      1.0  0.95009  0.17813  0.12544  1.0000
  C   C389      1.0  0.98737  0.18782  0.10236  1.0000
  C   C390      1.0  0.054619999999999995  0.19625  0.10427  1.0000
  C   C391      1.0  0.3859099999999999  0.1118  0.96086  1.0000
  C   C392      1.0  0.42622999999999994  0.08808  0.94062  1.0000
  C   C393      1.0  0.45287  0.02508  0.94276  1.0000
  C   C394      1.0  0.43757  0.98886  0.96562  1.0000
  C   C395      1.0  0.39666  0.01668  0.9847400000000001  1.0000
  C   C396      1.0  0.49487000000000003  0.99763  0.92134  1.0000
  C   C397      1.0  0.46692999999999996  0.9752899999999999  0.8969200000000003  1.0000
  C   C398      1.0  0.39845  0.9779  0.8923600000000002  1.0000
  C   C399      1.0  0.37270999999999993  0.9559200000000001  0.8686300000000002  1.0000
  C   C400      1.0  0.41384  0.9307900000000001  0.84851  1.0000
  C   C401      1.0  0.48051  0.9274  0.85267  1.0000
  C   C402      1.0  0.5095  0.949  0.87679  1.0000
  C   C403      1.0  0.5789899999999999  0.94569  0.8809300000000001  1.0000
  C   C404      1.0  0.60392  0.96996  0.90482  1.0000
  C   C405      1.0  0.56169  0.9944499999999998  0.92491  1.0000
  C   C406      1.0  0.62156  0.9173800000000001  0.8596900000000002  1.0000
  C   C407      1.0  0.64816  0.9569  0.8389100000000003  1.0000
  C   C408      1.0  0.63902  0.02576  0.83895  1.0000
  C   C409      1.0  0.66268  0.06475  0.81875  1.0000
  C   C410      1.0  0.69628  0.03539  0.7973100000000001  1.0000
  C   C411      1.0  0.70672  0.9686899999999999  0.79635  1.0000
  C   C412      1.0  0.6839  0.92777  0.81721  1.0000
  C   C413      1.0  0.6934  0.8581100000000002  0.8170300000000001  1.0000
  C   C414      1.0  0.66636  0.82106  0.8373600000000001  1.0000
  C   C415      1.0  0.63104  0.85005  0.8584500000000002  1.0000
  C   C416      1.0  0.83173  0.8039999999999999  0.7724200000000001  1.0000
  C   C417      1.0  0.79721  0.8431699999999999  0.7903700000000002  1.0000
  C   C418      1.0  0.73243  0.8236000000000001  0.7963300000000001  1.0000
  C   C419      1.0  0.70788  0.76765  0.7832600000000002  1.0000
  C   C420      1.0  0.74692  0.73312  0.76533  1.0000
  C   C421      1.0  0.64683  0.76335  0.63941  1.0000
  C   C422      1.0  0.57928  0.7694399999999999  0.6422200000000001  1.0000
  C   C423      1.0  0.54438  0.80885  0.62431  1.0000
  C   C424      1.0  0.57983  0.84135  0.60446  1.0000
  C   C425      1.0  0.64748  0.8336299999999999  0.60334  1.0000
  C   C426      1.0  0.47194  0.8141  0.62537  1.0000
  C   C427      1.0  0.43622  0.78256  0.6058500000000001  1.0000
  C   C428      1.0  0.36715  0.78589  0.60548  1.0000
  C   C429      1.0  0.33324  0.8207099999999999  0.6249  1.0000
  C   C430      1.0  0.36919  0.8539900000000001  0.64526  1.0000
  C   C431      1.0  0.43949999999999995  0.8509599999999999  0.64565  1.0000
  C   C432      1.0  0.47452  0.88613  0.66542  1.0000
  C   C433      1.0  0.44107999999999997  0.92219  0.6842700000000003  1.0000
  C   C434      1.0  0.37198  0.9254600000000001  0.68421  1.0000
  C   C435      1.0  0.33713  0.89196  0.66504  1.0000
  C   C436      1.0  0.26074  0.82267  0.62421  1.0000
  C   C437      1.0  0.22652  0.8635199999999998  0.60579  1.0000
  C   C438      1.0  0.26044  0.90245  0.5869  1.0000
  C   C439      1.0  0.22791  0.9429  0.56939  1.0000
  C   C440      1.0  0.15913  0.94803  0.57121  1.0000
  C   C441      1.0  0.12396999999999998  0.91147  0.58937  1.0000
  C   C442      1.0  0.15633  0.8665199999999998  0.60639  1.0000
  C   C443      1.0  0.12191999999999999  0.82529  0.62475  1.0000
  C   C444      1.0  0.15625  0.78544  0.6421  1.0000
  C   C445      1.0  0.22519999999999998  0.78439  0.64204  1.0000
  C   C446      1.0  0.9481300000000001  0.81584  0.65014  1.0000
  C   C447      1.0  0.01566  0.8244  0.64969  1.0000
  C   C448      1.0  0.04968  0.82187  0.62546  1.0000
  C   C449      1.0  0.01232  0.8122199999999999  0.6023900000000001  1.0000
  C   C450      1.0  0.94504  0.8037899999999999  0.6043  1.0000
  C   C451      1.0  0.61437  0.88839  0.46082  1.0000
  C   C452      1.0  0.57388  0.91199  0.44061  1.0000
  C   C453      1.0  0.5471799999999999  0.97496  0.44276  1.0000
  C   C454      1.0  0.5625599999999998  0.01129  0.4655800000000001  1.0000
  C   C455      1.0  0.60362  0.9835499999999999  0.48467  1.0000
  C   C456      1.0  0.5051  0.00236  0.42136  1.0000
  C   C457      1.0  0.53309  0.02469  0.39694  1.0000
  C   C458      1.0  0.60156  0.02208  0.39238000000000006  1.0000
  C   C459      1.0  0.62726  0.04407  0.36864  1.0000
  C   C460      1.0  0.58612  0.06918  0.34852  1.0000
  C   C461      1.0  0.51945  0.07253  0.35267  1.0000
  C   C462      1.0  0.49052  0.050940000000000006  0.37681  1.0000
  C   C463      1.0  0.42104  0.05423  0.38093  1.0000
  C   C464      1.0  0.39603  0.029939999999999998  0.40481  1.0000
  C   C465      1.0  0.43829  0.00555  0.4249100000000001  1.0000
  C   C466      1.0  0.37856  0.0825  0.35966  1.0000
  C   C467      1.0  0.35185  0.04295  0.3389400000000001  1.0000
  C   C468      1.0  0.36096  0.97409  0.33905  1.0000
  C   C469      1.0  0.33715  0.9349999999999999  0.31892000000000004  1.0000
  C   C470      1.0  0.30327  0.9642699999999998  0.29752  1.0000
  C   C471      1.0  0.2932  0.03104  0.29643  1.0000
  C   C472      1.0  0.31619  0.07207  0.31722  1.0000
  C   C473      1.0  0.30685  0.14175  0.317  1.0000
  C   C474      1.0  0.33379999999999993  0.17885  0.33733  1.0000
  C   C475      1.0  0.3691  0.14982  0.35843  1.0000
  C   C476      1.0  0.16825  0.19669  0.27277  1.0000
  C   C477      1.0  0.20301999999999998  0.15693  0.29043  1.0000
  C   C478      1.0  0.26788  0.17634  0.29629  1.0000
  C   C479      1.0  0.29246  0.23231999999999997  0.28324  1.0000
  C   C480      1.0  0.25316  0.26733  0.26554000000000005  1.0000
  N   N1        1.0  0.68146  0.20312  0.87886  1.0000
  N   N2        1.0  0.91329  0.19498  0.87215  1.0000
  N   N3        1.0  0.62899  0.07701  0.01723  1.0000
  N   N4        1.0  0.19042  0.75281  0.23931000000000002  1.0000
  N   N5        1.0  0.78134  0.21286999999999998  0.93968  1.0000
  N   N6        1.0  0.31886  0.7961399999999998  0.37972  1.0000
  N   N7        1.0  0.08689  0.80462  0.37279  1.0000
  N   N8        1.0  0.37099  0.92292  0.51716  1.0000
  N   N9        1.0  0.80939  0.24743999999999997  0.73899  1.0000
  N   N10       1.0  0.21859999999999996  0.78507  0.44042  1.0000
  N   N11       1.0  0.20454999999999998  0.68067  0.37067  1.0000
  N   N12       1.0  0.19497  0.91333  0.37808  1.0000
  N   N13       1.0  0.07678  0.62935  0.23258000000000004  1.0000
  N   N14       1.0  0.75243  0.1906  0.011050000000000004  1.0000
  N   N15       1.0  0.21438  0.78155  0.31053  1.0000
  N   N16       1.0  0.7964199999999999  0.31854  0.87071  1.0000
  N   N17       1.0  0.8051999999999999  0.08623  0.8777800000000002  1.0000
  N   N18       1.0  0.9229799999999999  0.37075  0.7328  1.0000
  N   N19       1.0  0.24723999999999996  0.81024  0.51119  1.0000
  N   N20       1.0  0.7872  0.21458  0.81035  1.0000
  N   N21       1.0  0.79637  0.6812  0.6293  1.0000
  N   N22       1.0  0.80466  0.91334  0.6222500000000001  1.0000
  N   N23       1.0  0.9230800000000001  0.62937  0.7673  1.0000
  N   N24       1.0  0.24774  0.19067  0.98902  1.0000
  N   N25       1.0  0.7852599999999998  0.7807  0.68924  1.0000
  N   N26       1.0  0.20362  0.31878  0.12919  1.0000
  N   N27       1.0  0.1951  0.08667  0.12218  1.0000
  N   N28       1.0  0.07692  0.37085  0.26723  1.0000
  N   N29       1.0  0.75177  0.8087099999999999  0.48906  1.0000
  N   N30       1.0  0.21277  0.21668  0.18972000000000006  1.0000
  N   N31       1.0  0.31884  0.20349  0.12100000000000002  1.0000
  N   N32       1.0  0.08659  0.19518  0.12777  1.0000
  N   N33       1.0  0.37084  0.07685  0.98269  1.0000
  N   N34       1.0  0.80942  0.75309  0.7605900000000001  1.0000
  N   N35       1.0  0.21807  0.2133  0.06032  1.0000
  N   N36       1.0  0.68079  0.7952099999999999  0.62034  1.0000
  N   N37       1.0  0.91306  0.80487  0.62779  1.0000
  N   N38       1.0  0.6295  0.9234299999999999  0.48261  1.0000
  N   N39       1.0  0.19043  0.24779000000000004  0.26106  1.0000
  N   N40       1.0  0.78103  0.7869700000000001  0.56032  1.0000
  Cl  Cl1       1.0  0.4842699999999999  0.03429  0.79164  1.0000
  Cl  Cl2       1.0  0.11823999999999998  0.99927  0.95026  1.0000
  Cl  Cl3       1.0  0.7116099999999999  0.9583999999999999  0.13667  1.0000
  Cl  Cl4       1.0  0.27384  0.08611  0.2278  1.0000
  Cl  Cl5       1.0  0.51606  0.9654099999999999  0.29176  1.0000
  Cl  Cl6       1.0  0.88154  0.0007299999999999999  0.4502300000000001  1.0000
  Cl  Cl7       1.0  0.28837  0.04163  0.63661  1.0000
  Cl  Cl8       1.0  0.72657  0.9140999999999999  0.72768  1.0000
  Cl  Cl9       1.0  0.03432  0.48413999999999996  0.4583600000000001  1.0000
  Cl  Cl10      1.0  0.99916  0.11839  0.29976  1.0000
  Cl  Cl11      1.0  0.9582799999999999  0.7116  0.11338  1.0000
  Cl  Cl12      1.0  0.086  0.27361  0.02234  1.0000
  Cl  Cl13      1.0  0.9654999999999999  0.51591  0.95824  1.0000
  Cl  Cl14      1.0  0.00067  0.88158  0.79983  1.0000
  Cl  Cl15      1.0  0.04169  0.28842  0.61342  1.0000
  Cl  Cl16      1.0  0.9139399999999999  0.72657  0.52233  1.0000
  Cl  Cl17      1.0  0.96576  0.48422999999999994  0.5416  1.0000
  Cl  Cl18      1.0  0.0006299999999999999  0.11814  0.7002900000000002  1.0000
  Cl  Cl19      1.0  0.04172  0.71154  0.88663  1.0000
  Cl  Cl20      1.0  0.91397  0.27391  0.97782  1.0000
  Cl  Cl21      1.0  0.03464  0.5161  0.04181  1.0000
  Cl  Cl22      1.0  0.99946  0.8817799999999999  0.20019000000000003  1.0000
  Cl  Cl23      1.0  0.9582499999999999  0.28843  0.38662  1.0000
  Cl  Cl24      1.0  0.08573  0.72612  0.47781  1.0000
  Cl  Cl25      1.0  0.51571  0.03422  0.20836000000000002  1.0000
  Cl  Cl26      1.0  0.8818199999999999  0.99934  0.04972  1.0000
  Cl  Cl27      1.0  0.28843  0.9583  0.86333  1.0000
  Cl  Cl28      1.0  0.72588  0.0858  0.77206  1.0000
  Cl  Cl29      1.0  0.48422  0.96571  0.70835  1.0000
  Cl  Cl30      1.0  0.11819999999999999  0.00075  0.54974  1.0000
  Cl  Cl31      1.0  0.71154  0.04169  0.36335  1.0000
  Cl  Cl32      1.0  0.27303  0.9136899999999999  0.27245  1.0000
  O   O1        1.0  0.33662  0.24598000000000003  0.91492  1.0000
  O   O2        1.0  0.25439  0.25653  0.8399700000000001  1.0000
  O   O3        1.0  0.32986  0.9700300000000001  0.09118000000000001  1.0000
  O   O4        1.0  0.39305  0.8078899999999999  0.12288000000000002  1.0000
  O   O5        1.0  0.73341  0.24284  0.94935  1.0000
  O   O6        1.0  0.8018599999999999  0.15924  0.94881  1.0000
  O   O7        1.0  0.8116  0.23789  0.91911  1.0000
  O   O8        1.0  0.6630699999999999  0.75052  0.41425  1.0000
  O   O9        1.0  0.74571  0.74353  0.33992000000000006  1.0000
  O   O10       1.0  0.6699999999999999  0.02949  0.5911200000000001  1.0000
  O   O11       1.0  0.60685  0.19234  0.6228000000000001  1.0000
  O   O12       1.0  0.26369  0.75685  0.4526800000000001  1.0000
  O   O13       1.0  0.19733999999999996  0.84091  0.44717  1.0000
  O   O14       1.0  0.19284999999999997  0.75639  0.4197200000000001  1.0000
  O   O15       1.0  0.24606  0.33631  0.33508  1.0000
  O   O16       1.0  0.25634  0.25432  0.4101  1.0000
  O   O17       1.0  0.9688499999999999  0.32991  0.15875  1.0000
  O   O18       1.0  0.8077099999999999  0.39310000000000006  0.12716  1.0000
  O   O19       1.0  0.24683  0.73602  0.30054  1.0000
  O   O20       1.0  0.15973  0.79964  0.30138  1.0000
  O   O21       1.0  0.23728999999999997  0.81157  0.33157  1.0000
  O   O22       1.0  0.75044  0.66287  0.8357700000000002  1.0000
  O   O23       1.0  0.74357  0.74525  0.9101400000000001  1.0000
  O   O24       1.0  0.031229999999999997  0.67007  0.6587400000000001  1.0000
  O   O25       1.0  0.1924  0.60695  0.62713  1.0000
  O   O26       1.0  0.75783  0.26264  0.80041  1.0000
  O   O27       1.0  0.8408199999999999  0.19386  0.8012400000000001  1.0000
  O   O28       1.0  0.7618  0.18572  0.83111  1.0000
  O   O29       1.0  0.75398  0.33655  0.66494  1.0000
  O   O30       1.0  0.74357  0.25446  0.5899800000000001  1.0000
  O   O31       1.0  0.031229999999999997  0.32994  0.84125  1.0000
  O   O32       1.0  0.19243  0.39303999999999994  0.87287  1.0000
  O   O33       1.0  0.75481  0.73383  0.6994400000000002  1.0000
  O   O34       1.0  0.8411  0.79889  0.6972900000000001  1.0000
  O   O35       1.0  0.7593  0.81207  0.66922  1.0000
  O   O36       1.0  0.24955999999999998  0.66307  0.16429  1.0000
  O   O37       1.0  0.25644  0.74549  0.08989  1.0000
  O   O38       1.0  0.96876  0.67011  0.34126000000000006  1.0000
  O   O39       1.0  0.80755  0.60685  0.37282000000000004  1.0000
  O   O40       1.0  0.24081  0.26575  0.19955  1.0000
  O   O41       1.0  0.15955  0.19473  0.19894  1.0000
  O   O42       1.0  0.23877999999999996  0.18779  0.1692  1.0000
  O   O43       1.0  0.66345  0.24527  0.08488  1.0000
  O   O44       1.0  0.7455899999999999  0.25641  0.15999  1.0000
  O   O45       1.0  0.67003  0.97077  0.90886  1.0000
  O   O46       1.0  0.6069  0.80777  0.87716  1.0000
  O   O47       1.0  0.26437  0.24449  0.05017000000000001  1.0000
  O   O48       1.0  0.19912999999999997  0.15848  0.05158  1.0000
  O   O49       1.0  0.18797  0.23757  0.08098000000000001  1.0000
  O   O50       1.0  0.33637999999999996  0.75468  0.58489  1.0000
  O   O51       1.0  0.25429  0.74365  0.6600500000000001  1.0000
  O   O52       1.0  0.3299  0.02897  0.40881000000000006  1.0000
  O   O53       1.0  0.39314  0.19202  0.37718  1.0000
  O   O54       1.0  0.7342099999999999  0.75539  0.55043  1.0000
  O   O55       1.0  0.7987999999999998  0.8417600000000001  0.5514  1.0000
  O   O56       1.0  0.8121000000000002  0.76266  0.5807  1.0000
