data_image0
_chemical_formula_structural       Zn12H180C276N24O60
_chemical_formula_sum              "Zn12 H180 C276 N24 O60"
_cell_length_a       22.76668
_cell_length_b       24.28258
_cell_length_c       25.65477
_cell_angle_alpha    66.78491
_cell_angle_beta     81.71428999999999
_cell_angle_gamma    87.24754

_space_group_name_H-M_alt    "P 1"
_space_group_IT_number       1

loop_
  _space_group_symop_operation_xyz
  'x, y, z'

loop_
  _atom_site_type_symbol
  _atom_site_label
  _atom_site_symmetry_multiplicity
  _atom_site_fract_x
  _atom_site_fract_y
  _atom_site_fract_z
  _atom_site_occupancy
  Zn  Zn1       1.0  0.7727  0.16172  0.5073000000000001  1.0000
  Zn  Zn2       1.0  0.62345  0.13798000000000002  0.53945  1.0000
  Zn  Zn3       1.0  0.7093999999999998  0.50045  0.8986400000000002  1.0000
  Zn  Zn4       1.0  0.5627299999999998  0.47413999999999995  0.9166600000000001  1.0000
  Zn  Zn5       1.0  0.8797399999999999  0.15207999999999997  0.7095100000000001  1.0000
  Zn  Zn6       1.0  0.016029999999999985  0.18980999999999998  0.6766200000000001  1.0000
  Zn  Zn7       1.0  0.12026  0.8479300000000001  0.29048  1.0000
  Zn  Zn8       1.0  0.9839699999999999  0.8102000000000001  0.32338  1.0000
  Zn  Zn9       1.0  0.22729999999999992  0.8382900000000002  0.4927  1.0000
  Zn  Zn10      1.0  0.37654000000000004  0.8620299999999999  0.4605500000000001  1.0000
  Zn  Zn11      1.0  0.29059  0.4995600000000001  0.10136000000000003  1.0000
  Zn  Zn12      1.0  0.43727  0.52587  0.08333000000000002  1.0000
  H   H1        1.0  0.05076999999999997  0.23565000000000003  0.51339  1.0000
  H   H2        1.0  0.32785999999999993  0.1587  0.52374  1.0000
  H   H3        1.0  0.9932899999999999  0.41320999999999997  0.91697  1.0000
  H   H4        1.0  0.27732  0.4037400000000001  0.0147  1.0000
  H   H5        1.0  0.13497  0.17758999999999997  0.5351100000000001  1.0000
  H   H6        1.0  0.24037000000000006  0.17923  0.54697  1.0000
  H   H7        1.0  0.2787  0.3079900000000001  0.37313  1.0000
  H   H8        1.0  0.17249999999999996  0.30148  0.35961  1.0000
  H   H9        1.0  0.84964  0.20777000000000004  0.56547  1.0000
  H   H10       1.0  0.9557699999999999  0.23162000000000002  0.5581500000000001  1.0000
  H   H11       1.0  0.9894  0.18403000000000003  0.41077  1.0000
  H   H12       1.0  0.8817  0.15764  0.4271  1.0000
  H   H13       1.0  0.5060200000000001  0.06816  0.57334  1.0000
  H   H14       1.0  0.40018999999999993  0.08823999999999994  0.5585900000000001  1.0000
  H   H15       1.0  0.44816  0.27512999999999993  0.4642000000000001  1.0000
  H   H16       1.0  0.55165  0.24742000000000003  0.4857000000000001  1.0000
  H   H17       1.0  0.07795  0.38603000000000004  0.06513000000000001  1.0000
  H   H18       1.0  0.18730999999999998  0.3765000000000001  0.04676  1.0000
  H   H19       1.0  0.17889  0.4479099999999999  0.86537  1.0000
  H   H20       1.0  0.07032000000000001  0.4618300000000001  0.88347  1.0000
  H   H21       1.0  0.81086  0.4412599999999999  0.8516100000000002  1.0000
  H   H22       1.0  0.9152799999999999  0.41184999999999994  0.86829  1.0000
  H   H23       1.0  0.8880099999999999  0.4719100000000001  0.007910000000000002  1.0000
  H   H24       1.0  0.7853099999999997  0.5006400000000001  0.98343  1.0000
  H   H25       1.0  0.46976  0.46784000000000003  0.85001  1.0000
  H   H26       1.0  0.36232  0.43971  0.86777  1.0000
  H   H27       1.0  0.36642  0.40396  0.04628  1.0000
  H   H28       1.0  0.4735999999999999  0.4284400000000001  0.0221  1.0000
  H   H29       1.0  0.80163  0.9400700000000002  0.54002  1.0000
  H   H30       1.0  0.7934599999999998  0.83582  0.6143400000000001  1.0000
  H   H31       1.0  0.7260200000000001  0.90495  0.7420700000000001  1.0000
  H   H32       1.0  0.73584  0.008030000000000004  0.66796  1.0000
  H   H33       1.0  0.71138  0.6597  0.74966  1.0000
  H   H34       1.0  0.7224000000000002  0.7631800000000002  0.6742500000000002  1.0000
  H   H35       1.0  0.78081  0.8252  0.7938300000000001  1.0000
  H   H36       1.0  0.7682999999999999  0.7218300000000001  0.8694000000000001  1.0000
  H   H37       1.0  0.6386599999999998  0.9423300000000002  0.57258  1.0000
  H   H38       1.0  0.6282899999999999  0.8317300000000002  0.6256700000000001  1.0000
  H   H39       1.0  0.55468  0.85831  0.77833  1.0000
  H   H40       1.0  0.5686899999999998  0.9681800000000002  0.7255700000000002  1.0000
  H   H41       1.0  0.5550899999999999  0.64126  0.72453  1.0000
  H   H42       1.0  0.56589  0.75135  0.6674200000000001  1.0000
  H   H43       1.0  0.60262  0.7752599999999998  0.8173800000000001  1.0000
  H   H44       1.0  0.59029  0.6660599999999998  0.8735400000000002  1.0000
  H   H45       1.0  0.77809  0.27756  0.5938  1.0000
  H   H46       1.0  0.7708100000000002  0.32641  0.6619  1.0000
  H   H47       1.0  0.58231  0.28811  0.70231  1.0000
  H   H48       1.0  0.59106  0.24028  0.63321  1.0000
  H   H49       1.0  0.5672399999999999  0.3769600000000001  0.8218500000000002  1.0000
  H   H50       1.0  0.5752  0.3297800000000001  0.75214  1.0000
  H   H51       1.0  0.76561  0.35505000000000003  0.7232300000000003  1.0000
  H   H52       1.0  0.7555900000000002  0.40504000000000007  0.79101  1.0000
  H   H53       1.0  0.77596  0.24713000000000002  0.32538000000000006  1.0000
  H   H54       1.0  0.7571899999999999  0.30995  0.22598  1.0000
  H   H55       1.0  0.56968  0.30568  0.28539  1.0000
  H   H56       1.0  0.58907  0.23913000000000012  0.38341  1.0000
  H   H57       1.0  0.7220499999999999  0.4545300000000001  0.06517  1.0000
  H   H58       1.0  0.73554  0.3984700000000001  0.16699  1.0000
  H   H59       1.0  0.56333  0.31569  0.19872  1.0000
  H   H60       1.0  0.5495699999999999  0.37434  0.09774  1.0000
  H   H61       1.0  0.60185  0.09553999999999999  0.69768  1.0000
  H   H62       1.0  0.28985999999999995  0.15022999999999997  0.75478  1.0000
  H   H63       1.0  0.5273599999999999  0.07460999999999997  0.6865600000000001  1.0000
  H   H64       1.0  0.42644000000000004  0.07269000000000005  0.66378  1.0000
  H   H65       1.0  0.36157999999999996  0.16623  0.7724700000000001  1.0000
  H   H66       1.0  0.4622900000000001  0.16657000000000002  0.79665  1.0000
  H   H67       1.0  0.80197  0.10448999999999992  0.6547700000000001  1.0000
  H   H68       1.0  0.6943200000000002  0.08951999999999996  0.6589800000000001  1.0000
  H   H69       1.0  0.66205  0.16530999999999998  0.7869700000000001  1.0000
  H   H70       1.0  0.7717799999999999  0.18226000000000003  0.77416  1.0000
  H   H71       1.0  0.11740000000000003  0.11511999999999997  0.64533  1.0000
  H   H72       1.0  0.22456999999999994  0.09402999999999995  0.6599800000000001  1.0000
  H   H73       1.0  0.20324  0.20237999999999998  0.7606200000000001  1.0000
  H   H74       1.0  0.09802999999999996  0.2189  0.7410100000000001  1.0000
  H   H75       1.0  0.90789  0.31832  0.5547200000000001  1.0000
  H   H76       1.0  0.91442  0.4248000000000001  0.49007  1.0000
  H   H77       1.0  0.89767  0.47354  0.63594  1.0000
  H   H78       1.0  0.8858799999999999  0.3662  0.7003500000000001  1.0000
  H   H79       1.0  0.89211  0.66354  0.51695  1.0000
  H   H80       1.0  0.87262  0.5574800000000001  0.5803000000000001  1.0000
  H   H81       1.0  0.9598  0.50504  0.4463900000000001  1.0000
  H   H82       1.0  0.97544  0.61163  0.38240000000000013  1.0000
  H   H83       1.0  0.88062  0.05207999999999997  0.6034000000000002  1.0000
  H   H84       1.0  0.89798  0.006679999999999978  0.53309  1.0000
  H   H85       1.0  0.08730999999999998  0.030819999999999938  0.5215500000000001  1.0000
  H   H86       1.0  0.06777999999999999  0.0795  0.59002  1.0000
  H   H87       1.0  0.88215  0.04263999999999998  0.8865900000000001  1.0000
  H   H88       1.0  0.90373  0.98312  0.98426  1.0000
  H   H89       1.0  0.07826999999999999  0.06442000000000002  0.9389500000000001  1.0000
  H   H90       1.0  0.05497999999999998  0.12385999999999998  0.84186  1.0000
  H   H91       1.0  0.39814999999999995  0.9044700000000002  0.30232000000000003  1.0000
  H   H92       1.0  0.71013  0.8497800000000002  0.24522000000000005  1.0000
  H   H93       1.0  0.47263999999999995  0.9254  0.31344  1.0000
  H   H94       1.0  0.57356  0.92732  0.33621000000000006  1.0000
  H   H95       1.0  0.6384199999999998  0.83378  0.22752000000000006  1.0000
  H   H96       1.0  0.53771  0.83344  0.20335  1.0000
  H   H97       1.0  0.19803000000000004  0.89552  0.34522000000000014  1.0000
  H   H98       1.0  0.30567999999999995  0.9104900000000002  0.34102  1.0000
  H   H99       1.0  0.33795  0.8347  0.21302  1.0000
  H   H100      1.0  0.22821999999999998  0.8177500000000002  0.22584  1.0000
  H   H101      1.0  0.8825899999999999  0.8848900000000002  0.35466000000000003  1.0000
  H   H102      1.0  0.77542  0.90598  0.34001000000000003  1.0000
  H   H103      1.0  0.79676  0.7976300000000002  0.23937000000000005  1.0000
  H   H104      1.0  0.9019699999999998  0.7811100000000001  0.25899000000000005  1.0000
  H   H105      1.0  0.09209999999999999  0.68169  0.44528  1.0000
  H   H106      1.0  0.08557999999999995  0.57521  0.50992  1.0000
  H   H107      1.0  0.10232000000000002  0.5264700000000001  0.36406  1.0000
  H   H108      1.0  0.11411999999999999  0.6338  0.29964  1.0000
  H   H109      1.0  0.10787999999999998  0.3364700000000001  0.48305000000000003  1.0000
  H   H110      1.0  0.12737000000000004  0.44253000000000003  0.4197  1.0000
  H   H111      1.0  0.04019999999999997  0.49497  0.5536100000000002  1.0000
  H   H112      1.0  0.024559999999999995  0.38838  0.6176  1.0000
  H   H113      1.0  0.11937999999999997  0.9479299999999999  0.3966000000000001  1.0000
  H   H114      1.0  0.10201  0.9933300000000003  0.4669100000000001  1.0000
  H   H115      1.0  0.91269  0.9691900000000002  0.47844  1.0000
  H   H116      1.0  0.93222  0.9205  0.40998000000000007  1.0000
  H   H117      1.0  0.11783999999999997  0.95737  0.11340000000000003  1.0000
  H   H118      1.0  0.09626  0.01689  0.01574  1.0000
  H   H119      1.0  0.9217299999999999  0.9355900000000003  0.06105  1.0000
  H   H120      1.0  0.94501  0.8761500000000002  0.15814  1.0000
  H   H121      1.0  0.9492299999999999  0.76435  0.48661000000000004  1.0000
  H   H122      1.0  0.67214  0.8413100000000001  0.4762600000000001  1.0000
  H   H123      1.0  0.006709999999999991  0.5868  0.08303000000000002  1.0000
  H   H124      1.0  0.7226799999999997  0.5962700000000002  0.98529  1.0000
  H   H125      1.0  0.8650199999999999  0.8224200000000002  0.46489  1.0000
  H   H126      1.0  0.75963  0.8207700000000001  0.45302  1.0000
  H   H127      1.0  0.7212900000000001  0.69201  0.6268700000000001  1.0000
  H   H128      1.0  0.82749  0.6985300000000001  0.6403900000000001  1.0000
  H   H129      1.0  0.15035999999999997  0.7922400000000003  0.43453  1.0000
  H   H130      1.0  0.044219999999999995  0.7683900000000001  0.44185  1.0000
  H   H131      1.0  0.010589999999999999  0.8159800000000001  0.58922  1.0000
  H   H132      1.0  0.11830000000000002  0.84237  0.5729  1.0000
  H   H133      1.0  0.49398  0.93184  0.4266600000000001  1.0000
  H   H134      1.0  0.59981  0.91176  0.4414  1.0000
  H   H135      1.0  0.55184  0.72488  0.5358  1.0000
  H   H136      1.0  0.44833999999999996  0.75259  0.5143  1.0000
  H   H137      1.0  0.9220499999999999  0.61398  0.9348700000000002  1.0000
  H   H138      1.0  0.8126799999999998  0.62351  0.9532300000000001  1.0000
  H   H139      1.0  0.8211  0.5521  0.13463000000000003  1.0000
  H   H140      1.0  0.9296799999999998  0.5381800000000001  0.11653  1.0000
  H   H141      1.0  0.18913  0.5587500000000001  0.14838000000000004  1.0000
  H   H142      1.0  0.08472  0.58816  0.13171  1.0000
  H   H143      1.0  0.11198999999999994  0.5281  0.9920800000000002  1.0000
  H   H144      1.0  0.21469  0.49937  0.01657  1.0000
  H   H145      1.0  0.53024  0.53217  0.14999  1.0000
  H   H146      1.0  0.63768  0.5603  0.13222  1.0000
  H   H147      1.0  0.63357  0.59605  0.9537100000000001  1.0000
  H   H148      1.0  0.5264000000000001  0.57157  0.9779  1.0000
  H   H149      1.0  0.19836999999999996  0.05993999999999999  0.45997000000000005  1.0000
  H   H150      1.0  0.20654  0.16418999999999997  0.38565000000000005  1.0000
  H   H151      1.0  0.27397  0.09506  0.25792  1.0000
  H   H152      1.0  0.26416  0.99197  0.33204  1.0000
  H   H153      1.0  0.28861  0.34031  0.25034  1.0000
  H   H154      1.0  0.27759  0.23683000000000015  0.32575  1.0000
  H   H155      1.0  0.21917999999999999  0.17481  0.20616  1.0000
  H   H156      1.0  0.23168999999999998  0.27818000000000004  0.1306  1.0000
  H   H157      1.0  0.36133  0.057679999999999974  0.42741  1.0000
  H   H158      1.0  0.37171  0.16828  0.37433000000000005  1.0000
  H   H159      1.0  0.44532  0.14169  0.22167000000000006  1.0000
  H   H160      1.0  0.43131  0.03182  0.27443  1.0000
  H   H161      1.0  0.4449  0.35875000000000007  0.27547  1.0000
  H   H162      1.0  0.4341  0.24866  0.33258000000000004  1.0000
  H   H163      1.0  0.39737  0.22474  0.18262  1.0000
  H   H164      1.0  0.40971  0.33395  0.12645  1.0000
  H   H165      1.0  0.22191  0.7224500000000001  0.40619000000000005  1.0000
  H   H166      1.0  0.22918000000000002  0.6736000000000002  0.3381  1.0000
  H   H167      1.0  0.41769  0.7119000000000001  0.29769  1.0000
  H   H168      1.0  0.40892999999999996  0.7597300000000001  0.36679  1.0000
  H   H169      1.0  0.43274999999999997  0.62305  0.17815  1.0000
  H   H170      1.0  0.4248  0.67023  0.24786000000000005  1.0000
  H   H171      1.0  0.23439  0.6449600000000002  0.27677  1.0000
  H   H172      1.0  0.2443999999999999  0.5949700000000002  0.20898  1.0000
  H   H173      1.0  0.22403  0.7528700000000002  0.67461  1.0000
  H   H174      1.0  0.24281000000000003  0.6900599999999999  0.77401  1.0000
  H   H175      1.0  0.43031  0.6943300000000002  0.71461  1.0000
  H   H176      1.0  0.41092  0.76088  0.6165900000000001  1.0000
  H   H177      1.0  0.2779399999999999  0.54548  0.9348300000000002  1.0000
  H   H178      1.0  0.26445  0.6015300000000002  0.83301  1.0000
  H   H179      1.0  0.43667  0.68432  0.8012700000000003  1.0000
  H   H180      1.0  0.45043  0.6256699999999998  0.9022600000000001  1.0000
  C   C1        1.0  0.08549000000000001  0.23277  0.43473  1.0000
  C   C2        1.0  0.33226999999999995  0.2451200000000001  0.46160000000000007  1.0000
  C   C3        1.0  0.14711999999999992  0.23905000000000004  0.44635000000000014  1.0000
  C   C4        1.0  0.16653000000000004  0.20528000000000007  0.49923  1.0000
  C   C5        1.0  0.22636  0.20605999999999997  0.50555  1.0000
  C   C6        1.0  0.26716000000000006  0.24237000000000003  0.45963000000000004  1.0000
  C   C7        1.0  0.24682  0.27884000000000003  0.4077500000000001  1.0000
  C   C8        1.0  0.18776  0.2761200000000001  0.40071  1.0000
  C   C9        1.0  0.88187  0.20298000000000002  0.53186  1.0000
  C   C10       1.0  0.94107  0.21702  0.5271  1.0000
  C   C11       1.0  0.9817299999999999  0.21104000000000003  0.4828  1.0000
  C   C12       1.0  0.9599599999999999  0.18962999999999994  0.4455000000000001  1.0000
  C   C13       1.0  0.89997  0.17562  0.45414000000000004  1.0000
  C   C14       1.0  0.49119  0.11349999999999996  0.5502200000000002  1.0000
  C   C15       1.0  0.4324199999999999  0.12486999999999998  0.5413000000000001  1.0000
  C   C16       1.0  0.41514000000000006  0.18386000000000002  0.50997  1.0000
  C   C17       1.0  0.45908  0.22912  0.4891  1.0000
  C   C18       1.0  0.51667  0.21349000000000004  0.50089  1.0000
  C   C19       1.0  0.0007699999999999633  0.4279  0.9893600000000002  1.0000
  C   C20       1.0  0.2557399999999999  0.40858000000000005  0.9359200000000001  1.0000
  C   C21       1.0  0.06633  0.42206000000000005  0.9762  1.0000
  C   C22       1.0  0.10037  0.3991200000000001  0.021500000000000002  1.0000
  C   C23       1.0  0.16189  0.3939  0.01078  1.0000
  C   C24       1.0  0.19020999999999993  0.41148999999999997  0.95416  1.0000
  C   C25       1.0  0.15605999999999998  0.43457999999999997  0.9088200000000002  1.0000
  C   C26       1.0  0.09501999999999997  0.44056  0.91956  1.0000
  C   C27       1.0  0.8301699999999999  0.44763000000000003  0.88529  1.0000
  C   C28       1.0  0.88792  0.43117000000000005  0.89513  1.0000
  C   C29       1.0  0.9105099999999999  0.4401100000000001  0.9395600000000002  1.0000
  C   C30       1.0  0.87264  0.4645900000000002  0.9730700000000001  1.0000
  C   C31       1.0  0.8157  0.4802499999999999  0.9596300000000002  1.0000
  C   C32       1.0  0.4451700000000001  0.4515899999999999  0.8929900000000002  1.0000
  C   C33       1.0  0.38538  0.43685000000000007  0.9028000000000002  1.0000
  C   C34       1.0  0.35499  0.4194500000000002  0.9588300000000001  1.0000
  C   C35       1.0  0.38775999999999994  0.41574  0.00255  1.0000
  C   C36       1.0  0.44758  0.43027999999999994  0.9891200000000001  1.0000
  C   C37       1.0  0.77496  0.04348999999999997  0.55483  1.0000
  C   C38       1.0  0.76924  0.98085  0.59914  1.0000
  C   C39       1.0  0.7851099999999999  0.9316799999999998  0.5844800000000001  1.0000
  C   C40       1.0  0.7799  0.8734600000000001  0.62609  1.0000
  C   C41       1.0  0.75902  0.8627700000000001  0.6837500000000001  1.0000
  C   C42       1.0  0.74358  0.91227  0.69811  1.0000
  C   C43       1.0  0.74853  0.97024  0.65647  1.0000
  C   C44       1.0  0.7324  0.62232  0.85939  1.0000
  C   C45       1.0  0.7398299999999998  0.6842000000000001  0.81404  1.0000
  C   C46       1.0  0.72743  0.6961000000000003  0.7585800000000001  1.0000
  C   C47       1.0  0.73386  0.7538499999999999  0.7165600000000002  1.0000
  C   C48       1.0  0.75291  0.80141  0.7284  1.0000
  C   C49       1.0  0.7651  0.7891300000000002  0.7841800000000002  1.0000
  C   C50       1.0  0.7586499999999999  0.7313400000000002  0.8264000000000002  1.0000
  C   C51       1.0  0.61106  0.027890000000000022  0.61511  1.0000
  C   C52       1.0  0.6039  0.9619700000000001  0.64566  1.0000
  C   C53       1.0  0.6199900000000002  0.9231900000000001  0.61753  1.0000
  C   C54       1.0  0.6138199999999999  0.86146  0.64745  1.0000
  C   C55       1.0  0.59065  0.83686  0.7059900000000001  1.0000
  C   C56       1.0  0.5740500000000001  0.87637  0.7335300000000002  1.0000
  C   C57       1.0  0.58103  0.9379100000000001  0.7039900000000002  1.0000
  C   C58       1.0  0.56474  0.5809300000000001  0.8358500000000001  1.0000
  C   C59       1.0  0.57135  0.64696  0.80257  1.0000
  C   C60       1.0  0.56496  0.6714500000000002  0.7442100000000003  1.0000
  C   C61       1.0  0.57137  0.73293  0.7125500000000002  1.0000
  C   C62       1.0  0.58398  0.7716100000000001  0.73855  1.0000
  C   C63       1.0  0.59043  0.74654  0.79707  1.0000
  C   C64       1.0  0.5842599999999999  0.68518  0.82861  1.0000
  C   C65       1.0  0.69037  0.22082999999999997  0.5720200000000001  1.0000
  C   C66       1.0  0.68508  0.25538999999999995  0.6092300000000002  1.0000
  C   C67       1.0  0.73531  0.2805  0.61756  1.0000
  C   C68       1.0  0.73071  0.30804000000000004  0.65632  1.0000
  C   C69       1.0  0.6758500000000001  0.31137  0.68837  1.0000
  C   C70       1.0  0.6255399999999998  0.28701999999999994  0.6785300000000001  1.0000
  C   C71       1.0  0.62996  0.25978  0.63967  1.0000
  C   C72       1.0  0.6540899999999997  0.42536  0.85102  1.0000
  C   C73       1.0  0.6608  0.39446999999999993  0.8106400000000001  1.0000
  C   C74       1.0  0.6103299999999999  0.37221  0.7996  1.0000
  C   C75       1.0  0.61543  0.34549  0.76027  1.0000
  C   C76       1.0  0.67103  0.33905999999999986  0.7309600000000003  1.0000
  C   C77       1.0  0.72162  0.36025000000000007  0.74364  1.0000
  C   C78       1.0  0.7164699999999999  0.3879799999999999  0.7822900000000002  1.0000
  C   C79       1.0  0.6946300000000001  0.20225  0.41995  1.0000
  C   C80       1.0  0.68374  0.23978  0.36039  1.0000
  C   C81       1.0  0.7311399999999999  0.2602300000000001  0.31588  1.0000
  C   C82       1.0  0.72036  0.29601  0.26064  1.0000
  C   C83       1.0  0.6621800000000001  0.3132900000000001  0.24864  1.0000
  C   C84       1.0  0.61487  0.29236  0.29364  1.0000
  C   C85       1.0  0.62551  0.2556399999999999  0.34864000000000006  1.0000
  C   C86       1.0  0.62998  0.44598000000000004  0.012820000000000002  1.0000
  C   C87       1.0  0.63564  0.41684000000000004  0.07478  1.0000
  C   C88       1.0  0.6877000000000001  0.42406  0.09487000000000001  1.0000
  C   C89       1.0  0.69527  0.39212  0.15173000000000003  1.0000
  C   C90       1.0  0.65141  0.35133  0.18991000000000002  1.0000
  C   C91       1.0  0.5981  0.3465500000000001  0.17006  1.0000
  C   C92       1.0  0.59021  0.37909000000000004  0.11329000000000002  1.0000
  C   C93       1.0  0.562  0.1306  0.75644  1.0000
  C   C94       1.0  0.32892  0.11982999999999994  0.6941400000000001  1.0000
  C   C95       1.0  0.5018  0.12212000000000006  0.74293  1.0000
  C   C96       1.0  0.49153  0.09446999999999998  0.7062  1.0000
  C   C97       1.0  0.43469  0.09308999999999999  0.6928500000000001  1.0000
  C   C98       1.0  0.38682  0.11924999999999995  0.7153400000000001  1.0000
  C   C99       1.0  0.39690999999999993  0.14504  0.75376  1.0000
  C   C100      1.0  0.4536200000000001  0.14617000000000002  0.76757  1.0000
  C   C101      1.0  0.76986  0.11723000000000003  0.68367  1.0000
  C   C102      1.0  0.70992  0.10787  0.68694  1.0000
  C   C103      1.0  0.6694  0.12416  0.72509  1.0000
  C   C104      1.0  0.69179  0.15101999999999993  0.7578700000000002  1.0000
  C   C105      1.0  0.75261  0.15992999999999996  0.7510900000000001  1.0000
  C   C106      1.0  0.13894  0.13386  0.6699700000000001  1.0000
  C   C107      1.0  0.19804  0.12211999999999999  0.6780800000000001  1.0000
  C   C108      1.0  0.22245  0.14691000000000004  0.71136  1.0000
  C   C109      1.0  0.18596  0.18209000000000014  0.73486  1.0000
  C   C110      1.0  0.12764999999999996  0.19153  0.72412  1.0000
  C   C111      1.0  0.88961  0.27057999999999993  0.67189  1.0000
  C   C112      1.0  0.89651  0.33503000000000005  0.6320400000000002  1.0000
  C   C113      1.0  0.905  0.35246  0.57245  1.0000
  C   C114      1.0  0.9091099999999999  0.41285  0.53603  1.0000
  C   C115      1.0  0.90681  0.45822000000000024  0.55751  1.0000
  C   C116      1.0  0.8985  0.44005000000000005  0.61756  1.0000
  C   C117      1.0  0.8926  0.37978  0.6541  1.0000
  C   C118      1.0  0.94898  0.7087800000000004  0.40736  1.0000
  C   C119      1.0  0.93512  0.6448000000000002  0.4452  1.0000
  C   C120      1.0  0.9065199999999998  0.6286300000000001  0.50152  1.0000
  C   C121      1.0  0.8960499999999999  0.5685700000000002  0.53732  1.0000
  C   C122      1.0  0.91476  0.52228  0.5186800000000001  1.0000
  C   C123      1.0  0.9429499999999997  0.53928  0.4618500000000001  1.0000
  C   C124      1.0  0.9524199999999999  0.5992500000000002  0.42566  1.0000
  C   C125      1.0  0.9612999999999999  0.10093999999999997  0.6411800000000001  1.0000
  C   C126      1.0  0.973  0.06904000000000007  0.60164  1.0000
  C   C127      1.0  0.9258099999999999  0.04732000000000002  0.58529  1.0000
  C   C128      1.0  0.9363  0.020959999999999975  0.54556  1.0000
  C   C129      1.0  0.9944199999999999  0.014130000000000005  0.52118  1.0000
  C   C130      1.0  0.04162999999999999  0.03542  0.53863  1.0000
  C   C131      1.0  0.031039999999999984  0.06259999999999996  0.5776700000000001  1.0000
  C   C132      1.0  0.95353  0.12192999999999991  0.7978400000000001  1.0000
  C   C133      1.0  0.9669499999999999  0.08745999999999991  0.8575900000000001  1.0000
  C   C134      1.0  0.9249  0.04723000000000013  0.89873  1.0000
  C   C135      1.0  0.9377099999999998  0.013619999999999964  0.9538700000000001  1.0000
  C   C136      1.0  0.99312  0.0182099999999999  0.9705800000000002  1.0000
  C   C137      1.0  0.03482999999999997  0.05899999999999997  0.9286600000000002  1.0000
  C   C138      1.0  0.02208999999999999  0.09295999999999992  0.8735300000000001  1.0000
  C   C139      1.0  0.438  0.8694100000000002  0.24356000000000003  1.0000
  C   C140      1.0  0.67108  0.88018  0.30585  1.0000
  C   C141      1.0  0.4981899999999999  0.87789  0.2570700000000001  1.0000
  C   C142      1.0  0.50846  0.9055400000000002  0.2938  1.0000
  C   C143      1.0  0.56531  0.9069200000000002  0.30714  1.0000
  C   C144      1.0  0.61317  0.8807599999999999  0.2846600000000001  1.0000
  C   C145      1.0  0.60308  0.85497  0.24624000000000004  1.0000
  C   C146      1.0  0.54638  0.85383  0.23243000000000005  1.0000
  C   C147      1.0  0.23014  0.8827700000000002  0.31632000000000005  1.0000
  C   C148      1.0  0.2900799999999999  0.8921400000000003  0.31305  1.0000
  C   C149      1.0  0.33059999999999995  0.8758400000000002  0.2749  1.0000
  C   C150      1.0  0.30821  0.8489800000000002  0.24213  1.0000
  C   C151      1.0  0.24739  0.84007  0.24891000000000005  1.0000
  C   C152      1.0  0.86105  0.8661500000000002  0.33003  1.0000
  C   C153      1.0  0.80196  0.87789  0.32192  1.0000
  C   C154      1.0  0.77754  0.8531  0.28864  1.0000
  C   C155      1.0  0.8140299999999999  0.81792  0.26513000000000003  1.0000
  C   C156      1.0  0.87235  0.8084800000000002  0.27588  1.0000
  C   C157      1.0  0.11037999999999998  0.7294300000000002  0.3281  1.0000
  C   C158      1.0  0.10348  0.6649800000000002  0.36796  1.0000
  C   C159      1.0  0.09499999999999997  0.6475400000000001  0.4275500000000001  1.0000
  C   C160      1.0  0.09089  0.58716  0.4639700000000001  1.0000
  C   C161      1.0  0.09319000000000001  0.5417799999999999  0.44249  1.0000
  C   C162      1.0  0.10149999999999997  0.55995  0.3824400000000001  1.0000
  C   C163      1.0  0.10739999999999998  0.6202200000000002  0.34589  1.0000
  C   C164      1.0  0.05102000000000001  0.29123  0.59263  1.0000
  C   C165      1.0  0.06487  0.3552100000000001  0.55479  1.0000
  C   C166      1.0  0.09347000000000001  0.37137999999999993  0.49847000000000014  1.0000
  C   C167      1.0  0.10393999999999999  0.43143  0.46268000000000004  1.0000
  C   C168      1.0  0.08522999999999996  0.4777300000000001  0.48132000000000014  1.0000
  C   C169      1.0  0.05704999999999999  0.46073000000000003  0.53814  1.0000
  C   C170      1.0  0.04758  0.40075999999999995  0.57434  1.0000
  C   C171      1.0  0.03868999999999997  0.8990700000000003  0.3588100000000001  1.0000
  C   C172      1.0  0.026989999999999986  0.93096  0.39835000000000004  1.0000
  C   C173      1.0  0.07417999999999997  0.9526800000000002  0.4147000000000001  1.0000
  C   C174      1.0  0.06369999999999999  0.97905  0.4544300000000001  1.0000
  C   C175      1.0  0.005579999999999987  0.9858800000000001  0.47882000000000013  1.0000
  C   C176      1.0  0.9583599999999998  0.9645900000000002  0.4613600000000001  1.0000
  C   C177      1.0  0.9689599999999999  0.9374100000000001  0.42232000000000003  1.0000
  C   C178      1.0  0.04645999999999998  0.8780700000000002  0.20215000000000005  1.0000
  C   C179      1.0  0.03303999999999998  0.9125500000000002  0.14241  1.0000
  C   C180      1.0  0.07508999999999999  0.9527800000000002  0.10126000000000003  1.0000
  C   C181      1.0  0.06229  0.9863900000000002  0.046120000000000015  1.0000
  C   C182      1.0  0.006879999999999993  0.9818000000000002  0.02942  1.0000
  C   C183      1.0  0.9651599999999999  0.9410100000000001  0.07134000000000001  1.0000
  C   C184      1.0  0.9779099999999998  0.90705  0.12647000000000003  1.0000
  C   C185      1.0  0.91451  0.76723  0.5652700000000002  1.0000
  C   C186      1.0  0.6677299999999996  0.75489  0.5383900000000001  1.0000
  C   C187      1.0  0.8528800000000001  0.7609600000000003  0.55365  1.0000
  C   C188      1.0  0.8334699999999999  0.7947300000000003  0.50076  1.0000
  C   C189      1.0  0.77363  0.7939500000000002  0.49444  1.0000
  C   C190      1.0  0.73284  0.75764  0.54037  1.0000
  C   C191      1.0  0.75317  0.72116  0.5922500000000002  1.0000
  C   C192      1.0  0.81224  0.72389  0.59929  1.0000
  C   C193      1.0  0.11812999999999993  0.7970300000000002  0.4681400000000001  1.0000
  C   C194      1.0  0.058919999999999965  0.7829900000000002  0.47290000000000004  1.0000
  C   C195      1.0  0.018269999999999995  0.78896  0.51719  1.0000
  C   C196      1.0  0.04002999999999998  0.8103800000000001  0.5545  1.0000
  C   C197      1.0  0.10002999999999997  0.8243800000000002  0.54585  1.0000
  C   C198      1.0  0.5088  0.8865000000000002  0.44978  1.0000
  C   C199      1.0  0.5675700000000001  0.87514  0.4587  1.0000
  C   C200      1.0  0.58485  0.8161500000000003  0.49002000000000007  1.0000
  C   C201      1.0  0.54091  0.7708899999999999  0.5109000000000001  1.0000
  C   C202      1.0  0.48331999999999997  0.7865200000000001  0.4991100000000001  1.0000
  C   C203      1.0  0.99923  0.5721  0.01064  1.0000
  C   C204      1.0  0.7442599999999999  0.59143  0.06408000000000001  1.0000
  C   C205      1.0  0.93367  0.5779500000000001  0.0238  1.0000
  C   C206      1.0  0.8996299999999999  0.60089  0.9785000000000003  1.0000
  C   C207      1.0  0.83811  0.60611  0.98922  1.0000
  C   C208      1.0  0.8097899999999999  0.58852  0.045840000000000006  1.0000
  C   C209      1.0  0.84394  0.56543  0.09117000000000003  1.0000
  C   C210      1.0  0.9049799999999999  0.55945  0.08043  1.0000
  C   C211      1.0  0.16983  0.55238  0.11471000000000002  1.0000
  C   C212      1.0  0.11208  0.5688300000000001  0.10487000000000002  1.0000
  C   C213      1.0  0.08949  0.5599000000000001  0.06043  1.0000
  C   C214      1.0  0.12735  0.53541  0.026930000000000006  1.0000
  C   C215      1.0  0.18429  0.5197500000000002  0.04037000000000001  1.0000
  C   C216      1.0  0.55482  0.54842  0.10701000000000002  1.0000
  C   C217      1.0  0.61462  0.5631600000000001  0.0972  1.0000
  C   C218      1.0  0.64501  0.58056  0.04117  1.0000
  C   C219      1.0  0.6122399999999999  0.5842700000000001  0.9974500000000002  1.0000
  C   C220      1.0  0.55241  0.5697300000000001  0.01088  1.0000
  C   C221      1.0  0.22503  0.95652  0.44516  1.0000
  C   C222      1.0  0.23075000000000004  0.019159999999999993  0.40086  1.0000
  C   C223      1.0  0.21488  0.06832999999999997  0.41552  1.0000
  C   C224      1.0  0.22009  0.12655000000000005  0.37391  1.0000
  C   C225      1.0  0.24097999999999994  0.13723999999999997  0.3162400000000001  1.0000
  C   C226      1.0  0.25642  0.08773999999999998  0.30189  1.0000
  C   C227      1.0  0.25147  0.029759999999999974  0.34353000000000006  1.0000
  C   C228      1.0  0.2676  0.37769000000000014  0.14061  1.0000
  C   C229      1.0  0.26017  0.31581000000000004  0.18595  1.0000
  C   C230      1.0  0.27257  0.30391  0.24142000000000002  1.0000
  C   C231      1.0  0.26613  0.24615999999999996  0.2834400000000001  1.0000
  C   C232      1.0  0.24709  0.19859000000000013  0.2716  1.0000
  C   C233      1.0  0.23488999999999996  0.21087999999999996  0.21581000000000006  1.0000
  C   C234      1.0  0.24134999999999998  0.26867000000000013  0.1736  1.0000
  C   C235      1.0  0.38894  0.97212  0.38489  1.0000
  C   C236      1.0  0.39609  0.038030000000000015  0.35433  1.0000
  C   C237      1.0  0.38  0.07682  0.38247000000000003  1.0000
  C   C238      1.0  0.38617999999999997  0.13854000000000002  0.35255  1.0000
  C   C239      1.0  0.40934  0.16315000000000002  0.29401000000000005  1.0000
  C   C240      1.0  0.42594  0.12363999999999999  0.26646  1.0000
  C   C241      1.0  0.41897  0.06210000000000003  0.296  1.0000
  C   C242      1.0  0.4352599999999999  0.41908  0.16415  1.0000
  C   C243      1.0  0.42863999999999997  0.35305  0.19742000000000007  1.0000
  C   C244      1.0  0.4350399999999999  0.3285500000000001  0.2557900000000001  1.0000
  C   C245      1.0  0.42863  0.26707999999999993  0.28744000000000003  1.0000
  C   C246      1.0  0.41601000000000005  0.22840000000000005  0.26144000000000006  1.0000
  C   C247      1.0  0.40957000000000005  0.25347  0.20293  1.0000
  C   C248      1.0  0.41574  0.31483  0.17139  1.0000
  C   C249      1.0  0.30963  0.77918  0.42798  1.0000
  C   C250      1.0  0.31491  0.74462  0.39076000000000005  1.0000
  C   C251      1.0  0.2646900000000001  0.7195  0.38243000000000005  1.0000
  C   C252      1.0  0.26928  0.69196  0.34368000000000004  1.0000
  C   C253      1.0  0.3241499999999999  0.68863  0.3116300000000001  1.0000
  C   C254      1.0  0.37445999999999996  0.7129900000000002  0.32147000000000003  1.0000
  C   C255      1.0  0.37004  0.7402300000000002  0.36033  1.0000
  C   C256      1.0  0.3459  0.57465  0.14897  1.0000
  C   C257      1.0  0.3392  0.60553  0.18935000000000002  1.0000
  C   C258      1.0  0.38966999999999996  0.6278  0.20039000000000004  1.0000
  C   C259      1.0  0.38455999999999996  0.65452  0.23973000000000005  1.0000
  C   C260      1.0  0.32896  0.6609500000000001  0.26904000000000006  1.0000
  C   C261      1.0  0.2783799999999999  0.6397600000000002  0.2563500000000001  1.0000
  C   C262      1.0  0.28353  0.6120300000000002  0.21770000000000003  1.0000
  C   C263      1.0  0.30536  0.79776  0.58004  1.0000
  C   C264      1.0  0.3162599999999999  0.7602300000000002  0.6396  1.0000
  C   C265      1.0  0.26886  0.73978  0.68411  1.0000
  C   C266      1.0  0.27963  0.704  0.7393600000000002  1.0000
  C   C267      1.0  0.33781  0.68672  0.7513600000000002  1.0000
  C   C268      1.0  0.38512  0.7076500000000002  0.70636  1.0000
  C   C269      1.0  0.37449  0.7443700000000001  0.65136  1.0000
  C   C270      1.0  0.37001999999999996  0.55403  0.9871800000000001  1.0000
  C   C271      1.0  0.36435  0.58316  0.9252100000000001  1.0000
  C   C272      1.0  0.3123  0.57595  0.90513  1.0000
  C   C273      1.0  0.30472999999999995  0.6078900000000002  0.8482700000000001  1.0000
  C   C274      1.0  0.34857999999999995  0.64868  0.8100800000000002  1.0000
  C   C275      1.0  0.40190000000000003  0.65345  0.82993  1.0000
  C   C276      1.0  0.4097899999999999  0.62092  0.8867100000000002  1.0000
  N   N1        1.0  0.041099999999999984  0.22456999999999996  0.4801800000000001  1.0000
  N   N2        1.0  0.8606999999999999  0.18272000000000008  0.49592  1.0000
  N   N3        1.0  0.35574999999999996  0.19429000000000002  0.50157  1.0000
  N   N4        1.0  0.53332  0.15689  0.53082  1.0000
  N   N5        1.0  0.9695  0.4261599999999999  0.9468100000000003  1.0000
  N   N6        1.0  0.79423  0.47237000000000007  0.91667  1.0000
  N   N7        1.0  0.29381999999999997  0.40891000000000005  0.97328  1.0000
  N   N8        1.0  0.47636  0.4485000000000001  0.93504  1.0000
  N   N9        1.0  0.6096000000000001  0.11370000000000004  0.72616  1.0000
  N   N10       1.0  0.79161  0.14267  0.7154600000000001  1.0000
  N   N11       1.0  0.28072  0.13762000000000005  0.72347  1.0000
  N   N12       1.0  0.10417999999999998  0.16784999999999994  0.6921500000000003  1.0000
  N   N13       1.0  0.3904  0.8863000000000002  0.27384  1.0000
  N   N14       1.0  0.20839  0.85733  0.28453  1.0000
  N   N15       1.0  0.71928  0.8623900000000002  0.27652  1.0000
  N   N16       1.0  0.8958099999999999  0.8321599999999999  0.30785000000000007  1.0000
  N   N17       1.0  0.95889  0.7754400000000001  0.51982  1.0000
  N   N18       1.0  0.13928999999999997  0.8172899999999998  0.5040800000000001  1.0000
  N   N19       1.0  0.64425  0.8057100000000001  0.4984300000000001  1.0000
  N   N20       1.0  0.4666699999999999  0.8431100000000001  0.46917000000000003  1.0000
  N   N21       1.0  0.030489999999999996  0.5738500000000001  0.053180000000000005  1.0000
  N   N22       1.0  0.20576999999999995  0.5276400000000001  0.08333000000000002  1.0000
  N   N23       1.0  0.70617  0.5911  0.026710000000000008  1.0000
  N   N24       1.0  0.52363  0.5515100000000001  0.06495000000000001  1.0000
  O   O1        1.0  0.07728999999999997  0.23421  0.3877200000000001  1.0000
  O   O2        1.0  0.36327  0.28844  0.42874000000000007  1.0000
  O   O3        1.0  0.9764599999999999  0.43320000000000003  0.03318  1.0000
  O   O4        1.0  0.27352  0.4086  0.88805  1.0000
  O   O5        1.0  0.7527  0.08523000000000004  0.57226  1.0000
  O   O6        1.0  0.80051  0.05510999999999993  0.5050900000000001  1.0000
  O   O7        1.0  0.7140899999999998  0.58262  0.8432900000000002  1.0000
  O   O8        1.0  0.7439399999999999  0.61114  0.9092800000000002  1.0000
  O   O9        1.0  0.6229100000000001  0.04993  0.55994  1.0000
  O   O10       1.0  0.6041  0.06147999999999995  0.6429400000000001  1.0000
  O   O11       1.0  0.5776199999999998  0.5610000000000003  0.88832  1.0000
  O   O12       1.0  0.54754  0.5472700000000001  0.8145400000000002  1.0000
  O   O13       1.0  0.74098  0.21923999999999996  0.54417  1.0000
  O   O14       1.0  0.64284  0.19411000000000006  0.57258  1.0000
  O   O15       1.0  0.6996999999999998  0.45288999999999996  0.8533100000000001  1.0000
  O   O16       1.0  0.60339  0.4219899999999999  0.8803900000000002  1.0000
  O   O17       1.0  0.74841  0.19569000000000003  0.43019  1.0000
  O   O18       1.0  0.64874  0.17999999999999997  0.45613000000000004  1.0000
  O   O19       1.0  0.6755  0.47513999999999995  0.9794300000000001  1.0000
  O   O20       1.0  0.58107  0.4391700000000001  0.9974200000000002  1.0000
  O   O21       1.0  0.56754  0.15295999999999996  0.7911900000000002  1.0000
  O   O22       1.0  0.32429  0.10611999999999998  0.6533100000000001  1.0000
  O   O23       1.0  0.9111199999999999  0.23095000000000013  0.65098  1.0000
  O   O24       1.0  0.8630699999999999  0.2556700000000001  0.72161  1.0000
  O   O25       1.0  0.94305  0.7495100000000002  0.42713000000000007  1.0000
  O   O26       1.0  0.9678199999999999  0.7214500000000001  0.35393000000000013  1.0000
  O   O27       1.0  0.90779  0.10281999999999995  0.6634100000000002  1.0000
  O   O28       1.0  0.006069999999999985  0.12529999999999997  0.6492600000000001  1.0000
  O   O29       1.0  0.90465  0.10882999999999997  0.78597  1.0000
  O   O30       1.0  0.9912  0.16114999999999988  0.7629800000000002  1.0000
  O   O31       1.0  0.43245  0.8470500000000001  0.2088  1.0000
  O   O32       1.0  0.6757  0.8938800000000001  0.34669000000000005  1.0000
  O   O33       1.0  0.08887999999999996  0.7690500000000002  0.34901  1.0000
  O   O34       1.0  0.13693  0.7443400000000002  0.27839  1.0000
  O   O35       1.0  0.05694000000000001  0.2505  0.57287  1.0000
  O   O36       1.0  0.032169999999999976  0.2785599999999999  0.6460700000000001  1.0000
  O   O37       1.0  0.09221000000000003  0.8971900000000003  0.33659  1.0000
  O   O38       1.0  0.99393  0.87471  0.35074000000000005  1.0000
  O   O39       1.0  0.09534  0.89118  0.21403000000000005  1.0000
  O   O40       1.0  0.008789999999999997  0.8388500000000001  0.23702000000000004  1.0000
  O   O41       1.0  0.9226999999999999  0.7657899999999999  0.6122700000000001  1.0000
  O   O42       1.0  0.6367199999999997  0.7115600000000001  0.57126  1.0000
  O   O43       1.0  0.023529999999999975  0.56681  0.9668200000000001  1.0000
  O   O44       1.0  0.7264699999999998  0.59141  0.11194000000000001  1.0000
  O   O45       1.0  0.2473  0.9147800000000003  0.42773  1.0000
  O   O46       1.0  0.19948999999999997  0.94489  0.4949100000000001  1.0000
  O   O47       1.0  0.28591  0.41739  0.15671  1.0000
  O   O48       1.0  0.25606  0.38886  0.09072000000000002  1.0000
  O   O49       1.0  0.37707999999999997  0.95008  0.44006000000000006  1.0000
  O   O50       1.0  0.39589  0.9385300000000001  0.3570500000000001  1.0000
  O   O51       1.0  0.4223799999999999  0.43901000000000007  0.11168000000000002  1.0000
  O   O52       1.0  0.4524599999999999  0.4527300000000001  0.18545  1.0000
  O   O53       1.0  0.2590200000000001  0.78076  0.45582  1.0000
  O   O54       1.0  0.35715  0.8059000000000001  0.42742000000000013  1.0000
  O   O55       1.0  0.3003  0.54712  0.14669  1.0000
  O   O56       1.0  0.39660999999999996  0.57802  0.11961  1.0000
  O   O57       1.0  0.25159000000000004  0.8043199999999999  0.56981  1.0000
  O   O58       1.0  0.35124999999999995  0.8200100000000002  0.5438700000000001  1.0000
  O   O59       1.0  0.3245  0.52487  0.020570000000000005  1.0000
  O   O60       1.0  0.41893  0.56084  0.00258  1.0000
