data_image0
_chemical_formula_structural       Ag12H240C240N48O24
_chemical_formula_sum              "Ag12 H240 C240 N48 O24"
_cell_length_a       15.63816
_cell_length_b       16.52184
_cell_length_c       34.00594
_cell_angle_alpha    73.80287
_cell_angle_beta     76.71118
_cell_angle_gamma    61.77276

_symmetry_space_group_name_H-M    'P 1'
_symmetry_Int_Tables_number       1

loop_
  _symmetry_equiv_pos_as_xyz
  'x,y,z'

loop_
  _atom_site_type_symbol
  _atom_site_label
  _atom_site_symmetry_multiplicity
  _atom_site_fract_x
  _atom_site_fract_y
  _atom_site_fract_z
  _atom_site_occupancy
  Ag  Ag1       1.0  0.30762999999999996  0.4890399999999999  0.97482  1.0000
  Ag  Ag2       1.0  0.8057000000000004  0.97019  0.9936999999999999  1.0000
  Ag  Ag3       1.0  0.7754500000000004  0.72386  0.72836  1.0000
  Ag  Ag4       1.0  0.22813999999999987  0.9887400000000002  0.47536  1.0000
  Ag  Ag5       1.0  0.2312500000000001  0.46975  0.4935899999999999  1.0000
  Ag  Ag6       1.0  0.7725600000000001  0.22371000000000008  0.22836  1.0000
  Ag  Ag7       1.0  0.7718500000000004  0.011260000000000008  0.52464  1.0000
  Ag  Ag8       1.0  0.7687400000000003  0.53025  0.50641  1.0000
  Ag  Ag9       1.0  0.22743000000000016  0.7762899999999999  0.77164  1.0000
  Ag  Ag10      1.0  0.6923600000000002  0.51096  0.02518  1.0000
  Ag  Ag11      1.0  0.19429000000000002  0.029810000000000007  0.0063  1.0000
  Ag  Ag12      1.0  0.22454000000000002  0.27614000000000005  0.2716399999999999  1.0000
  H   H1        1.0  0.19807  0.2768  0.93026  1.0000
  H   H2        1.0  0.99262  0.35664  0.10765  1.0000
  H   H3        1.0  0.07678999999999996  0.13582000000000002  0.94126  1.0000
  H   H4        1.0  0.5343100000000002  0.85364  0.034119999999999984  1.0000
  H   H5        1.0  0.46238000000000007  0.6929300000000003  0.01669  1.0000
  H   H6        1.0  0.7284699999999997  0.64007  0.85184  1.0000
  H   H7        1.0  0.43011  0.56895  0.91168  1.0000
  H   H8        1.0  0.5298599999999999  0.55028  0.84417  1.0000
  H   H9        1.0  0.5592000000000004  0.41550000000000004  0.81269  1.0000
  H   H10       1.0  0.48111000000000037  0.30916  0.85146  1.0000
  H   H11       1.0  0.35331000000000007  0.31881  0.95686  1.0000
  H   H12       1.0  0.39405000000000007  0.25789  0.91543  1.0000
  H   H13       1.0  0.22044999999999992  0.45153  0.91517  1.0000
  H   H14       1.0  0.2548000000000001  0.3803300000000002  0.87843  1.0000
  H   H15       1.0  0.08305999999999997  0.25282000000000004  0.9449  1.0000
  H   H16       1.0  0.6577000000000004  0.35228  0.28806  1.0000
  H   H17       1.0  0.67316  0.4619400000000002  0.31915  1.0000
  H   H18       1.0  0.81607  0.50512  0.29133  1.0000
  H   H19       1.0  0.9292400000000002  0.43787  0.23148999999999997  1.0000
  H   H20       1.0  0.91406  0.26351000000000013  0.18766  1.0000
  H   H21       1.0  0.9884100000000001  0.31872  0.18687999999999994  1.0000
  H   H22       1.0  0.7912500000000005  0.41677  0.15138  1.0000
  H   H23       1.0  0.86669  0.47028  0.15166  1.0000
  H   H24       1.0  0.035760000000000056  0.38827  0.04396  1.0000
  H   H25       1.0  0.8005300000000003  0.8953600000000002  0.9231699999999998  1.0000
  H   H26       1.0  0.9088399999999998  0.8285500000000001  0.86248  1.0000
  H   H27       1.0  0.06940000000000004  0.84247  0.84104  1.0000
  H   H28       1.0  0.10979000000000017  0.9207399999999999  0.88214  1.0000
  H   H29       1.0  0.07431999999999987  0.9621000000000003  0.95408  1.0000
  H   H30       1.0  0.9500300000000002  0.009849999999999961  0.97561  1.0000
  H   H31       1.0  0.02957000000000002  0.09318000000000008  0.8912999999999998  1.0000
  H   H32       1.0  0.9068200000000001  0.13994  0.91472  1.0000
  H   H33       1.0  0.8536100000000002  0.25746  0.04308  1.0000
  H   H34       1.0  0.78112  0.12542  0.03292  1.0000
  H   H35       1.0  0.6887600000000003  0.20290000000000008  0.09178  1.0000
  H   H36       1.0  0.5776700000000003  0.14078  0.14381  1.0000
  H   H37       1.0  0.5737300000000004  0.99723  0.13361  1.0000
  H   H38       1.0  0.6486  0.86282  0.09725  1.0000
  H   H39       1.0  0.72645  0.86966  0.04988  1.0000
  H   H40       1.0  0.50357  0.9816300000000002  0.0627  1.0000
  H   H41       1.0  0.57851  0.013880000000000005  0.02037  1.0000
  H   H42       1.0  0.4944700000000001  0.80995  0.9927099999999999  1.0000
  H   H43       1.0  0.12916  0.49038  0.03229  1.0000
  H   H44       1.0  0.025109999999999997  0.55662  0.09356  1.0000
  H   H45       1.0  0.08142000000000002  0.63763  0.12806  1.0000
  H   H46       1.0  0.24555000000000018  0.63726  0.10183999999999997  1.0000
  H   H47       1.0  0.41600000000000004  0.51148  0.02055  1.0000
  H   H48       1.0  0.40412  0.56367  0.06158  1.0000
  H   H49       1.0  0.3295399999999999  0.6655300000000001  0.97714  1.0000
  H   H50       1.0  0.29145999999999994  0.72218  0.01925  1.0000
  H   H51       1.0  0.6422500000000001  0.63443  0.90371  1.0000
  H   H52       1.0  0.95751  0.6384999999999998  0.66529  1.0000
  H   H53       1.0  0.08273000000000005  0.48052999999999996  0.65685  1.0000
  H   H54       1.0  0.09917000000000004  0.3418999999999999  0.71651  1.0000
  H   H55       1.0  0.98939  0.37637999999999994  0.78285  1.0000
  H   H56       1.0  0.8491500000000001  0.48172000000000004  0.81907  1.0000
  H   H57       1.0  0.77158  0.5889600000000004  0.7896299999999998  1.0000
  H   H58       1.0  0.9404400000000005  0.5567199999999999  0.83302  1.0000
  H   H59       1.0  0.8823200000000003  0.65895  0.7963899999999998  1.0000
  H   H60       1.0  0.7796900000000001  0.7822600000000001  0.93211  1.0000
  H   H61       1.0  0.5969999999999999  0.7778300000000001  0.4299599999999999  1.0000
  H   H62       1.0  0.5439500000000004  0.85678  0.60774  1.0000
  H   H63       1.0  0.8461600000000005  0.63468  0.44149  1.0000
  H   H64       1.0  0.57881  0.3533  0.53406  1.0000
  H   H65       1.0  0.8278300000000001  0.1944500000000001  0.5164299999999997  1.0000
  H   H66       1.0  0.7796100000000004  0.1406200000000001  0.35154  1.0000
  H   H67       1.0  0.09019000000000002  0.07043  0.41153  1.0000
  H   H68       1.0  0.07646000000000003  0.05072999999999999  0.34425  1.0000
  H   H69       1.0  0.21329000000000006  0.91546  0.31309  1.0000
  H   H70       1.0  0.35901  0.80976  0.35186  1.0000
  H   H71       1.0  0.37098  0.8199400000000001  0.45723999999999987  1.0000
  H   H72       1.0  0.43273000000000006  0.75881  0.41592  1.0000
  H   H73       1.0  0.4139500000000003  0.9518800000000001  0.41637  1.0000
  H   H74       1.0  0.48639000000000027  0.8820900000000004  0.379  1.0000
  H   H75       1.0  0.7192799999999997  0.7528000000000002  0.44534  1.0000
  H   H76       1.0  0.70209  0.8522199999999999  0.78821  1.0000
  H   H77       1.0  0.54597  0.9621200000000004  0.8192  1.0000
  H   H78       1.0  0.38773000000000024  0.00497  0.79146  1.0000
  H   H79       1.0  0.40154000000000006  0.93731  0.73174  1.0000
  H   H80       1.0  0.6347300000000001  0.76271  0.68807  1.0000
  H   H81       1.0  0.5060299999999999  0.8181600000000001  0.68715  1.0000
  H   H82       1.0  0.6410200000000005  0.91618  0.65214  1.0000
  H   H83       1.0  0.5119700000000005  0.96945  0.65205  1.0000
  H   H84       1.0  0.5336299999999999  0.8872100000000002  0.54492  1.0000
  H   H85       1.0  0.3814  0.39622000000000007  0.42267  1.0000
  H   H86       1.0  0.4003800000000002  0.32954  0.36196  1.0000
  H   H87       1.0  0.24741000000000019  0.3428800000000001  0.34073  1.0000
  H   H88       1.0  0.08794000000000005  0.42027  0.38207  1.0000
  H   H89       1.0  0.010559999999999922  0.4610500000000002  0.45425  1.0000
  H   H90       1.0  0.06514000000000002  0.50977  0.47548  1.0000
  H   H91       1.0  0.9857000000000004  0.5922400000000002  0.39135  1.0000
  H   H92       1.0  0.038129999999999976  0.6396300000000001  0.41454  1.0000
  H   H93       1.0  0.84769  0.7548400000000002  0.54355  1.0000
  H   H94       1.0  0.06151000000000007  0.62537  0.53268  1.0000
  H   H95       1.0  0.017259999999999876  0.7026300000000002  0.59166  1.0000
  H   H96       1.0  0.13797999999999996  0.64003  0.64393  1.0000
  H   H97       1.0  0.29547000000000007  0.49639  0.63384  1.0000
  H   H98       1.0  0.3917300000000003  0.36220000000000036  0.5972799999999998  1.0000
  H   H99       1.0  0.3546200000000002  0.36943  0.54981  1.0000
  H   H100      1.0  0.4533  0.48052000000000006  0.56292  1.0000
  H   H101      1.0  0.38828000000000024  0.51361  0.52056  1.0000
  H   H102      1.0  0.70355  0.3096700000000002  0.49258  1.0000
  H   H103      1.0  0.34807  0.9902100000000001  0.53271  1.0000
  H   H104      1.0  0.32426000000000005  0.05763999999999998  0.59367  1.0000
  H   H105      1.0  0.15242  0.13843  0.62815  1.0000
  H   H106      1.0  0.015119999999999958  0.13736000000000004  0.60206  1.0000
  H   H107      1.0  0.052160000000000005  0.011270000000000006  0.52076  1.0000
  H   H108      1.0  0.9704800000000003  0.06354000000000004  0.56169  1.0000
  H   H109      1.0  0.028139999999999978  0.16517000000000012  0.47726  1.0000
  H   H110      1.0  0.9672100000000003  0.22218  0.51928  1.0000
  H   H111      1.0  0.81991  0.13426  0.40351  1.0000
  H   H112      1.0  0.7383500000000002  0.13827999999999996  0.16538  1.0000
  H   H113      1.0  0.7796700000000002  0.9802900000000002  0.15692  1.0000
  H   H114      1.0  0.8423100000000001  0.84162  0.21655  1.0000
  H   H115      1.0  0.8512199999999999  0.8762200000000002  0.28291  1.0000
  H   H116      1.0  0.8500900000000003  0.9814799999999999  0.31907  1.0000
  H   H117      1.0  0.84986  0.08878  0.28958  1.0000
  H   H118      1.0  0.6700600000000004  0.05641999999999998  0.33309  1.0000
  H   H119      1.0  0.6624700000000002  0.15868000000000002  0.29642  1.0000
  H   H120      1.0  0.5062800000000003  0.28191  0.43219  1.0000
  H   H121      1.0  0.4029900000000002  0.22217000000000003  0.57003  1.0000
  H   H122      1.0  0.45604  0.14322000000000007  0.3922499999999999  1.0000
  H   H123      1.0  0.15383000000000022  0.36532  0.55851  1.0000
  H   H124      1.0  0.42117999999999994  0.6467  0.46594  1.0000
  H   H125      1.0  0.17214999999999986  0.8055500000000002  0.48357  1.0000
  H   H126      1.0  0.22036999999999998  0.8593800000000001  0.64846  1.0000
  H   H127      1.0  0.9098000000000004  0.9295700000000001  0.58847  1.0000
  H   H128      1.0  0.9235299999999996  0.9492700000000004  0.65574  1.0000
  H   H129      1.0  0.7867  0.08454000000000003  0.68691  1.0000
  H   H130      1.0  0.6409700000000005  0.19024000000000002  0.64814  1.0000
  H   H131      1.0  0.6290100000000003  0.18006000000000003  0.54276  1.0000
  H   H132      1.0  0.5672600000000001  0.2411900000000001  0.5840799999999998  1.0000
  H   H133      1.0  0.5860400000000003  0.048120000000000114  0.5836299999999998  1.0000
  H   H134      1.0  0.51359  0.11790999999999999  0.62099  1.0000
  H   H135      1.0  0.28071  0.24720000000000003  0.55466  1.0000
  H   H136      1.0  0.29789999999999994  0.14778  0.21179  1.0000
  H   H137      1.0  0.4540200000000001  0.03788000000000003  0.18078999999999995  1.0000
  H   H138      1.0  0.6122600000000001  0.99503  0.20854  1.0000
  H   H139      1.0  0.5984499999999999  0.06269  0.26825  1.0000
  H   H140      1.0  0.3652599999999999  0.23729  0.31192  1.0000
  H   H141      1.0  0.4939600000000002  0.18183999999999997  0.31285  1.0000
  H   H142      1.0  0.35897000000000007  0.08382000000000002  0.34786  1.0000
  H   H143      1.0  0.4880200000000002  0.030550000000000074  0.3479399999999999  1.0000
  H   H144      1.0  0.4663600000000002  0.11279  0.45507  1.0000
  H   H145      1.0  0.6185900000000003  0.60378  0.57732  1.0000
  H   H146      1.0  0.59961  0.6704600000000002  0.63803  1.0000
  H   H147      1.0  0.75258  0.65712  0.65927  1.0000
  H   H148      1.0  0.9120500000000001  0.57973  0.61792  1.0000
  H   H149      1.0  0.9894300000000001  0.53895  0.54574  1.0000
  H   H150      1.0  0.9348400000000008  0.49023  0.52451  1.0000
  H   H151      1.0  0.01427999999999995  0.4077600000000001  0.60864  1.0000
  H   H152      1.0  0.9618600000000009  0.36036999999999997  0.58545  1.0000
  H   H153      1.0  0.15230000000000002  0.24517  0.45645  1.0000
  H   H154      1.0  0.9384800000000001  0.37462999999999996  0.46732  1.0000
  H   H155      1.0  0.9827200000000005  0.29736999999999997  0.40833  1.0000
  H   H156      1.0  0.86201  0.35998  0.35606  1.0000
  H   H157      1.0  0.7045200000000004  0.50361  0.36616  1.0000
  H   H158      1.0  0.60825  0.6378  0.40272  1.0000
  H   H159      1.0  0.6453600000000003  0.63057  0.45018999999999987  1.0000
  H   H160      1.0  0.5466900000000003  0.51948  0.43707  1.0000
  H   H161      1.0  0.6117  0.48639000000000004  0.47944  1.0000
  H   H162      1.0  0.29644000000000004  0.6903300000000001  0.50742  1.0000
  H   H163      1.0  0.6519200000000003  0.009789999999999978  0.46729  1.0000
  H   H164      1.0  0.6757300000000004  0.9423600000000001  0.40632  1.0000
  H   H165      1.0  0.8475600000000001  0.86157  0.3718499999999999  1.0000
  H   H166      1.0  0.98486  0.86264  0.39793  1.0000
  H   H167      1.0  0.9478300000000002  0.9887300000000002  0.4792399999999999  1.0000
  H   H168      1.0  0.02950999999999976  0.9364600000000004  0.4383  1.0000
  H   H169      1.0  0.97184  0.83483  0.52273  1.0000
  H   H170      1.0  0.03278000000000002  0.7778200000000001  0.48071999999999987  1.0000
  H   H171      1.0  0.18008000000000007  0.8657499999999999  0.59648  1.0000
  H   H172      1.0  0.2616300000000001  0.86172  0.83462  1.0000
  H   H173      1.0  0.22032  0.01970999999999998  0.84308  1.0000
  H   H174      1.0  0.15768000000000001  0.15838000000000002  0.78344  1.0000
  H   H175      1.0  0.14877000000000004  0.12378000000000004  0.71709  1.0000
  H   H176      1.0  0.1499  0.01852  0.68093  1.0000
  H   H177      1.0  0.15012999999999985  0.91122  0.71042  1.0000
  H   H178      1.0  0.32993000000000017  0.9435800000000001  0.66691  1.0000
  H   H179      1.0  0.3375200000000001  0.84132  0.70358  1.0000
  H   H180      1.0  0.49371000000000004  0.71809  0.5678  1.0000
  H   H181      1.0  0.8019199999999999  0.7232000000000001  0.06974  1.0000
  H   H182      1.0  0.007370000000000021  0.6433600000000002  0.8923499999999998  1.0000
  H   H183      1.0  0.9231999999999998  0.8641800000000002  0.05874  1.0000
  H   H184      1.0  0.46568  0.14636000000000005  0.96588  1.0000
  H   H185      1.0  0.5376000000000003  0.30707000000000007  0.9833099999999998  1.0000
  H   H186      1.0  0.27152000000000015  0.35993  0.14814999999999995  1.0000
  H   H187      1.0  0.56988  0.43105  0.08831  1.0000
  H   H188      1.0  0.4701300000000001  0.44972  0.15582  1.0000
  H   H189      1.0  0.4407900000000001  0.5845  0.1873  1.0000
  H   H190      1.0  0.51888  0.69084  0.14854  1.0000
  H   H191      1.0  0.6466700000000002  0.68119  0.04313  1.0000
  H   H192      1.0  0.60594  0.74211  0.08457  1.0000
  H   H193      1.0  0.7795400000000005  0.54847  0.08483  1.0000
  H   H194      1.0  0.7451900000000001  0.6196800000000002  0.12157  1.0000
  H   H195      1.0  0.9169300000000002  0.7471800000000002  0.0551  1.0000
  H   H196      1.0  0.34229000000000004  0.64772  0.71194  1.0000
  H   H197      1.0  0.3268300000000001  0.5380600000000002  0.68085  1.0000
  H   H198      1.0  0.18391999999999994  0.49488000000000004  0.70866  1.0000
  H   H199      1.0  0.07074999999999995  0.5621300000000004  0.7685099999999998  1.0000
  H   H200      1.0  0.08591999999999984  0.7364900000000002  0.81234  1.0000
  H   H201      1.0  0.011580000000000016  0.68128  0.81312  1.0000
  H   H202      1.0  0.20873999999999998  0.5832300000000001  0.84862  1.0000
  H   H203      1.0  0.13329  0.52972  0.84834  1.0000
  H   H204      1.0  0.9642200000000005  0.61173  0.9560299999999998  1.0000
  H   H205      1.0  0.19946000000000014  0.10464  0.07683  1.0000
  H   H206      1.0  0.09114000000000001  0.17145000000000005  0.13752  1.0000
  H   H207      1.0  0.93059  0.15753  0.15896  1.0000
  H   H208      1.0  0.8902  0.07926  0.11786  1.0000
  H   H209      1.0  0.9256700000000002  0.03790000000000001  0.04592  1.0000
  H   H210      1.0  0.04995999999999996  0.99015  0.02439  1.0000
  H   H211      1.0  0.97041  0.90682  0.10869999999999998  1.0000
  H   H212      1.0  0.09317000000000002  0.8600700000000001  0.08527  1.0000
  H   H213      1.0  0.14637  0.7425400000000001  0.95692  1.0000
  H   H214      1.0  0.21885999999999992  0.87458  0.96707  1.0000
  H   H215      1.0  0.3112200000000001  0.7970999999999999  0.90822  1.0000
  H   H216      1.0  0.42230999999999985  0.8592200000000001  0.85619  1.0000
  H   H217      1.0  0.42626  0.0027699999999999834  0.86639  1.0000
  H   H218      1.0  0.3513900000000002  0.13718000000000002  0.90275  1.0000
  H   H219      1.0  0.27354000000000006  0.13033999999999998  0.95012  1.0000
  H   H220      1.0  0.49642000000000003  0.018369999999999977  0.9373  1.0000
  H   H221      1.0  0.4214799999999999  0.98612  0.97963  1.0000
  H   H222      1.0  0.5055200000000002  0.19005000000000005  0.00728  1.0000
  H   H223      1.0  0.87083  0.5096200000000002  0.9677  1.0000
  H   H224      1.0  0.97488  0.44338000000000005  0.90644  1.0000
  H   H225      1.0  0.9185700000000003  0.3623700000000002  0.8719399999999998  1.0000
  H   H226      1.0  0.7544299999999998  0.36273999999999995  0.89815  1.0000
  H   H227      1.0  0.58399  0.48852  0.97944  1.0000
  H   H228      1.0  0.5958700000000002  0.4363300000000002  0.93842  1.0000
  H   H229      1.0  0.6704500000000003  0.33447000000000005  0.02285  1.0000
  H   H230      1.0  0.7085299999999995  0.27782  0.98075  1.0000
  H   H231      1.0  0.35774000000000017  0.36557000000000006  0.09628  1.0000
  H   H232      1.0  0.04248000000000002  0.36151  0.33471  1.0000
  H   H233      1.0  0.9172599999999999  0.51947  0.34314  1.0000
  H   H234      1.0  0.9008100000000001  0.6581  0.28349  1.0000
  H   H235      1.0  0.010590000000000023  0.62362  0.21715  1.0000
  H   H236      1.0  0.15083999999999992  0.5182800000000002  0.18093  1.0000
  H   H237      1.0  0.2284  0.41104  0.21035999999999994  1.0000
  H   H238      1.0  0.059539999999999954  0.4432800000000001  0.16697  1.0000
  H   H239      1.0  0.11765999999999999  0.34106000000000003  0.20360999999999996  1.0000
  H   H240      1.0  0.2202900000000001  0.21774000000000004  0.06788  1.0000
  C   C1        1.0  0.44209000000000004  0.51277  0.89724  1.0000
  C   C2        1.0  0.49883000000000033  0.50124  0.85946  1.0000
  C   C3        1.0  0.5148100000000004  0.4267699999999999  0.84216  1.0000
  C   C4        1.0  0.4714600000000003  0.36747  0.86377  1.0000
  C   C5        1.0  0.4141400000000003  0.3828600000000002  0.9014499999999998  1.0000
  C   C6        1.0  0.35799000000000014  0.32758  0.92327  1.0000
  C   C7        1.0  0.2528199999999999  0.3789400000000002  0.91106  1.0000
  C   C8        1.0  0.13956000000000005  0.3620600000000002  0.97285  1.0000
  C   C9        1.0  0.07163  0.3198299999999999  0.9938200000000001  1.0000
  C   C10       1.0  0.04974000000000012  0.2653300000000001  0.9756899999999997  1.0000
  C   C11       1.0  0.71603  0.37395000000000017  0.27608  1.0000
  C   C12       1.0  0.7260800000000003  0.43472000000000005  0.29353  1.0000
  C   C13       1.0  0.80432  0.45894  0.27815  1.0000
  C   C14       1.0  0.8678000000000003  0.42108000000000007  0.24455  1.0000
  C   C15       1.0  0.8530199999999999  0.3625000000000001  0.22717  1.0000
  C   C16       1.0  0.91259  0.33031  0.18853  1.0000
  C   C17       1.0  0.8670500000000001  0.4042299999999999  0.15052  1.0000
  C   C18       1.0  0.8785200000000001  0.35318  0.08733  1.0000
  C   C19       1.0  0.9405500000000001  0.3221400000000002  0.04934  1.0000
  C   C20       1.0  0.018210000000000014  0.34545  0.031029999999999995  1.0000
  C   C21       1.0  0.8694200000000002  0.8997899999999999  0.91222  1.0000
  C   C22       1.0  0.9299899999999997  0.8640000000000003  0.87833  1.0000
  C   C23       1.0  0.018630000000000025  0.87064  0.86702  1.0000
  C   C24       1.0  0.04168000000000005  0.91403  0.88995  1.0000
  C   C25       1.0  0.9775100000000001  0.94925  0.92365  1.0000
  C   C26       1.0  0.9988100000000001  0.0014499999999999743  0.94658  1.0000
  C   C27       1.0  0.9833000000000001  0.09941999999999998  0.92098  1.0000
  C   C28       1.0  0.9418500000000004  0.19052999999999995  0.97425  1.0000
  C   C29       1.0  0.9710500000000001  0.2423  0.9936700000000002  1.0000
  C   C30       1.0  0.9161500000000001  0.27226  0.02981  1.0000
  C   C31       1.0  0.7360699999999999  0.0978  0.05638  1.0000
  C   C32       1.0  0.68451  0.14046999999999998  0.08964  1.0000
  C   C33       1.0  0.6227999999999999  0.10635  0.11847  1.0000
  C   C34       1.0  0.6198500000000002  0.027209999999999998  0.11245  1.0000
  C   C35       1.0  0.6732300000000001  0.98657  0.07861999999999997  1.0000
  C   C36       1.0  0.6604999999999999  0.91021  0.06897  1.0000
  C   C37       1.0  0.57347  0.95433  0.04328999999999999  1.0000
  C   C38       1.0  0.6393900000000002  0.86876  0.9868999999999999  1.0000
  C   C39       1.0  0.6391400000000006  0.8021600000000002  0.9658399999999998  1.0000
  C   C40       1.0  0.5607900000000003  0.77663  0.97278  1.0000
  C   C41       1.0  0.15161  0.52344  0.04886  1.0000
  C   C42       1.0  0.09418000000000003  0.56108  0.08298  1.0000
  C   C43       1.0  0.12626000000000004  0.60433  0.1023  1.0000
  C   C44       1.0  0.2169399999999999  0.6054  0.08744  1.0000
  C   C45       1.0  0.27199999999999996  0.56632  0.05315  1.0000
  C   C46       1.0  0.3675500000000001  0.5705800000000002  0.03602  1.0000
  C   C47       1.0  0.35128000000000015  0.66419  0.00585  1.0000
  C   C48       1.0  0.48820999999999987  0.6824000000000001  0.95627  1.0000
  C   C49       1.0  0.5649200000000001  0.7156899999999999  0.94978  1.0000
  C   C50       1.0  0.6427599999999999  0.6827400000000001  0.91967  1.0000
  C   C51       1.0  0.9663000000000004  0.57855  0.69039  1.0000
  C   C52       1.0  0.03600000000000002  0.48926  0.68598  1.0000
  C   C53       1.0  0.04599999999999994  0.41300000000000003  0.71913  1.0000
  C   C54       1.0  0.9839999999999999  0.43242000000000025  0.7560399999999998  1.0000
  C   C55       1.0  0.91439  0.5227  0.75901  1.0000
  C   C56       1.0  0.8473400000000001  0.5459  0.79774  1.0000
  C   C57       1.0  0.8714300000000006  0.60154  0.81943  1.0000
  C   C58       1.0  0.8051500000000001  0.67506  0.88086  1.0000
  C   C59       1.0  0.7219399999999999  0.7065599999999999  0.91268  1.0000
  C   C60       1.0  0.7186100000000003  0.7651800000000001  0.93662  1.0000
  C   C61       1.0  0.14870000000000005  0.014010000000000057  0.3972299999999999  1.0000
  C   C62       1.0  0.14125  0.001959999999999989  0.35956  1.0000
  C   C63       1.0  0.21698000000000003  0.9272199999999999  0.34244  1.0000
  C   C64       1.0  0.29802000000000006  0.86823  0.36406  1.0000
  C   C65       1.0  0.3021500000000002  0.884  0.40168  1.0000
  C   C66       1.0  0.39147000000000004  0.82859  0.42367  1.0000
  C   C67       1.0  0.4578  0.87963  0.4117  1.0000
  C   C68       1.0  0.5265200000000003  0.86165  0.47335  1.0000
  C   C69       1.0  0.61555  0.81929  0.4944799999999999  1.0000
  C   C70       1.0  0.7098400000000001  0.76481  0.4761799999999999  1.0000
  C   C71       1.0  0.6340899999999999  0.8738000000000001  0.77625  1.0000
  C   C72       1.0  0.54587  0.93468  0.79365  1.0000
  C   C73       1.0  0.4588000000000001  0.9587200000000002  0.7783199999999998  1.0000
  C   C74       1.0  0.4666699999999999  0.9206300000000001  0.74481  1.0000
  C   C75       1.0  0.5573900000000003  0.8618800000000004  0.72751  1.0000
  C   C76       1.0  0.5686800000000003  0.8295800000000001  0.68891  1.0000
  C   C77       1.0  0.5788600000000004  0.9034900000000005  0.6509799999999998  1.0000
  C   C78       1.0  0.6829500000000006  0.8509000000000003  0.58823  1.0000
  C   C79       1.0  0.6897099999999999  0.82055  0.55002  1.0000
  C   C80       1.0  0.6066700000000005  0.84445  0.53175  1.0000
  C   C81       1.0  0.31898999999999994  0.40048  0.41181  1.0000
  C   C82       1.0  0.32802000000000003  0.36478999999999995  0.3779  1.0000
  C   C83       1.0  0.24409999999999998  0.3710200000000002  0.36670999999999987  1.0000
  C   C84       1.0  0.15483999999999995  0.41404000000000013  0.3897599999999999  1.0000
  C   C85       1.0  0.15013  0.44921000000000005  0.42348  1.0000
  C   C86       1.0  0.05372000000000001  0.50097  0.44656  1.0000
  C   C87       1.0  0.99619  0.59878  0.42095  1.0000
  C   C88       1.0  0.8939500000000004  0.6896100000000001  0.47431  1.0000
  C   C89       1.0  0.7939300000000005  0.74124  0.49402999999999997  1.0000
  C   C90       1.0  0.7832500000000004  0.77057  0.53031  1.0000
  C   C91       1.0  0.11063999999999996  0.59768  0.55618  1.0000
  C   C92       1.0  0.08609000000000011  0.6402200000000001  0.5895099999999998  1.0000
  C   C93       1.0  0.15279999999999988  0.6058600000000002  0.61848  1.0000
  C   C94       1.0  0.24086000000000002  0.5266600000000002  0.61251  1.0000
  C   C95       1.0  0.26222  0.48623999999999995  0.57858  1.0000
  C   C96       1.0  0.36091  0.40979  0.569  1.0000
  C   C97       1.0  0.4297700000000003  0.4537300000000001  0.54342  1.0000
  C   C98       1.0  0.5056099999999999  0.3682500000000002  0.48696  1.0000
  C   C99       1.0  0.5934699999999998  0.3018200000000001  0.46579  1.0000
  C   C100      1.0  0.6904200000000001  0.2764300000000001  0.47262  1.0000
  C   C101      1.0  0.27591000000000016  0.023620000000000023  0.54914  1.0000
  C   C102      1.0  0.26144  0.06168999999999999  0.58314  1.0000
  C   C103      1.0  0.16675000000000006  0.10494000000000013  0.6024299999999998  1.0000
  C   C104      1.0  0.08997000000000009  0.10562  0.58763  1.0000
  C   C105      1.0  0.10835  0.06635  0.55339  1.0000
  C   C106      1.0  0.02580000000000001  0.07048999999999998  0.53619  1.0000
  C   C107      1.0  0.9788700000000001  0.16406  0.50592  1.0000
  C   C108      1.0  0.8737000000000001  0.1817  0.45628  1.0000
  C   C109      1.0  0.7701800000000001  0.2154000000000001  0.44963  1.0000
  C   C110      1.0  0.7552200000000002  0.18249000000000007  0.4195399999999999  1.0000
  C   C111      1.0  0.7646200000000002  0.07831  0.19044  1.0000
  C   C112      1.0  0.7885900000000003  0.9890200000000002  0.18603  1.0000
  C   C113      1.0  0.8217100000000003  0.9127400000000002  0.21917  1.0000
  C   C114      1.0  0.8274399999999997  0.9321700000000003  0.25607  1.0000
  C   C115      1.0  0.80387  0.022449999999999987  0.25902  1.0000
  C   C116      1.0  0.8091100000000002  0.04564000000000001  0.29772  1.0000
  C   C117      1.0  0.7077800000000002  0.10128  0.31944  1.0000
  C   C118      1.0  0.63911  0.17492999999999997  0.38079  1.0000
  C   C119      1.0  0.6591400000000001  0.20638000000000012  0.41259  1.0000
  C   C120      1.0  0.5800000000000002  0.26483  0.43662  1.0000
  C   C121      1.0  0.8512799999999997  0.9859900000000004  0.60276  1.0000
  C   C122      1.0  0.8587400000000002  0.9980400000000003  0.64043  1.0000
  C   C123      1.0  0.7830100000000004  0.07278999999999998  0.65756  1.0000
  C   C124      1.0  0.7019599999999999  0.13177000000000003  0.63593  1.0000
  C   C125      1.0  0.6978400000000002  0.11600000000000008  0.5983099999999998  1.0000
  C   C126      1.0  0.6085200000000004  0.17141  0.57633  1.0000
  C   C127      1.0  0.5421800000000001  0.12036999999999999  0.58829  1.0000
  C   C128      1.0  0.47346  0.1383500000000001  0.52665  1.0000
  C   C129      1.0  0.38443999999999995  0.18071000000000004  0.50552  1.0000
  C   C130      1.0  0.29015000000000024  0.23519  0.52381  1.0000
  C   C131      1.0  0.3659000000000002  0.1262  0.22375  1.0000
  C   C132      1.0  0.45412  0.06532000000000002  0.20635  1.0000
  C   C133      1.0  0.5411900000000002  0.04128000000000001  0.22168  1.0000
  C   C134      1.0  0.53332  0.07937  0.25518  1.0000
  C   C135      1.0  0.4426  0.13812000000000002  0.27249  1.0000
  C   C136      1.0  0.4313100000000001  0.17042000000000002  0.31109  1.0000
  C   C137      1.0  0.4211300000000002  0.09651  0.34902  1.0000
  C   C138      1.0  0.31703000000000015  0.14910000000000007  0.4117599999999999  1.0000
  C   C139      1.0  0.31028  0.17945  0.44998  1.0000
  C   C140      1.0  0.39331000000000016  0.15555000000000002  0.4682499999999999  1.0000
  C   C141      1.0  0.6809899999999999  0.59952  0.58819  1.0000
  C   C142      1.0  0.6719700000000005  0.6352099999999999  0.6221  1.0000
  C   C143      1.0  0.75589  0.62898  0.63328  1.0000
  C   C144      1.0  0.8451400000000004  0.58596  0.61024  1.0000
  C   C145      1.0  0.84986  0.5508000000000002  0.57652  1.0000
  C   C146      1.0  0.9462700000000004  0.49904  0.55344  1.0000
  C   C147      1.0  0.003799999999999848  0.40122000000000024  0.57905  1.0000
  C   C148      1.0  0.10604000000000002  0.31039  0.52569  1.0000
  C   C149      1.0  0.20605999999999997  0.2587600000000001  0.50597  1.0000
  C   C150      1.0  0.21673999999999996  0.22943000000000005  0.46969  1.0000
  C   C151      1.0  0.88935  0.40232  0.44381  1.0000
  C   C152      1.0  0.9138900000000001  0.35978000000000004  0.41049  1.0000
  C   C153      1.0  0.84719  0.39414  0.38152  1.0000
  C   C154      1.0  0.75912  0.47334  0.38749  1.0000
  C   C155      1.0  0.7377699999999997  0.5137600000000002  0.42142  1.0000
  C   C156      1.0  0.63907  0.59021  0.431  1.0000
  C   C157      1.0  0.57022  0.54628  0.45658  1.0000
  C   C158      1.0  0.49437000000000025  0.63175  0.51304  1.0000
  C   C159      1.0  0.40652000000000016  0.69819  0.53421  1.0000
  C   C160      1.0  0.30957  0.72357  0.52738  1.0000
  C   C161      1.0  0.72408  0.9763800000000005  0.45085  1.0000
  C   C162      1.0  0.7385499999999998  0.9383100000000003  0.41685  1.0000
  C   C163      1.0  0.8332400000000001  0.89506  0.39757  1.0000
  C   C164      1.0  0.9100199999999999  0.8943800000000003  0.4123599999999999  1.0000
  C   C165      1.0  0.8916400000000004  0.93366  0.4466  1.0000
  C   C166      1.0  0.97418  0.9295100000000004  0.46381  1.0000
  C   C167      1.0  0.0211199999999999  0.8359400000000002  0.49407  1.0000
  C   C168      1.0  0.1262899999999999  0.8183000000000002  0.54371  1.0000
  C   C169      1.0  0.22980999999999985  0.7846000000000002  0.55036  1.0000
  C   C170      1.0  0.2447699999999999  0.81751  0.58046  1.0000
  C   C171      1.0  0.2353700000000001  0.92169  0.80956  1.0000
  C   C172      1.0  0.2114000000000001  0.010980000000000083  0.8139699999999997  1.0000
  C   C173      1.0  0.17827000000000007  0.08726000000000009  0.7808299999999998  1.0000
  C   C174      1.0  0.1725500000000001  0.06782999999999997  0.74393  1.0000
  C   C175      1.0  0.19612000000000002  0.97755  0.74098  1.0000
  C   C176      1.0  0.19087999999999977  0.9543600000000004  0.70227  1.0000
  C   C177      1.0  0.2922000000000001  0.89872  0.68056  1.0000
  C   C178      1.0  0.3608800000000003  0.8250700000000001  0.61921  1.0000
  C   C179      1.0  0.34085000000000004  0.7936200000000002  0.58741  1.0000
  C   C180      1.0  0.4199899999999999  0.73517  0.56337  1.0000
  C   C181      1.0  0.5579  0.48723  0.10275  1.0000
  C   C182      1.0  0.50116  0.49876  0.14054  1.0000
  C   C183      1.0  0.4851700000000002  0.57323  0.15784  1.0000
  C   C184      1.0  0.5285300000000003  0.63253  0.13623  1.0000
  C   C185      1.0  0.58585  0.61714  0.09855  1.0000
  C   C186      1.0  0.6420000000000001  0.6724200000000001  0.07673  1.0000
  C   C187      1.0  0.7471700000000003  0.62106  0.08894  1.0000
  C   C188      1.0  0.86043  0.6379400000000002  0.02715  1.0000
  C   C189      1.0  0.92835  0.6801700000000002  0.00618  1.0000
  C   C190      1.0  0.9502500000000002  0.73467  0.02431  1.0000
  C   C191      1.0  0.2839600000000001  0.62605  0.72392  1.0000
  C   C192      1.0  0.27391000000000015  0.56528  0.70647  1.0000
  C   C193      1.0  0.19566000000000014  0.54106  0.72184  1.0000
  C   C194      1.0  0.13218000000000027  0.5789200000000001  0.7554399999999998  1.0000
  C   C195      1.0  0.14695999999999976  0.6375000000000004  0.77283  1.0000
  C   C196      1.0  0.08739999999999994  0.6696900000000001  0.81147  1.0000
  C   C197      1.0  0.13294  0.59577  0.84948  1.0000
  C   C198      1.0  0.12146999999999995  0.6468200000000001  0.91266  1.0000
  C   C199      1.0  0.05943000000000009  0.67786  0.95066  1.0000
  C   C200      1.0  0.9817700000000004  0.65455  0.96897  1.0000
  C   C201      1.0  0.13057000000000005  0.10021  0.08778  1.0000
  C   C202      1.0  0.07  0.13600000000000004  0.12167  1.0000
  C   C203      1.0  0.9813500000000004  0.12936  0.13298  1.0000
  C   C204      1.0  0.9583100000000004  0.08597000000000003  0.11005  1.0000
  C   C205      1.0  0.022480000000000003  0.05075  0.07634999999999999  1.0000
  C   C206      1.0  0.001179999999999872  0.9985500000000002  0.05342  1.0000
  C   C207      1.0  0.01668999999999995  0.90058  0.07902  1.0000
  C   C208      1.0  0.05813999999999993  0.8094700000000002  0.02575  1.0000
  C   C209      1.0  0.02893999999999989  0.7577000000000003  0.00633  1.0000
  C   C210      1.0  0.08384000000000003  0.7277399999999999  0.97018  1.0000
  C   C211      1.0  0.2639200000000001  0.9022  0.94361  1.0000
  C   C212      1.0  0.31548000000000004  0.8595300000000001  0.9103599999999997  1.0000
  C   C213      1.0  0.3771900000000001  0.8936499999999999  0.88153  1.0000
  C   C214      1.0  0.3801399999999999  0.9727900000000002  0.88755  1.0000
  C   C215      1.0  0.3267600000000002  0.013430000000000032  0.92138  1.0000
  C   C216      1.0  0.33949000000000024  0.08978999999999995  0.93102  1.0000
  C   C217      1.0  0.42651  0.04566999999999998  0.95671  1.0000
  C   C218      1.0  0.36059000000000013  0.13124  0.0131  1.0000
  C   C219      1.0  0.3608500000000001  0.19784  0.03416  1.0000
  C   C220      1.0  0.43920000000000015  0.22337  0.02721  1.0000
  C   C221      1.0  0.8483799999999998  0.4765600000000002  0.95113  1.0000
  C   C222      1.0  0.9058100000000003  0.43892000000000003  0.91702  1.0000
  C   C223      1.0  0.87372  0.39567  0.8977  1.0000
  C   C224      1.0  0.7830399999999998  0.39459999999999995  0.91255  1.0000
  C   C225      1.0  0.7279900000000001  0.43368  0.94685  1.0000
  C   C226      1.0  0.6324400000000002  0.4294200000000001  0.96398  1.0000
  C   C227      1.0  0.6487100000000005  0.3358100000000001  0.9941499999999999  1.0000
  C   C228      1.0  0.51178  0.3176  0.043729999999999984  1.0000
  C   C229      1.0  0.43507  0.2843100000000001  0.05021  1.0000
  C   C230      1.0  0.35723  0.31726  0.08033  1.0000
  C   C231      1.0  0.03368999999999999  0.42145  0.30961  1.0000
  C   C232      1.0  0.9639900000000001  0.5107400000000002  0.31402  1.0000
  C   C233      1.0  0.9539900000000003  0.587  0.28087  1.0000
  C   C234      1.0  0.01598000000000006  0.56758  0.24395999999999995  1.0000
  C   C235      1.0  0.08559  0.4773  0.24099  1.0000
  C   C236      1.0  0.15264999999999995  0.4541000000000001  0.20226  1.0000
  C   C237      1.0  0.12855999999999995  0.3984600000000002  0.18056  1.0000
  C   C238      1.0  0.19483999999999996  0.32494000000000006  0.11914  1.0000
  C   C239      1.0  0.27804999999999996  0.29344000000000003  0.08732  1.0000
  C   C240      1.0  0.28137000000000006  0.23482000000000003  0.06338  1.0000
  N   N1        1.0  0.4005500000000001  0.45463999999999993  0.91839  1.0000
  N   N2        1.0  0.18868000000000018  0.33818  0.93544  1.0000
  N   N3        1.0  0.77761  0.3374200000000001  0.24317  1.0000
  N   N4        1.0  0.9188300000000004  0.37591  0.11192  1.0000
  N   N5        1.0  0.89175  0.94181  0.93486  1.0000
  N   N6        1.0  0.004940000000000024  0.15255000000000002  0.94164  1.0000
  N   N7        1.0  0.7317300000000002  0.021510000000000005  0.04998  1.0000
  N   N8        1.0  0.57359  0.89068  0.0213  1.0000
  N   N9        1.0  0.23818000000000006  0.5275  0.03358  1.0000
  N   N10       1.0  0.4378299999999998  0.6807200000000003  0.9947799999999999  1.0000
  N   N11       1.0  0.9032300000000004  0.59717  0.72575  1.0000
  N   N12       1.0  0.7942399999999998  0.6382100000000002  0.85179  1.0000
  N   N13       1.0  0.22706  0.95603  0.41846  1.0000
  N   N14       1.0  0.5387500000000004  0.8379000000000002  0.43592  1.0000
  N   N15       1.0  0.6418600000000003  0.8369700000000001  0.74347  1.0000
  N   N16       1.0  0.5944499999999999  0.8753900000000002  0.61229  1.0000
  N   N17       1.0  0.23209000000000013  0.4421  0.43459  1.0000
  N   N18       1.0  0.9008400000000002  0.6516600000000002  0.44176  1.0000
  N   N19       1.0  0.19762000000000013  0.52132  0.54984  1.0000
  N   N20       1.0  0.5151300000000001  0.39003  0.52139  1.0000
  N   N21       1.0  0.20062000000000002  0.02743  0.53389  1.0000
  N   N22       1.0  0.8869200000000005  0.18069000000000005  0.49473999999999996  1.0000
  N   N23       1.0  0.7737600000000002  0.09696  0.22579  1.0000
  N   N24       1.0  0.7160600000000003  0.13789000000000004  0.35178  1.0000
  N   N25       1.0  0.7729300000000001  0.043970000000000016  0.58154  1.0000
  N   N26       1.0  0.46124000000000004  0.1621  0.56408  1.0000
  N   N27       1.0  0.35813000000000006  0.16303000000000012  0.25652999999999987  1.0000
  N   N28       1.0  0.40553000000000017  0.12461000000000007  0.3877099999999999  1.0000
  N   N29       1.0  0.76789  0.5579  0.56541  1.0000
  N   N30       1.0  0.09913999999999991  0.3483400000000002  0.55824  1.0000
  N   N31       1.0  0.8023700000000001  0.47868  0.45015  1.0000
  N   N32       1.0  0.48486  0.60998  0.47861  1.0000
  N   N33       1.0  0.7993700000000001  0.9725699999999999  0.46611  1.0000
  N   N34       1.0  0.11305999999999991  0.8193100000000001  0.50526  1.0000
  N   N35       1.0  0.2262200000000001  0.9030399999999998  0.77421  1.0000
  N   N36       1.0  0.28392999999999996  0.86211  0.64822  1.0000
  N   N37       1.0  0.5994400000000002  0.54536  0.08161  1.0000
  N   N38       1.0  0.8113100000000004  0.6618200000000002  0.06455  1.0000
  N   N39       1.0  0.22238000000000002  0.66258  0.75683  1.0000
  N   N40       1.0  0.08116  0.62409  0.88807  1.0000
  N   N41       1.0  0.10823999999999999  0.05819  0.06513  1.0000
  N   N42       1.0  0.99505  0.84745  0.05835  1.0000
  N   N43       1.0  0.26825  0.97849  0.95001  1.0000
  N   N44       1.0  0.42640000000000006  0.10931999999999999  0.97869  1.0000
  N   N45       1.0  0.7618000000000004  0.47250000000000025  0.9664199999999997  1.0000
  N   N46       1.0  0.5621600000000002  0.31928000000000006  0.00522  1.0000
  N   N47       1.0  0.09676000000000001  0.40283  0.27424  1.0000
  N   N48       1.0  0.20574999999999996  0.3617900000000001  0.14821  1.0000
  O   O1        1.0  0.14764999999999995  0.42126  0.986  1.0000
  O   O2        1.0  0.7930300000000002  0.36064  0.09551  1.0000
  O   O3        1.0  0.8636500000000001  0.18294000000000005  0.9856  1.0000
  O   O4        1.0  0.6948100000000001  0.90873  0.97373  1.0000
  O   O5        1.0  0.47179999999999994  0.6578  0.92844  1.0000
  O   O6        1.0  0.88291  0.68252  0.87861  1.0000
  O   O7        1.0  0.4459000000000002  0.92108  0.4862  1.0000
  O   O8        1.0  0.7531899999999998  0.8565200000000004  0.59712  1.0000
  O   O9        1.0  0.9687400000000002  0.68218  0.48531  1.0000
  O   O10       1.0  0.42338000000000015  0.40818000000000004  0.47385  1.0000
  O   O11       1.0  0.94298  0.1557000000000001  0.42871  1.0000
  O   O12       1.0  0.5561300000000002  0.18238000000000001  0.37856  1.0000
  O   O13       1.0  0.5540900000000002  0.07892000000000003  0.5138  1.0000
  O   O14       1.0  0.24679999999999996  0.14348000000000002  0.40288  1.0000
  O   O15       1.0  0.03123999999999997  0.31782  0.51468  1.0000
  O   O16       1.0  0.5766099999999998  0.59182  0.52615  1.0000
  O   O17       1.0  0.056999999999999905  0.8443000000000002  0.57128  1.0000
  O   O18       1.0  0.4438499999999999  0.81762  0.62144  1.0000
  O   O19       1.0  0.85234  0.57874  0.013999999999999997  1.0000
  O   O20       1.0  0.20695999999999995  0.6393700000000002  0.90448  1.0000
  O   O21       1.0  0.13633  0.81706  0.0144  1.0000
  O   O22       1.0  0.3051700000000001  0.09128000000000001  0.02626  1.0000
  O   O23       1.0  0.5281800000000003  0.3422  0.07156  1.0000
  O   O24       1.0  0.11708000000000007  0.31748  0.12138999999999997  1.0000
