data_image0
_chemical_formula_structural       Zn28H216C408N48O52
_chemical_formula_sum              "Zn28 H216 C408 N48 O52"
_cell_length_a       23.80219
_cell_length_b       23.80205
_cell_length_c       23.80211
_cell_angle_alpha    94.43522
_cell_angle_beta     94.43852
_cell_angle_gamma    94.43853

_symmetry_space_group_name_H-M    'P 1'
_symmetry_Int_Tables_number       1

loop_
  _symmetry_equiv_pos_as_xyz
  'x,y,z'

loop_
  _atom_site_type_symbol
  _atom_site_label
  _atom_site_symmetry_multiplicity
  _atom_site_fract_x
  _atom_site_fract_y
  _atom_site_fract_z
  _atom_site_occupancy
  Zn  Zn1       1.0  0.7992999999999999  0.8923099999999998  0.89289  1.0000
  Zn  Zn2       1.0  0.8928899999999997  0.79928  0.89228  1.0000
  Zn  Zn3       1.0  0.8923  0.89287  0.79929  1.0000
  Zn  Zn4       1.0  0.60712  0.6077099999999999  0.70071  1.0000
  Zn  Zn5       1.0  0.60771  0.70071  0.60712  1.0000
  Zn  Zn6       1.0  0.7007199999999999  0.60711  0.6076900000000001  1.0000
  Zn  Zn7       1.0  0.20071  0.10769  0.10711  1.0000
  Zn  Zn8       1.0  0.10712  0.20071  0.10772000000000002  1.0000
  Zn  Zn9       1.0  0.10771  0.10711999999999998  0.20071  1.0000
  Zn  Zn10      1.0  0.39288  0.39228  0.29929  1.0000
  Zn  Zn11      1.0  0.3923  0.29928999999999994  0.39288  1.0000
  Zn  Zn12      1.0  0.29929  0.39289  0.39231000000000005  1.0000
  Zn  Zn13      1.0  0.9274799999999999  0.9274799999999999  0.9274800000000002  1.0000
  Zn  Zn14      1.0  0.57253  0.57252  0.57252  1.0000
  Zn  Zn15      1.0  0.07252  0.07252  0.07252  1.0000
  Zn  Zn16      1.0  0.42748  0.42748  0.42748  1.0000
  Zn  Zn17      1.0  0.5  0.0  0.5  1.0000
  Zn  Zn18      1.0  0.5  0.4999999999999999  0.0  1.0000
  Zn  Zn19      1.0  0.0  0.4999999999999999  0.5  1.0000
  Zn  Zn20      1.0  0.0  0.4999999999999999  0.0  1.0000
  Zn  Zn21      1.0  0.5  0.0  0.0  1.0000
  Zn  Zn22      1.0  0.0  0.0  0.5  1.0000
  Zn  Zn23      1.0  0.75001  0.28287  0.21713  1.0000
  Zn  Zn24      1.0  0.21713  0.75001  0.28287000000000007  1.0000
  Zn  Zn25      1.0  0.28287999999999985  0.21711999999999998  0.74999  1.0000
  Zn  Zn26      1.0  0.25001  0.7171199999999998  0.78287  1.0000
  Zn  Zn27      1.0  0.7828799999999999  0.24999999999999994  0.71712  1.0000
  Zn  Zn28      1.0  0.71713  0.7828699999999997  0.24999  1.0000
  H   H1        1.0  0.78639  0.93637  0.66371  1.0000
  H   H2        1.0  0.66542  0.93457  0.7884900000000001  1.0000
  H   H3        1.0  0.7346899999999998  0.03345  0.9787700000000001  1.0000
  H   H4        1.0  0.91161  0.06725999999999999  0.03226  1.0000
  H   H5        1.0  0.7118  0.9594299999999999  0.59143  1.0000
  H   H6        1.0  0.59117  0.9599999999999999  0.7167800000000001  1.0000
  H   H7        1.0  0.71298  0.11635999999999998  0.04231  1.0000
  H   H8        1.0  0.8899599999999999  0.14953999999999998  0.09644000000000001  1.0000
  H   H9        1.0  0.63913  0.07421  0.67976  1.0000
  H   H10       1.0  0.62783  0.8559199999999998  0.5974400000000001  1.0000
  H   H11       1.0  0.80183  0.22756  0.00912  1.0000
  H   H12       1.0  0.79498  0.07329  0.15952  1.0000
  H   H13       1.0  0.58484  0.16475  0.6515  1.0000
  H   H14       1.0  0.57048  0.79538  0.50828  1.0000
  H   H15       1.0  0.7824699999999998  0.33817  0.01048  1.0000
  H   H16       1.0  0.7737599999999999  0.07368  0.26957  1.0000
  H   H17       1.0  0.50508  0.18145  0.57252  1.0000
  H   H18       1.0  0.6637199999999999  0.78638  0.93637  1.0000
  H   H19       1.0  0.7885  0.66541  0.93457  1.0000
  H   H20       1.0  0.9787799999999999  0.7346799999999999  0.03345  1.0000
  H   H21       1.0  0.03225999999999997  0.9116099999999997  0.06726  1.0000
  H   H22       1.0  0.5914399999999999  0.7117899999999998  0.9594300000000002  1.0000
  H   H23       1.0  0.71678  0.59116  0.96  1.0000
  H   H24       1.0  0.04231999999999998  0.7129799999999997  0.11636  1.0000
  H   H25       1.0  0.09644  0.88996  0.14954  1.0000
  H   H26       1.0  0.67977  0.6391199999999999  0.07421  1.0000
  H   H27       1.0  0.59745  0.62782  0.8559200000000001  1.0000
  H   H28       1.0  0.009119999999999982  0.8018199999999999  0.22755  1.0000
  H   H29       1.0  0.15952  0.79498  0.07329  1.0000
  H   H30       1.0  0.6515  0.58483  0.16476  1.0000
  H   H31       1.0  0.50829  0.5704699999999999  0.79538  1.0000
  H   H32       1.0  0.010479999999999988  0.7824699999999999  0.33817  1.0000
  H   H33       1.0  0.2695699999999999  0.7737599999999999  0.07368  1.0000
  H   H34       1.0  0.57253  0.5050699999999999  0.18145  1.0000
  H   H35       1.0  0.93638  0.6637  0.78638  1.0000
  H   H36       1.0  0.93458  0.78849  0.66541  1.0000
  H   H37       1.0  0.03344999999999998  0.97877  0.73468  1.0000
  H   H38       1.0  0.06725999999999999  0.03224999999999999  0.91161  1.0000
  H   H39       1.0  0.95944  0.59143  0.71179  1.0000
  H   H40       1.0  0.96001  0.71678  0.59116  1.0000
  H   H41       1.0  0.11637  0.04231  0.71298  1.0000
  H   H42       1.0  0.14954  0.09643  0.88996  1.0000
  H   H43       1.0  0.07421999999999997  0.6797599999999999  0.63912  1.0000
  H   H44       1.0  0.8559299999999997  0.59743  0.62782  1.0000
  H   H45       1.0  0.22756  0.009110000000000012  0.8018200000000002  1.0000
  H   H46       1.0  0.07329  0.15950999999999999  0.7949800000000001  1.0000
  H   H47       1.0  0.16476  0.6514899999999999  0.58483  1.0000
  H   H48       1.0  0.7953999999999998  0.50827  0.57047  1.0000
  H   H49       1.0  0.33816999999999997  0.010469999999999998  0.78247  1.0000
  H   H50       1.0  0.07368999999999999  0.26956  0.77376  1.0000
  H   H51       1.0  0.18145  0.57252  0.50508  1.0000
  H   H52       1.0  0.8362999999999998  0.56363  0.7136100000000001  1.0000
  H   H53       1.0  0.71152  0.5654199999999999  0.83458  1.0000
  H   H54       1.0  0.52123  0.4665500000000001  0.7653100000000003  1.0000
  H   H55       1.0  0.46775  0.43273999999999996  0.58839  1.0000
  H   H56       1.0  0.9085699999999998  0.5405599999999999  0.7882000000000001  1.0000
  H   H57       1.0  0.78323  0.53999  0.90884  1.0000
  H   H58       1.0  0.45769  0.38362999999999997  0.78702  1.0000
  H   H59       1.0  0.40357  0.35046  0.6100400000000001  1.0000
  H   H60       1.0  0.8202399999999997  0.42579  0.86088  1.0000
  H   H61       1.0  0.9025699999999999  0.64408  0.87217  1.0000
  H   H62       1.0  0.49088  0.27245  0.6981800000000001  1.0000
  H   H63       1.0  0.34049  0.4267099999999999  0.7050200000000002  1.0000
  H   H64       1.0  0.84851  0.33524  0.91516  1.0000
  H   H65       1.0  0.99173  0.70461  0.9295200000000001  1.0000
  H   H66       1.0  0.48952  0.16183  0.71753  1.0000
  H   H67       1.0  0.23044  0.42632  0.72624  1.0000
  H   H68       1.0  0.9274799999999999  0.31854  0.99492  1.0000
  H   H69       1.0  0.56364  0.7136099999999999  0.83629  1.0000
  H   H70       1.0  0.56543  0.83458  0.7115100000000002  1.0000
  H   H71       1.0  0.4665599999999999  0.76531  0.52123  1.0000
  H   H72       1.0  0.4327499999999999  0.58839  0.46774  1.0000
  H   H73       1.0  0.54057  0.7882  0.9085700000000001  1.0000
  H   H74       1.0  0.54  0.90884  0.78322  1.0000
  H   H75       1.0  0.3836399999999999  0.7870099999999998  0.45769000000000004  1.0000
  H   H76       1.0  0.3504699999999999  0.6100399999999999  0.40356000000000003  1.0000
  H   H77       1.0  0.42579  0.8608799999999999  0.82023  1.0000
  H   H78       1.0  0.64408  0.8721699999999998  0.9025600000000001  1.0000
  H   H79       1.0  0.27245  0.69817  0.49088  1.0000
  H   H80       1.0  0.4267099999999999  0.70502  0.34048  1.0000
  H   H81       1.0  0.3352499999999999  0.9151699999999998  0.8485000000000001  1.0000
  H   H82       1.0  0.70462  0.92953  0.99172  1.0000
  H   H83       1.0  0.16184  0.71752  0.48952  1.0000
  H   H84       1.0  0.4263199999999999  0.7262399999999999  0.23043  1.0000
  H   H85       1.0  0.31856  0.9949199999999999  0.92747  1.0000
  H   H86       1.0  0.7136199999999999  0.8362900000000001  0.5636300000000001  1.0000
  H   H87       1.0  0.83459  0.7115  0.56542  1.0000
  H   H88       1.0  0.76532  0.52122  0.4665500000000001  1.0000
  H   H89       1.0  0.5883999999999998  0.46774  0.43273  1.0000
  H   H90       1.0  0.7882099999999999  0.9085599999999998  0.54056  1.0000
  H   H91       1.0  0.90885  0.78322  0.53999  1.0000
  H   H92       1.0  0.78702  0.45767999999999986  0.38364  1.0000
  H   H93       1.0  0.6100399999999999  0.40355999999999986  0.3504600000000001  1.0000
  H   H94       1.0  0.86088  0.82023  0.42579  1.0000
  H   H95       1.0  0.8721799999999997  0.9025499999999999  0.64407  1.0000
  H   H96       1.0  0.69818  0.49088  0.27244  1.0000
  H   H97       1.0  0.7050199999999999  0.34047  0.42671  1.0000
  H   H98       1.0  0.91517  0.8484999999999999  0.33525000000000005  1.0000
  H   H99       1.0  0.9295299999999997  0.9917099999999999  0.7046100000000001  1.0000
  H   H100      1.0  0.7175299999999999  0.48952  0.16182  1.0000
  H   H101      1.0  0.72625  0.23041999999999996  0.42632  1.0000
  H   H102      1.0  0.99493  0.9274699999999998  0.31855  1.0000
  H   H103      1.0  0.21361999999999998  0.06363  0.33629  1.0000
  H   H104      1.0  0.33458000000000004  0.06542999999999999  0.21151000000000006  1.0000
  H   H105      1.0  0.26532  0.96654  0.02123  1.0000
  H   H106      1.0  0.08839999999999998  0.9327299999999998  0.96774  1.0000
  H   H107      1.0  0.28821  0.04056  0.40857  1.0000
  H   H108      1.0  0.40884  0.03998999999999999  0.28322  1.0000
  H   H109      1.0  0.28702999999999995  0.8836299999999998  0.95768  1.0000
  H   H110      1.0  0.11004000000000001  0.85045  0.9035600000000001  1.0000
  H   H111      1.0  0.3608799999999999  0.9257899999999999  0.32023  1.0000
  H   H112      1.0  0.37218  0.14406999999999998  0.40256000000000003  1.0000
  H   H113      1.0  0.19818000000000002  0.77243  0.9908800000000001  1.0000
  H   H114      1.0  0.20502  0.9267099999999998  0.84047  1.0000
  H   H115      1.0  0.41517  0.8352399999999999  0.3485  1.0000
  H   H116      1.0  0.4295299999999999  0.20460999999999993  0.49172  1.0000
  H   H117      1.0  0.21753999999999996  0.66182  0.9895200000000002  1.0000
  H   H118      1.0  0.22624999999999998  0.9263099999999999  0.73042  1.0000
  H   H119      1.0  0.49492999999999976  0.81855  0.42747  1.0000
  H   H120      1.0  0.3362899999999999  0.21361  0.06363  1.0000
  H   H121      1.0  0.21151  0.33458  0.06543000000000002  1.0000
  H   H122      1.0  0.02123  0.26531  0.96655  1.0000
  H   H123      1.0  0.9677499999999999  0.08839  0.9327400000000001  1.0000
  H   H124      1.0  0.4085699999999999  0.2882  0.04057  1.0000
  H   H125      1.0  0.28322  0.40883999999999987  0.04  1.0000
  H   H126      1.0  0.95769  0.28702  0.88363  1.0000
  H   H127      1.0  0.90357  0.11004  0.85046  1.0000
  H   H128      1.0  0.32024  0.36088  0.92579  1.0000
  H   H129      1.0  0.4025599999999999  0.37216999999999995  0.14408  1.0000
  H   H130      1.0  0.9908899999999999  0.19816999999999999  0.7724500000000002  1.0000
  H   H131      1.0  0.8404899999999998  0.20501  0.9267100000000001  1.0000
  H   H132      1.0  0.34849999999999987  0.41516  0.83524  1.0000
  H   H133      1.0  0.4917199999999999  0.42952  0.20461  1.0000
  H   H134      1.0  0.9895299999999998  0.21753000000000003  0.6618300000000001  1.0000
  H   H135      1.0  0.73044  0.22624  0.9263200000000001  1.0000
  H   H136      1.0  0.42748  0.49492  0.8185500000000001  1.0000
  H   H137      1.0  0.06363  0.3362899999999999  0.21362  1.0000
  H   H138      1.0  0.06543  0.21151  0.33459  1.0000
  H   H139      1.0  0.9665599999999998  0.02123  0.26531  1.0000
  H   H140      1.0  0.93275  0.96774  0.08839000000000002  1.0000
  H   H141      1.0  0.04056999999999999  0.4085699999999999  0.2882  1.0000
  H   H142      1.0  0.04  0.28322  0.40884000000000004  1.0000
  H   H143      1.0  0.88364  0.9576799999999998  0.28702  1.0000
  H   H144      1.0  0.8504699999999997  0.9035599999999999  0.11004000000000003  1.0000
  H   H145      1.0  0.9257899999999999  0.32023  0.36088  1.0000
  H   H146      1.0  0.14407999999999999  0.40256  0.37218  1.0000
  H   H147      1.0  0.77245  0.99088  0.19818000000000005  1.0000
  H   H148      1.0  0.92672  0.8404800000000001  0.20502  1.0000
  H   H149      1.0  0.83525  0.3485  0.41517  1.0000
  H   H150      1.0  0.20460999999999996  0.49172  0.42953  1.0000
  H   H151      1.0  0.66184  0.9895199999999997  0.21753000000000006  1.0000
  H   H152      1.0  0.9263199999999998  0.7304299999999998  0.22624  1.0000
  H   H153      1.0  0.81856  0.42747  0.4949200000000001  1.0000
  H   H154      1.0  0.16370999999999997  0.43636999999999987  0.28639  1.0000
  H   H155      1.0  0.2884899999999999  0.43457  0.16541  1.0000
  H   H156      1.0  0.47878  0.53345  0.23468000000000003  1.0000
  H   H157      1.0  0.53226  0.56726  0.41161  1.0000
  H   H158      1.0  0.09143999999999998  0.45943  0.2118  1.0000
  H   H159      1.0  0.21678  0.45999999999999996  0.09116  1.0000
  H   H160      1.0  0.54232  0.61636  0.21298000000000003  1.0000
  H   H161      1.0  0.59644  0.64954  0.38996  1.0000
  H   H162      1.0  0.17976999999999996  0.5742099999999999  0.13912000000000002  1.0000
  H   H163      1.0  0.09744  0.35592  0.12782  1.0000
  H   H164      1.0  0.50913  0.7275499999999999  0.30182  1.0000
  H   H165      1.0  0.65952  0.57329  0.29498  1.0000
  H   H166      1.0  0.1515  0.66475  0.08483  1.0000
  H   H167      1.0  0.008280000000000001  0.29538  0.07047  1.0000
  H   H168      1.0  0.51049  0.8381599999999999  0.28247  1.0000
  H   H169      1.0  0.7695699999999999  0.57368  0.27376000000000006  1.0000
  H   H170      1.0  0.07253  0.68145  0.00507  1.0000
  H   H171      1.0  0.4363699999999999  0.28638  0.1637  1.0000
  H   H172      1.0  0.43458  0.16540999999999997  0.28849  1.0000
  H   H173      1.0  0.53345  0.23467999999999994  0.47877000000000003  1.0000
  H   H174      1.0  0.56726  0.41161  0.53225  1.0000
  H   H175      1.0  0.45943999999999996  0.2118  0.09143  1.0000
  H   H176      1.0  0.46000999999999986  0.09116  0.21678000000000003  1.0000
  H   H177      1.0  0.61637  0.21297999999999995  0.5423100000000001  1.0000
  H   H178      1.0  0.64954  0.38996  0.59643  1.0000
  H   H179      1.0  0.57422  0.13912  0.17977  1.0000
  H   H180      1.0  0.3559299999999999  0.12782  0.09744000000000001  1.0000
  H   H181      1.0  0.72756  0.3018199999999999  0.50911  1.0000
  H   H182      1.0  0.5733  0.29498  0.65951  1.0000
  H   H183      1.0  0.66476  0.08482999999999997  0.1515  1.0000
  H   H184      1.0  0.29539  0.07046999999999999  0.00828  1.0000
  H   H185      1.0  0.8381699999999999  0.28247  0.51048  1.0000
  H   H186      1.0  0.57369  0.27376  0.76956  1.0000
  H   H187      1.0  0.6814499999999999  0.00508  0.07253  1.0000
  H   H188      1.0  0.28639  0.16371000000000002  0.43637000000000004  1.0000
  H   H189      1.0  0.16542  0.28849  0.43457  1.0000
  H   H190      1.0  0.23468999999999993  0.47876999999999986  0.53345  1.0000
  H   H191      1.0  0.41161  0.53226  0.56726  1.0000
  H   H192      1.0  0.2118  0.09142999999999998  0.4594300000000001  1.0000
  H   H193      1.0  0.09116  0.21678  0.46  1.0000
  H   H194      1.0  0.21298  0.5423099999999998  0.61636  1.0000
  H   H195      1.0  0.38997  0.59644  0.64954  1.0000
  H   H196      1.0  0.13913  0.17976  0.57421  1.0000
  H   H197      1.0  0.12782999999999997  0.09744  0.35592  1.0000
  H   H198      1.0  0.30183  0.50911  0.7275600000000001  1.0000
  H   H199      1.0  0.2949899999999999  0.65952  0.57329  1.0000
  H   H200      1.0  0.08484  0.1515  0.66475  1.0000
  H   H201      1.0  0.07048  0.00828  0.29539  1.0000
  H   H202      1.0  0.28247  0.51048  0.8381700000000001  1.0000
  H   H203      1.0  0.27375999999999995  0.7695699999999999  0.57368  1.0000
  H   H204      1.0  0.00508  0.07252  0.68145  1.0000
  H   H205      1.0  0.75  0.41247  0.08753  1.0000
  H   H206      1.0  0.75  0.15324  0.34676  1.0000
  H   H207      1.0  0.08754  0.7499999999999999  0.41247000000000006  1.0000
  H   H208      1.0  0.34676  0.7499999999999999  0.15324  1.0000
  H   H209      1.0  0.41247000000000006  0.08753  0.75  1.0000
  H   H210      1.0  0.15324999999999997  0.34676  0.75  1.0000
  H   H211      1.0  0.25001000000000007  0.5875199999999999  0.9124700000000001  1.0000
  H   H212      1.0  0.25001  0.84676  0.65324  1.0000
  H   H213      1.0  0.9124699999999999  0.24999999999999994  0.58753  1.0000
  H   H214      1.0  0.65325  0.24999999999999994  0.8467600000000001  1.0000
  H   H215      1.0  0.58754  0.91247  0.25  1.0000
  H   H216      1.0  0.84676  0.65324  0.25  1.0000
  C   C1        1.0  0.77455  0.91992  0.77366  1.0000
  C   C2        1.0  0.8372  0.9936699999999999  0.96859  1.0000
  C   C3        1.0  0.7304299999999998  0.9344  0.73051  1.0000
  C   C4        1.0  0.82419  0.04521999999999999  0.00256  1.0000
  C   C5        1.0  0.74355  0.9414399999999998  0.6749000000000002  1.0000
  C   C6        1.0  0.67527  0.94102  0.7454700000000001  1.0000
  C   C7        1.0  0.76828  0.059439999999999986  0.00435  1.0000
  C   C8        1.0  0.86838  0.07856999999999999  0.03464  1.0000
  C   C9        1.0  0.7018899999999998  0.95446  0.63473  1.0000
  C   C10       1.0  0.63399  0.9549299999999997  0.70533  1.0000
  C   C11       1.0  0.7563899999999999  0.10572  0.03961  1.0000
  C   C12       1.0  0.8562  0.12446999999999998  0.07017  1.0000
  C   C13       1.0  0.64663  0.9614499999999999  0.64941  1.0000
  C   C14       1.0  0.80006  0.13771  0.0737  1.0000
  C   C15       1.0  0.60195  0.97351  0.60543  1.0000
  C   C16       1.0  0.7860199999999999  0.18249  0.11644000000000002  1.0000
  C   C17       1.0  0.58416  0.02866  0.60615  1.0000
  C   C18       1.0  0.5814  0.92817  0.56576  1.0000
  C   C19       1.0  0.78085  0.23720999999999995  0.09969  1.0000
  C   C20       1.0  0.7782399999999998  0.16504999999999997  0.17066  1.0000
  C   C21       1.0  0.60641  0.07587999999999998  0.64582  1.0000
  C   C22       1.0  0.59823  0.87091  0.5662100000000001  1.0000
  C   C23       1.0  0.78964  0.25472  0.04391  1.0000
  C   C24       1.0  0.78386  0.10831  0.18717  1.0000
  C   C25       1.0  0.53962  0.10315000000000002  0.5831400000000001  1.0000
  C   C26       1.0  0.57879  0.12184999999999997  0.63161  1.0000
  C   C27       1.0  0.53367  0.87779  0.49268000000000006  1.0000
  C   C28       1.0  0.56894  0.83998  0.5208600000000001  1.0000
  C   C29       1.0  0.77974  0.31065  0.0446  1.0000
  C   C30       1.0  0.7646399999999999  0.32756  0.10074000000000002  1.0000
  C   C31       1.0  0.7615299999999999  0.16561999999999996  0.2609600000000001  1.0000
  C   C32       1.0  0.7733900000000001  0.10869  0.24298  1.0000
  C   C33       1.0  0.50359  0.13757999999999995  0.55526  1.0000
  C   C34       1.0  0.77367  0.77454  0.91991  1.0000
  C   C35       1.0  0.9685999999999998  0.8371799999999999  0.99366  1.0000
  C   C36       1.0  0.73052  0.73042  0.93441  1.0000
  C   C37       1.0  0.002560000000000005  0.8241899999999999  0.04521000000000001  1.0000
  C   C38       1.0  0.67491  0.74354  0.94144  1.0000
  C   C39       1.0  0.74548  0.6752599999999997  0.94102  1.0000
  C   C40       1.0  0.0043499999999999945  0.76828  0.059440000000000014  1.0000
  C   C41       1.0  0.03463999999999998  0.86838  0.07857  1.0000
  C   C42       1.0  0.6347399999999999  0.7018799999999998  0.95446  1.0000
  C   C43       1.0  0.7053399999999999  0.63397  0.95494  1.0000
  C   C44       1.0  0.039609999999999985  0.75638  0.10572000000000001  1.0000
  C   C45       1.0  0.07017  0.85619  0.12446000000000003  1.0000
  C   C46       1.0  0.64942  0.64662  0.96145  1.0000
  C   C47       1.0  0.07369999999999997  0.8000499999999998  0.13771  1.0000
  C   C48       1.0  0.60544  0.60194  0.9735100000000001  1.0000
  C   C49       1.0  0.11644  0.78602  0.18249  1.0000
  C   C50       1.0  0.60616  0.58416  0.028660000000000005  1.0000
  C   C51       1.0  0.56576  0.58139  0.92817  1.0000
  C   C52       1.0  0.0997  0.7808399999999999  0.23721  1.0000
  C   C53       1.0  0.17066  0.77824  0.16505000000000003  1.0000
  C   C54       1.0  0.6458299999999998  0.6064  0.07588  1.0000
  C   C55       1.0  0.56621  0.59822  0.87091  1.0000
  C   C56       1.0  0.043919999999999994  0.7896299999999999  0.25471  1.0000
  C   C57       1.0  0.18716999999999995  0.7838599999999999  0.1083  1.0000
  C   C58       1.0  0.58314  0.53962  0.10316  1.0000
  C   C59       1.0  0.63162  0.5787799999999999  0.12186  1.0000
  C   C60       1.0  0.49269  0.5336599999999999  0.87779  1.0000
  C   C61       1.0  0.52086  0.56893  0.8399800000000001  1.0000
  C   C62       1.0  0.0446  0.77973  0.31064  1.0000
  C   C63       1.0  0.10073999999999998  0.7646399999999998  0.32756  1.0000
  C   C64       1.0  0.26095999999999997  0.76153  0.16562000000000002  1.0000
  C   C65       1.0  0.24298  0.77339  0.10869  1.0000
  C   C66       1.0  0.55526  0.50359  0.13758  1.0000
  C   C67       1.0  0.9199300000000002  0.7736499999999998  0.77454  1.0000
  C   C68       1.0  0.99367  0.9685899999999997  0.83718  1.0000
  C   C69       1.0  0.9344199999999999  0.7305  0.73042  1.0000
  C   C70       1.0  0.04521  0.002550000000000013  0.8241900000000002  1.0000
  C   C71       1.0  0.94145  0.67489  0.74354  1.0000
  C   C72       1.0  0.94103  0.74547  0.67526  1.0000
  C   C73       1.0  0.05944  0.00434  0.76828  1.0000
  C   C74       1.0  0.07857  0.034640000000000004  0.8683800000000002  1.0000
  C   C75       1.0  0.9544699999999998  0.63473  0.70188  1.0000
  C   C76       1.0  0.95495  0.70533  0.63397  1.0000
  C   C77       1.0  0.10572  0.039610000000000006  0.75639  1.0000
  C   C78       1.0  0.12446999999999998  0.07017  0.85619  1.0000
  C   C79       1.0  0.9614699999999999  0.6494099999999999  0.64662  1.0000
  C   C80       1.0  0.13771  0.07368999999999999  0.8000500000000001  1.0000
  C   C81       1.0  0.9735199999999999  0.60543  0.60194  1.0000
  C   C82       1.0  0.18249999999999997  0.11643  0.78602  1.0000
  C   C83       1.0  0.02867000000000002  0.60615  0.58416  1.0000
  C   C84       1.0  0.9281799999999999  0.56575  0.58139  1.0000
  C   C85       1.0  0.23721  0.09969000000000001  0.7808400000000002  1.0000
  C   C86       1.0  0.16505  0.17065  0.7782300000000001  1.0000
  C   C87       1.0  0.07589  0.64582  0.6064  1.0000
  C   C88       1.0  0.87092  0.5662  0.59822  1.0000
  C   C89       1.0  0.25471  0.04390999999999999  0.78963  1.0000
  C   C90       1.0  0.10831  0.18715999999999997  0.78386  1.0000
  C   C91       1.0  0.10316  0.58314  0.53962  1.0000
  C   C92       1.0  0.12185999999999997  0.6316099999999999  0.57878  1.0000
  C   C93       1.0  0.8777999999999999  0.4926799999999999  0.53366  1.0000
  C   C94       1.0  0.83999  0.52085  0.56892  1.0000
  C   C95       1.0  0.31064999999999987  0.04459  0.77973  1.0000
  C   C96       1.0  0.32757  0.10074000000000001  0.7646400000000001  1.0000
  C   C97       1.0  0.16562999999999997  0.26096  0.76152  1.0000
  C   C98       1.0  0.1087  0.24297999999999997  0.7733900000000001  1.0000
  C   C99       1.0  0.13757999999999998  0.55526  0.50359  1.0000
  C   C100      1.0  0.72635  0.58008  0.7254500000000002  1.0000
  C   C101      1.0  0.53141  0.5063299999999998  0.66281  1.0000
  C   C102      1.0  0.76949  0.56559  0.7695800000000002  1.0000
  C   C103      1.0  0.49745  0.45479  0.67581  1.0000
  C   C104      1.0  0.8250999999999998  0.55855  0.7564500000000001  1.0000
  C   C105      1.0  0.75453  0.55897  0.82473  1.0000
  C   C106      1.0  0.49565999999999993  0.44056  0.73172  1.0000
  C   C107      1.0  0.46537  0.4214299999999999  0.63162  1.0000
  C   C108      1.0  0.8652699999999998  0.5455399999999999  0.79812  1.0000
  C   C109      1.0  0.7946700000000001  0.5450599999999999  0.8660200000000002  1.0000
  C   C110      1.0  0.46038999999999997  0.39428  0.74361  1.0000
  C   C111      1.0  0.42982999999999993  0.3755299999999999  0.6438  1.0000
  C   C112      1.0  0.85059  0.53854  0.8533700000000002  1.0000
  C   C113      1.0  0.42630999999999986  0.3622899999999999  0.69994  1.0000
  C   C114      1.0  0.8945699999999999  0.52648  0.89806  1.0000
  C   C115      1.0  0.3835699999999999  0.3175  0.71398  1.0000
  C   C116      1.0  0.89385  0.4713299999999999  0.91584  1.0000
  C   C117      1.0  0.9342499999999998  0.57183  0.91861  1.0000
  C   C118      1.0  0.40031  0.26279  0.7191600000000001  1.0000
  C   C119      1.0  0.3293499999999999  0.33495  0.72176  1.0000
  C   C120      1.0  0.85418  0.4241099999999999  0.8935900000000001  1.0000
  C   C121      1.0  0.9338  0.62909  0.9017800000000002  1.0000
  C   C122      1.0  0.45609  0.24529  0.71036  1.0000
  C   C123      1.0  0.31284000000000006  0.39169  0.71614  1.0000
  C   C124      1.0  0.91687  0.3968399999999999  0.96038  1.0000
  C   C125      1.0  0.8683899999999999  0.37813999999999987  0.92121  1.0000
  C   C126      1.0  0.007319999999999992  0.6222  0.96633  1.0000
  C   C127      1.0  0.97915  0.66002  0.9310700000000001  1.0000
  C   C128      1.0  0.4554099999999999  0.18934999999999994  0.7202600000000001  1.0000
  C   C129      1.0  0.39926  0.17242999999999997  0.7353600000000002  1.0000
  C   C130      1.0  0.23904999999999996  0.33437  0.7384700000000001  1.0000
  C   C131      1.0  0.25703  0.39131  0.72661  1.0000
  C   C132      1.0  0.9447499999999998  0.36241  0.99641  1.0000
  C   C133      1.0  0.58008  0.72546  0.72634  1.0000
  C   C134      1.0  0.5063399999999999  0.6628099999999999  0.5314  1.0000
  C   C135      1.0  0.5656  0.76958  0.76949  1.0000
  C   C136      1.0  0.4548  0.6758099999999998  0.49744000000000005  1.0000
  C   C137      1.0  0.55856  0.7564499999999998  0.8251000000000001  1.0000
  C   C138      1.0  0.55898  0.82474  0.7545300000000003  1.0000
  C   C139      1.0  0.4405599999999999  0.73172  0.49565000000000003  1.0000
  C   C140      1.0  0.42144  0.6316199999999998  0.46536  1.0000
  C   C141      1.0  0.5455399999999998  0.7981199999999998  0.86527  1.0000
  C   C142      1.0  0.54507  0.8660199999999998  0.7946600000000001  1.0000
  C   C143      1.0  0.3942799999999999  0.7436099999999999  0.46039  1.0000
  C   C144      1.0  0.3755399999999999  0.6438  0.42983  1.0000
  C   C145      1.0  0.5385499999999999  0.8533699999999999  0.85058  1.0000
  C   C146      1.0  0.3623  0.69994  0.42631000000000013  1.0000
  C   C147      1.0  0.5264899999999999  0.8980499999999997  0.8945600000000001  1.0000
  C   C148      1.0  0.31750999999999996  0.71398  0.3835600000000001  1.0000
  C   C149      1.0  0.47134  0.91584  0.89384  1.0000
  C   C150      1.0  0.57183  0.9186099999999999  0.93424  1.0000
  C   C151      1.0  0.2627900000000001  0.71916  0.40031  1.0000
  C   C152      1.0  0.33495  0.72176  0.32934  1.0000
  C   C153      1.0  0.4241199999999999  0.8935899999999998  0.85417  1.0000
  C   C154      1.0  0.6291  0.9017799999999998  0.93379  1.0000
  C   C155      1.0  0.24529  0.71036  0.4560900000000001  1.0000
  C   C156      1.0  0.3917  0.7161399999999998  0.31284000000000006  1.0000
  C   C157      1.0  0.39685  0.9603699999999997  0.9168600000000001  1.0000
  C   C158      1.0  0.37815  0.9212099999999998  0.86839  1.0000
  C   C159      1.0  0.6222099999999999  0.9663399999999999  0.00732  1.0000
  C   C160      1.0  0.66002  0.9310699999999998  0.97914  1.0000
  C   C161      1.0  0.18936  0.7202599999999999  0.4554  1.0000
  C   C162      1.0  0.17243999999999998  0.7353599999999999  0.39926  1.0000
  C   C163      1.0  0.33438  0.73847  0.23904  1.0000
  C   C164      1.0  0.39131  0.72661  0.25702  1.0000
  C   C165      1.0  0.3624299999999999  0.9964000000000001  0.94474  1.0000
  C   C166      1.0  0.7254599999999999  0.7263299999999999  0.58008  1.0000
  C   C167      1.0  0.66282  0.5314  0.50632  1.0000
  C   C168      1.0  0.7695900000000001  0.76948  0.56559  1.0000
  C   C169      1.0  0.6758199999999999  0.49744  0.45478000000000013  1.0000
  C   C170      1.0  0.7564599999999999  0.8250899999999999  0.55855  1.0000
  C   C171      1.0  0.8247399999999999  0.7545199999999999  0.55898  1.0000
  C   C172      1.0  0.7317299999999999  0.4956499999999999  0.44056  1.0000
  C   C173      1.0  0.63163  0.46535  0.42143  1.0000
  C   C174      1.0  0.7981299999999999  0.8652599999999998  0.54554  1.0000
  C   C175      1.0  0.86603  0.7946599999999998  0.54506  1.0000
  C   C176      1.0  0.74362  0.4603899999999999  0.3942800000000001  1.0000
  C   C177      1.0  0.64381  0.42982  0.37553000000000003  1.0000
  C   C178      1.0  0.8533799999999999  0.85058  0.53854  1.0000
  C   C179      1.0  0.6999499999999999  0.4262999999999999  0.3622900000000001  1.0000
  C   C180      1.0  0.89807  0.89456  0.52648  1.0000
  C   C181      1.0  0.71399  0.3835599999999999  0.3175  1.0000
  C   C182      1.0  0.9158499999999999  0.8938399999999999  0.47133  1.0000
  C   C183      1.0  0.91862  0.93424  0.5718300000000001  1.0000
  C   C184      1.0  0.71916  0.40029999999999993  0.26279  1.0000
  C   C185      1.0  0.72177  0.32934  0.33495  1.0000
  C   C186      1.0  0.8936  0.85417  0.42412000000000005  1.0000
  C   C187      1.0  0.90179  0.9337899999999998  0.62909  1.0000
  C   C188      1.0  0.71037  0.45608999999999994  0.24528  1.0000
  C   C189      1.0  0.71614  0.31283  0.39169  1.0000
  C   C190      1.0  0.9603899999999999  0.9168599999999998  0.39685  1.0000
  C   C191      1.0  0.92122  0.86838  0.3781400000000001  1.0000
  C   C192      1.0  0.9663399999999999  0.007319999999999997  0.6222  1.0000
  C   C193      1.0  0.9310799999999998  0.97914  0.6600100000000001  1.0000
  C   C194      1.0  0.72027  0.45539999999999997  0.18935  1.0000
  C   C195      1.0  0.73537  0.39926  0.17243000000000006  1.0000
  C   C196      1.0  0.73848  0.23903999999999995  0.33437000000000006  1.0000
  C   C197      1.0  0.7266199999999999  0.25701  0.39131000000000005  1.0000
  C   C198      1.0  0.99642  0.94474  0.3624200000000001  1.0000
  C   C199      1.0  0.22545999999999994  0.08008  0.22634  1.0000
  C   C200      1.0  0.16281  0.00632  0.0314  1.0000
  C   C201      1.0  0.26957999999999993  0.06559  0.26949  1.0000
  C   C202      1.0  0.17582  0.95478  0.99744  1.0000
  C   C203      1.0  0.25646  0.05855  0.3251  1.0000
  C   C204      1.0  0.32474  0.05898  0.25452  1.0000
  C   C205      1.0  0.23172999999999996  0.94055  0.9956500000000001  1.0000
  C   C206      1.0  0.13163  0.92142  0.96535  1.0000
  C   C207      1.0  0.29812  0.04554  0.36527  1.0000
  C   C208      1.0  0.36601999999999996  0.04505999999999999  0.29466  1.0000
  C   C209      1.0  0.24361999999999998  0.8942699999999998  0.96038  1.0000
  C   C210      1.0  0.14381  0.87553  0.92982  1.0000
  C   C211      1.0  0.35338  0.038540000000000005  0.35059000000000007  1.0000
  C   C212      1.0  0.19994999999999996  0.8622899999999998  0.9263  1.0000
  C   C213      1.0  0.39806  0.02648  0.39456  1.0000
  C   C214      1.0  0.21398999999999996  0.8174999999999999  0.88356  1.0000
  C   C215      1.0  0.41585000000000005  0.97133  0.39385  1.0000
  C   C216      1.0  0.4186099999999999  0.07183  0.43424000000000007  1.0000
  C   C217      1.0  0.21916  0.7627800000000003  0.9003000000000002  1.0000
  C   C218      1.0  0.22177  0.83495  0.82934  1.0000
  C   C219      1.0  0.3936  0.92412  0.35418  1.0000
  C   C220      1.0  0.40177999999999997  0.12909  0.43379  1.0000
  C   C221      1.0  0.21037000000000003  0.74528  0.9560800000000002  1.0000
  C   C222      1.0  0.21615  0.8916899999999999  0.8128300000000002  1.0000
  C   C223      1.0  0.46038  0.89684  0.41686  1.0000
  C   C224      1.0  0.4212199999999999  0.8781399999999999  0.3683900000000001  1.0000
  C   C225      1.0  0.46634  0.1222  0.50732  1.0000
  C   C226      1.0  0.43107  0.16002  0.47914  1.0000
  C   C227      1.0  0.22026999999999997  0.68934  0.9554000000000001  1.0000
  C   C228      1.0  0.23537  0.6724299999999999  0.89926  1.0000
  C   C229      1.0  0.23848  0.8343699999999998  0.7390400000000001  1.0000
  C   C230      1.0  0.22661999999999993  0.8912999999999998  0.75701  1.0000
  C   C231      1.0  0.4964199999999999  0.86242  0.44474  1.0000
  C   C232      1.0  0.22634  0.22545  0.08008  1.0000
  C   C233      1.0  0.03141  0.16281  0.00634  1.0000
  C   C234      1.0  0.26949  0.26958  0.06559  1.0000
  C   C235      1.0  0.9974499999999998  0.17580999999999994  0.9547900000000001  1.0000
  C   C236      1.0  0.3251  0.25645  0.05856  1.0000
  C   C237      1.0  0.25452999999999987  0.32474  0.05898  1.0000
  C   C238      1.0  0.9956599999999998  0.23171999999999998  0.9405600000000001  1.0000
  C   C239      1.0  0.96537  0.13162  0.92143  1.0000
  C   C240      1.0  0.3652699999999999  0.29811999999999994  0.04554  1.0000
  C   C241      1.0  0.29467  0.36601999999999996  0.04506000000000002  1.0000
  C   C242      1.0  0.9604  0.24361  0.89428  1.0000
  C   C243      1.0  0.9298399999999999  0.1438  0.87553  1.0000
  C   C244      1.0  0.35058999999999996  0.35337  0.03854  1.0000
  C   C245      1.0  0.92631  0.19994  0.86229  1.0000
  C   C246      1.0  0.39457  0.39806  0.02648  1.0000
  C   C247      1.0  0.88357  0.21397999999999995  0.8175  1.0000
  C   C248      1.0  0.39385  0.41583999999999993  0.97133  1.0000
  C   C249      1.0  0.43424  0.41860999999999987  0.07183  1.0000
  C   C250      1.0  0.9003099999999999  0.21915999999999997  0.76279  1.0000
  C   C251      1.0  0.8293499999999999  0.22175999999999998  0.83495  1.0000
  C   C252      1.0  0.35418  0.39358999999999994  0.92411  1.0000
  C   C253      1.0  0.4338  0.4017799999999999  0.12909  1.0000
  C   C254      1.0  0.9560899999999999  0.21035999999999994  0.74529  1.0000
  C   C255      1.0  0.8128399999999998  0.21614  0.8916900000000001  1.0000
  C   C256      1.0  0.41685999999999995  0.46037999999999996  0.89684  1.0000
  C   C257      1.0  0.36839  0.42120999999999986  0.87814  1.0000
  C   C258      1.0  0.50732  0.46634  0.12221000000000001  1.0000
  C   C259      1.0  0.47914999999999996  0.43107  0.16002  1.0000
  C   C260      1.0  0.95541  0.22026  0.68935  1.0000
  C   C261      1.0  0.89927  0.23535999999999996  0.67243  1.0000
  C   C262      1.0  0.73905  0.23847  0.8343700000000001  1.0000
  C   C263      1.0  0.7570299999999999  0.22660999999999998  0.89131  1.0000
  C   C264      1.0  0.4447499999999999  0.4964099999999999  0.86242  1.0000
  C   C265      1.0  0.08008  0.22634  0.22546  1.0000
  C   C266      1.0  0.006340000000000002  0.03141  0.16282000000000002  1.0000
  C   C267      1.0  0.06559  0.26948999999999995  0.26958  1.0000
  C   C268      1.0  0.9548  0.99744  0.17581  1.0000
  C   C269      1.0  0.05855999999999999  0.32510000000000006  0.25646  1.0000
  C   C270      1.0  0.05898  0.25453  0.32474  1.0000
  C   C271      1.0  0.94057  0.9956499999999998  0.23172  1.0000
  C   C272      1.0  0.92144  0.9653599999999998  0.13162  1.0000
  C   C273      1.0  0.04554  0.36526999999999993  0.29812  1.0000
  C   C274      1.0  0.04506000000000001  0.29466  0.36602000000000007  1.0000
  C   C275      1.0  0.8942899999999999  0.96039  0.24361  1.0000
  C   C276      1.0  0.87554  0.92983  0.14381  1.0000
  C   C277      1.0  0.03854  0.35058999999999996  0.35337  1.0000
  C   C278      1.0  0.8622999999999998  0.9262999999999998  0.19994000000000003  1.0000
  C   C279      1.0  0.026489999999999996  0.39456  0.39806  1.0000
  C   C280      1.0  0.81751  0.88356  0.21398000000000003  1.0000
  C   C281      1.0  0.97134  0.39384  0.4158400000000001  1.0000
  C   C282      1.0  0.07183  0.43423999999999996  0.41861  1.0000
  C   C283      1.0  0.7627999999999999  0.9003  0.21916000000000005  1.0000
  C   C284      1.0  0.8349599999999999  0.82934  0.22176  1.0000
  C   C285      1.0  0.92412  0.35417  0.39359  1.0000
  C   C286      1.0  0.12908999999999998  0.43378999999999995  0.40178000000000014  1.0000
  C   C287      1.0  0.7452899999999999  0.95609  0.21036  1.0000
  C   C288      1.0  0.8917  0.81283  0.21614  1.0000
  C   C289      1.0  0.89685  0.41686  0.4603800000000001  1.0000
  C   C290      1.0  0.87815  0.36839  0.42122  1.0000
  C   C291      1.0  0.12221000000000004  0.50732  0.46634000000000003  1.0000
  C   C292      1.0  0.16002  0.4791399999999999  0.43107  1.0000
  C   C293      1.0  0.68936  0.9553999999999998  0.22026  1.0000
  C   C294      1.0  0.67244  0.89926  0.23536  1.0000
  C   C295      1.0  0.83438  0.7390399999999999  0.23847  1.0000
  C   C296      1.0  0.89131  0.7570199999999998  0.22661000000000003  1.0000
  C   C297      1.0  0.86243  0.44473999999999997  0.49641  1.0000
  C   C298      1.0  0.27366  0.4199199999999999  0.27454  1.0000
  C   C299      1.0  0.46859999999999996  0.4936599999999999  0.33718  1.0000
  C   C300      1.0  0.23051  0.43441  0.23042  1.0000
  C   C301      1.0  0.50256  0.5452099999999999  0.32419  1.0000
  C   C302      1.0  0.17491  0.44144  0.24354  1.0000
  C   C303      1.0  0.24547999999999992  0.44102  0.17526  1.0000
  C   C304      1.0  0.50435  0.55944  0.26828  1.0000
  C   C305      1.0  0.53464  0.57856  0.36838000000000004  1.0000
  C   C306      1.0  0.13473999999999997  0.45446000000000003  0.20188  1.0000
  C   C307      1.0  0.20533999999999997  0.45494  0.13398000000000002  1.0000
  C   C308      1.0  0.53961  0.60572  0.25639  1.0000
  C   C309      1.0  0.57018  0.62446  0.35619000000000006  1.0000
  C   C310      1.0  0.14942  0.46146  0.14662000000000003  1.0000
  C   C311      1.0  0.5736999999999999  0.6377  0.30005  1.0000
  C   C312      1.0  0.10543999999999999  0.47350999999999993  0.10194  1.0000
  C   C313      1.0  0.61644  0.68249  0.28602  1.0000
  C   C314      1.0  0.10616  0.52866  0.08416  1.0000
  C   C315      1.0  0.06576  0.42817  0.08139  1.0000
  C   C316      1.0  0.5996999999999999  0.7372099999999998  0.28084  1.0000
  C   C317      1.0  0.67066  0.66505  0.27824000000000004  1.0000
  C   C318      1.0  0.14582999999999996  0.5758799999999998  0.10641  1.0000
  C   C319      1.0  0.06621  0.37091  0.09822  1.0000
  C   C320      1.0  0.54392  0.7547099999999999  0.28963  1.0000
  C   C321      1.0  0.6871699999999997  0.6083  0.28386  1.0000
  C   C322      1.0  0.08313999999999999  0.6031499999999999  0.03962  1.0000
  C   C323      1.0  0.13161  0.62186  0.07878  1.0000
  C   C324      1.0  0.99268  0.3777899999999999  0.03366000000000001  1.0000
  C   C325      1.0  0.020859999999999993  0.33998  0.06893  1.0000
  C   C326      1.0  0.5446  0.8106399999999999  0.27973  1.0000
  C   C327      1.0  0.60075  0.8275599999999997  0.26464  1.0000
  C   C328      1.0  0.76096  0.66562  0.26153  1.0000
  C   C329      1.0  0.74298  0.6086899999999998  0.27339  1.0000
  C   C330      1.0  0.05526  0.63758  0.00359  1.0000
  C   C331      1.0  0.4199299999999999  0.27454  0.27366  1.0000
  C   C332      1.0  0.49366999999999994  0.33717999999999987  0.46859  1.0000
  C   C333      1.0  0.4344099999999999  0.23041999999999996  0.23051  1.0000
  C   C334      1.0  0.54521  0.32419  0.50255  1.0000
  C   C335      1.0  0.44145  0.24354  0.17490000000000003  1.0000
  C   C336      1.0  0.44103  0.17525999999999997  0.24547  1.0000
  C   C337      1.0  0.55944  0.26827999999999996  0.50434  1.0000
  C   C338      1.0  0.57857  0.36838  0.53464  1.0000
  C   C339      1.0  0.45445999999999986  0.20188  0.13473  1.0000
  C   C340      1.0  0.45494  0.13398  0.20534  1.0000
  C   C341      1.0  0.60573  0.25639  0.5396100000000001  1.0000
  C   C342      1.0  0.6244699999999999  0.35619  0.57017  1.0000
  C   C343      1.0  0.46146  0.14662  0.14941  1.0000
  C   C344      1.0  0.63771  0.30005  0.57369  1.0000
  C   C345      1.0  0.4735199999999999  0.10194  0.10544000000000003  1.0000
  C   C346      1.0  0.6825  0.28602  0.6164300000000001  1.0000
  C   C347      1.0  0.52867  0.08416  0.10615  1.0000
  C   C348      1.0  0.42817  0.08139  0.06576  1.0000
  C   C349      1.0  0.73722  0.28084  0.59969  1.0000
  C   C350      1.0  0.66506  0.27824  0.67065  1.0000
  C   C351      1.0  0.57589  0.10640999999999999  0.14582  1.0000
  C   C352      1.0  0.37091  0.09821999999999997  0.0662  1.0000
  C   C353      1.0  0.75472  0.28963  0.54391  1.0000
  C   C354      1.0  0.60831  0.28385999999999995  0.68716  1.0000
  C   C355      1.0  0.60316  0.03962  0.08314000000000002  1.0000
  C   C356      1.0  0.62186  0.07878  0.13161  1.0000
  C   C357      1.0  0.3778  0.033660000000000016  0.9926800000000002  1.0000
  C   C358      1.0  0.33999  0.06893  0.02085  1.0000
  C   C359      1.0  0.8106499999999999  0.27973  0.54459  1.0000
  C   C360      1.0  0.82757  0.26464  0.60074  1.0000
  C   C361      1.0  0.66563  0.2615199999999999  0.7609600000000002  1.0000
  C   C362      1.0  0.6086999999999999  0.27338999999999997  0.7429800000000002  1.0000
  C   C363      1.0  0.63758  0.003589999999999999  0.05526  1.0000
  C   C364      1.0  0.27455  0.27366  0.4199200000000001  1.0000
  C   C365      1.0  0.33719  0.46859  0.49367  1.0000
  C   C366      1.0  0.23042  0.23051  0.43441  1.0000
  C   C367      1.0  0.32419  0.50256  0.54521  1.0000
  C   C368      1.0  0.24354999999999996  0.17489999999999997  0.44144  1.0000
  C   C369      1.0  0.17526999999999995  0.24546999999999997  0.44102  1.0000
  C   C370      1.0  0.26827999999999996  0.50435  0.55944  1.0000
  C   C371      1.0  0.36838  0.53464  0.5785700000000001  1.0000
  C   C372      1.0  0.20187999999999995  0.13473  0.4544600000000001  1.0000
  C   C373      1.0  0.13398  0.20533999999999997  0.45494  1.0000
  C   C374      1.0  0.25638999999999995  0.53961  0.60572  1.0000
  C   C375      1.0  0.3562  0.57017  0.62447  1.0000
  C   C376      1.0  0.14662999999999998  0.14940999999999993  0.46146  1.0000
  C   C377      1.0  0.30006  0.57369  0.63771  1.0000
  C   C378      1.0  0.10194  0.10543  0.47351  1.0000
  C   C379      1.0  0.28602  0.61643  0.6824900000000002  1.0000
  C   C380      1.0  0.08415999999999998  0.10614999999999998  0.52866  1.0000
  C   C381      1.0  0.08138999999999999  0.06576  0.42817000000000005  1.0000
  C   C382      1.0  0.28085  0.59969  0.73721  1.0000
  C   C383      1.0  0.27824  0.67066  0.66505  1.0000
  C   C384      1.0  0.10641  0.14582  0.5758800000000001  1.0000
  C   C385      1.0  0.09822  0.06621  0.3709100000000001  1.0000
  C   C386      1.0  0.28964000000000006  0.54391  0.75471  1.0000
  C   C387      1.0  0.28386000000000006  0.68717  0.6083  1.0000
  C   C388      1.0  0.03961999999999999  0.08313999999999998  0.60315  1.0000
  C   C389      1.0  0.07879  0.13161  0.62185  1.0000
  C   C390      1.0  0.033669999999999985  0.9926799999999998  0.37779  1.0000
  C   C391      1.0  0.06893  0.020859999999999997  0.33998  1.0000
  C   C392      1.0  0.27974000000000004  0.54459  0.81065  1.0000
  C   C393      1.0  0.26464  0.6007299999999999  0.82756  1.0000
  C   C394      1.0  0.26153  0.76096  0.66562  1.0000
  C   C395      1.0  0.27339  0.7429799999999999  0.6086900000000001  1.0000
  C   C396      1.0  0.003589999999999998  0.05526  0.63758  1.0000
  C   C397      1.0  0.75  0.38131  0.11869000000000003  1.0000
  C   C398      1.0  0.75  0.18440999999999994  0.31559  1.0000
  C   C399      1.0  0.1187  0.7499999999999998  0.38131  1.0000
  C   C400      1.0  0.31559  0.7499999999999999  0.18441  1.0000
  C   C401      1.0  0.38131  0.11868999999999998  0.75  1.0000
  C   C402      1.0  0.18441  0.31559  0.75  1.0000
  C   C403      1.0  0.25001  0.6186899999999999  0.88131  1.0000
  C   C404      1.0  0.25001  0.8155899999999998  0.68441  1.0000
  C   C405      1.0  0.88131  0.24999999999999994  0.61869  1.0000
  C   C406      1.0  0.68442  0.24999999999999994  0.81559  1.0000
  C   C407      1.0  0.6187  0.8813  0.25  1.0000
  C   C408      1.0  0.81559  0.6844099999999999  0.25  1.0000
  N   N1        1.0  0.54355  0.04643  0.56831  1.0000
  N   N2        1.0  0.54174  0.93116  0.52076  1.0000
  N   N3        1.0  0.76603  0.28238  0.13367  1.0000
  N   N4        1.0  0.7644199999999999  0.19907  0.21621  1.0000
  N   N5        1.0  0.5683099999999999  0.5435499999999999  0.04643  1.0000
  N   N6        1.0  0.52076  0.5417299999999999  0.9311600000000001  1.0000
  N   N7        1.0  0.13367  0.7660299999999999  0.28238  1.0000
  N   N8        1.0  0.21620999999999996  0.76441  0.19907  1.0000
  N   N9        1.0  0.04643  0.56831  0.54355  1.0000
  N   N10       1.0  0.9311699999999999  0.52076  0.54173  1.0000
  N   N11       1.0  0.28239  0.13366000000000003  0.7660200000000003  1.0000
  N   N12       1.0  0.19906999999999994  0.21621  0.7644100000000001  1.0000
  N   N13       1.0  0.9317  0.45356999999999986  0.95645  1.0000
  N   N14       1.0  0.9792499999999997  0.56884  0.95827  1.0000
  N   N15       1.0  0.36633999999999994  0.21761  0.73397  1.0000
  N   N16       1.0  0.28379  0.30093  0.7355900000000002  1.0000
  N   N17       1.0  0.45357999999999987  0.95644  0.93169  1.0000
  N   N18       1.0  0.5688399999999999  0.9582599999999999  0.97924  1.0000
  N   N19       1.0  0.21761999999999995  0.7339699999999998  0.36633000000000004  1.0000
  N   N20       1.0  0.30094  0.73559  0.28379  1.0000
  N   N21       1.0  0.95646  0.9316899999999998  0.45357  1.0000
  N   N22       1.0  0.9582799999999998  0.9792399999999998  0.56884  1.0000
  N   N23       1.0  0.73398  0.3663299999999999  0.21761  1.0000
  N   N24       1.0  0.73559  0.28379  0.30093  1.0000
  N   N25       1.0  0.45645  0.95357  0.4316900000000001  1.0000
  N   N26       1.0  0.45827  0.06884  0.47924  1.0000
  N   N27       1.0  0.23398  0.7176099999999997  0.86633  1.0000
  N   N28       1.0  0.23559999999999992  0.8009299999999999  0.78379  1.0000
  N   N29       1.0  0.4316999999999999  0.45645  0.95357  1.0000
  N   N30       1.0  0.47925  0.45826999999999996  0.06884  1.0000
  N   N31       1.0  0.86634  0.23397000000000004  0.7176100000000002  1.0000
  N   N32       1.0  0.7837999999999999  0.23558999999999994  0.80093  1.0000
  N   N33       1.0  0.95358  0.4316899999999999  0.45645  1.0000
  N   N34       1.0  0.06884  0.47923999999999994  0.45827000000000007  1.0000
  N   N35       1.0  0.71762  0.8663299999999999  0.23397  1.0000
  N   N36       1.0  0.80094  0.78379  0.23559000000000005  1.0000
  N   N37       1.0  0.06830999999999997  0.54643  0.04355  1.0000
  N   N38       1.0  0.020759999999999997  0.43115999999999993  0.04173  1.0000
  N   N39       1.0  0.63367  0.7823799999999997  0.26603  1.0000
  N   N40       1.0  0.71621  0.69906  0.26441  1.0000
  N   N41       1.0  0.5464299999999999  0.04355  0.06831  1.0000
  N   N42       1.0  0.4311699999999999  0.04173  0.02076  1.0000
  N   N43       1.0  0.7823899999999999  0.26603  0.63366  1.0000
  N   N44       1.0  0.6990699999999999  0.26441  0.71621  1.0000
  N   N45       1.0  0.04355  0.06831  0.54643  1.0000
  N   N46       1.0  0.041729999999999996  0.020759999999999997  0.43116000000000004  1.0000
  N   N47       1.0  0.26604  0.63366  0.78238  1.0000
  N   N48       1.0  0.26442  0.71621  0.69906  1.0000
  O   O1        1.0  0.75848  0.91119  0.8224500000000001  1.0000
  O   O2        1.0  0.82494  0.9177099999999999  0.75843  1.0000
  O   O3        1.0  0.79574  0.95977  0.946  1.0000
  O   O4        1.0  0.88967  0.98693  0.96575  1.0000
  O   O5        1.0  0.8224599999999997  0.75846  0.9111800000000001  1.0000
  O   O6        1.0  0.7584399999999998  0.8249299999999999  0.91771  1.0000
  O   O7        1.0  0.9460000000000001  0.7957199999999998  0.9597600000000002  1.0000
  O   O8        1.0  0.96577  0.88965  0.9869100000000001  1.0000
  O   O9        1.0  0.9111999999999999  0.8224499999999999  0.75846  1.0000
  O   O10       1.0  0.91773  0.75842  0.8249300000000002  1.0000
  O   O11       1.0  0.95978  0.94599  0.7957200000000002  1.0000
  O   O12       1.0  0.9869199999999997  0.9657599999999997  0.8896500000000002  1.0000
  O   O13       1.0  0.67756  0.58882  0.7415300000000001  1.0000
  O   O14       1.0  0.7415699999999997  0.58228  0.67506  1.0000
  O   O15       1.0  0.55401  0.54023  0.70427  1.0000
  O   O16       1.0  0.53424  0.51308  0.61034  1.0000
  O   O17       1.0  0.58881  0.74153  0.67755  1.0000
  O   O18       1.0  0.58229  0.6750699999999997  0.7415700000000001  1.0000
  O   O19       1.0  0.5402399999999999  0.7042699999999997  0.55401  1.0000
  O   O20       1.0  0.51309  0.61034  0.53423  1.0000
  O   O21       1.0  0.74154  0.67754  0.5888  1.0000
  O   O22       1.0  0.67507  0.74157  0.58228  1.0000
  O   O23       1.0  0.7042799999999999  0.554  0.54022  1.0000
  O   O24       1.0  0.6103399999999999  0.53424  0.51306  1.0000
  O   O25       1.0  0.24153  0.08880999999999997  0.17754000000000003  1.0000
  O   O26       1.0  0.17507  0.08227999999999999  0.24157000000000003  1.0000
  O   O27       1.0  0.20427  0.040229999999999995  0.054  1.0000
  O   O28       1.0  0.11034  0.013059999999999997  0.03424  1.0000
  O   O29       1.0  0.17754999999999999  0.24152999999999994  0.08882  1.0000
  O   O30       1.0  0.24157  0.17506  0.08228  1.0000
  O   O31       1.0  0.054009999999999996  0.20427  0.04023  1.0000
  O   O32       1.0  0.03424  0.11034  0.01308  1.0000
  O   O33       1.0  0.08880999999999999  0.17755  0.24153000000000002  1.0000
  O   O34       1.0  0.08228  0.24157  0.17507000000000003  1.0000
  O   O35       1.0  0.04023  0.05401  0.20427  1.0000
  O   O36       1.0  0.013090000000000001  0.03424  0.11034000000000001  1.0000
  O   O37       1.0  0.32244999999999996  0.41118  0.25847  1.0000
  O   O38       1.0  0.25842999999999994  0.41772  0.32494  1.0000
  O   O39       1.0  0.44599999999999995  0.45976  0.29573  1.0000
  O   O40       1.0  0.46577  0.4869099999999999  0.3896600000000001  1.0000
  O   O41       1.0  0.41118999999999994  0.25846  0.32245000000000007  1.0000
  O   O42       1.0  0.41772  0.32493  0.25843  1.0000
  O   O43       1.0  0.45977  0.29572  0.44599000000000005  1.0000
  O   O44       1.0  0.48691000000000006  0.38965  0.46576000000000006  1.0000
  O   O45       1.0  0.25847  0.32245999999999997  0.4111900000000001  1.0000
  O   O46       1.0  0.32494  0.25843  0.4177100000000001  1.0000
  O   O47       1.0  0.29573  0.446  0.45977000000000007  1.0000
  O   O48       1.0  0.38967  0.4657499999999999  0.48694  1.0000
  O   O49       1.0  0.8761799999999998  0.87618  0.87618  1.0000
  O   O50       1.0  0.62383  0.6238099999999999  0.6238100000000001  1.0000
  O   O51       1.0  0.12383  0.12381999999999997  0.12382  1.0000
  O   O52       1.0  0.37618  0.37618  0.37618  1.0000
