data_image0
_chemical_formula_structural       Cd12H200C324N32O48
_chemical_formula_sum              "Cd12 H200 C324 N32 O48"
_cell_length_a       12.59163
_cell_length_b       24.39116
_cell_length_c       28.61421
_cell_angle_alpha    90.00136999999998
_cell_angle_beta     90.0
_cell_angle_gamma    90.0

_space_group_name_H-M_alt    "P 1"
_space_group_IT_number       1

loop_
  _space_group_symop_operation_xyz
  'x, y, z'

loop_
  _atom_site_type_symbol
  _atom_site_label
  _atom_site_symmetry_multiplicity
  _atom_site_fract_x
  _atom_site_fract_y
  _atom_site_fract_z
  _atom_site_occupancy
  Cd  Cd1       1.0  0.06505  0.99727  0.31183  1.0000
  Cd  Cd2       1.0  0.18910000000000002  0.89939  0.24146000000000004  1.0000
  Cd  Cd3       1.0  0.32435  0.7992899999999997  0.17945  1.0000
  Cd  Cd4       1.0  0.06505  0.00273  0.68816  1.0000
  Cd  Cd5       1.0  0.18910000000000002  0.10060999999999999  0.75853  1.0000
  Cd  Cd6       1.0  0.32435  0.20070999999999997  0.82054  1.0000
  Cd  Cd7       1.0  0.56698  0.49752999999999986  0.18832  1.0000
  Cd  Cd8       1.0  0.6903  0.3997  0.25915  1.0000
  Cd  Cd9       1.0  0.82539  0.29912  0.32096  1.0000
  Cd  Cd10      1.0  0.56698  0.50247  0.81168  1.0000
  Cd  Cd11      1.0  0.6903  0.6003  0.74084  1.0000
  Cd  Cd12      1.0  0.82539  0.70088  0.67903  1.0000
  H   H1        1.0  0.7938200000000001  0.64349  0.14165000000000005  1.0000
  H   H2        1.0  0.8920900000000002  0.5584999999999999  0.01711  1.0000
  H   H3        1.0  0.9082200000000001  0.5886499999999999  0.1737  1.0000
  H   H4        1.0  0.08696  0.58229  0.20905000000000004  1.0000
  H   H5        1.0  0.22848  0.5937499999999999  0.07243  1.0000
  H   H6        1.0  0.049030000000000004  0.5993699999999998  0.03651000000000001  1.0000
  H   H7        1.0  0.7865400000000002  0.52669  0.86617  1.0000
  H   H8        1.0  0.8538500000000001  0.5653499999999999  0.94124  1.0000
  H   H9        1.0  0.5321  0.56182  0.99262  1.0000
  H   H10       1.0  0.47793  0.52243  0.9151500000000002  1.0000
  H   H11       1.0  0.55829  0.7682699999999999  0.1909  1.0000
  H   H12       1.0  0.69925  0.7095699999999998  0.15861  1.0000
  H   H13       1.0  0.4678  0.63953  0.06458  1.0000
  H   H14       1.0  0.3317  0.7006199999999999  0.1022  1.0000
  H   H15       1.0  0.33497000000000005  0.5133199999999999  0.13036  1.0000
  H   H16       1.0  0.47852  0.6250399999999999  0.22315  1.0000
  H   H17       1.0  0.26796  0.65793  0.20697  1.0000
  H   H18       1.0  0.5015  0.88019  0.22563000000000005  1.0000
  H   H19       1.0  0.7642200000000001  0.9920899999999998  0.24257  1.0000
  H   H20       1.0  0.88382  0.9123099999999997  0.24169  1.0000
  H   H21       1.0  0.4259  0.95046  0.27355  1.0000
  H   H22       1.0  0.64667  0.03794  0.18576  1.0000
  H   H23       1.0  0.51573  0.11293  0.17673  1.0000
  H   H24       1.0  0.33818  0.10593  0.21508  1.0000
  H   H25       1.0  0.96729  0.8497599999999997  0.20671  1.0000
  H   H26       1.0  0.7019800000000002  0.74831  0.24548  1.0000
  H   H27       1.0  0.81627  0.6654299999999999  0.23848  1.0000
  H   H28       1.0  0.010240000000000003  0.6762999999999999  0.22065000000000007  1.0000
  H   H29       1.0  0.060090000000000005  0.6697799999999999  0.42703000000000013  1.0000
  H   H30       1.0  0.17818  0.71722  0.29166  1.0000
  H   H31       1.0  0.32057  0.64792  0.30152  1.0000
  H   H32       1.0  0.11623000000000001  0.8041999999999998  0.32837  1.0000
  H   H33       1.0  0.89558  0.68248  0.37904  1.0000
  H   H34       1.0  0.75068  0.7506499999999998  0.37514  1.0000
  H   H35       1.0  0.7902300000000001  0.8475599999999999  0.35101  1.0000
  H   H36       1.0  0.37573  0.5642099999999999  0.3011800000000001  1.0000
  H   H37       1.0  0.3256  0.57522  0.4498400000000001  1.0000
  H   H38       1.0  0.4616  0.50189  0.4618  1.0000
  H   H39       1.0  0.55257  0.45998999999999995  0.3926300000000001  1.0000
  H   H40       1.0  0.56273  0.6391499999999999  0.31429  1.0000
  H   H41       1.0  0.62399  0.6985899999999999  0.45352000000000003  1.0000
  H   H42       1.0  0.7607900000000001  0.62591  0.46121  1.0000
  H   H43       1.0  0.5168  0.73403  0.30438  1.0000
  H   H44       1.0  0.4481800000000001  0.7091499999999998  0.45073  1.0000
  H   H45       1.0  0.30975  0.7811199999999998  0.44688  1.0000
  H   H46       1.0  0.27376  0.8288999999999997  0.37095000000000006  1.0000
  H   H47       1.0  0.73653  0.49627  0.3481300000000001  1.0000
  H   H48       1.0  0.9228400000000002  0.5981799999999999  0.4398900000000001  1.0000
  H   H49       1.0  0.05489000000000001  0.5241699999999999  0.44835  1.0000
  H   H50       1.0  0.02107  0.43253  0.41163000000000005  1.0000
  H   H51       1.0  0.7938200000000001  0.3565099999999999  0.85834  1.0000
  H   H52       1.0  0.8920900000000002  0.44149  0.98289  1.0000
  H   H53       1.0  0.9082200000000001  0.41135  0.8263000000000003  1.0000
  H   H54       1.0  0.08696  0.41771  0.79094  1.0000
  H   H55       1.0  0.22848  0.40624  0.9275700000000001  1.0000
  H   H56       1.0  0.049030000000000004  0.40063  0.9634800000000002  1.0000
  H   H57       1.0  0.7865400000000002  0.47331  0.13383  1.0000
  H   H58       1.0  0.8538500000000001  0.43465  0.05876  1.0000
  H   H59       1.0  0.5321  0.4381799999999999  0.00738  1.0000
  H   H60       1.0  0.47793  0.47757  0.08485  1.0000
  H   H61       1.0  0.55829  0.23173  0.80909  1.0000
  H   H62       1.0  0.69925  0.29043  0.8413900000000002  1.0000
  H   H63       1.0  0.4678  0.36047  0.9354200000000001  1.0000
  H   H64       1.0  0.3317  0.29937  0.89779  1.0000
  H   H65       1.0  0.33497000000000005  0.48668  0.8696400000000002  1.0000
  H   H66       1.0  0.47852  0.37496  0.77685  1.0000
  H   H67       1.0  0.26796  0.34207  0.7930300000000002  1.0000
  H   H68       1.0  0.5015  0.11981  0.77437  1.0000
  H   H69       1.0  0.7642200000000001  0.00791  0.7574300000000003  1.0000
  H   H70       1.0  0.88382  0.08768  0.75831  1.0000
  H   H71       1.0  0.4259  0.04954  0.72645  1.0000
  H   H72       1.0  0.64667  0.9620599999999999  0.81423  1.0000
  H   H73       1.0  0.51573  0.8870699999999999  0.8232700000000001  1.0000
  H   H74       1.0  0.33818  0.89406  0.78491  1.0000
  H   H75       1.0  0.96729  0.15024  0.7932900000000003  1.0000
  H   H76       1.0  0.7019800000000002  0.25169  0.7545200000000001  1.0000
  H   H77       1.0  0.81627  0.33457  0.76152  1.0000
  H   H78       1.0  0.010240000000000003  0.32369999999999993  0.77935  1.0000
  H   H79       1.0  0.060090000000000005  0.33022  0.57297  1.0000
  H   H80       1.0  0.17818  0.28277  0.70833  1.0000
  H   H81       1.0  0.32057  0.35207  0.6984800000000001  1.0000
  H   H82       1.0  0.11623000000000001  0.19579999999999997  0.67162  1.0000
  H   H83       1.0  0.89558  0.31752  0.62096  1.0000
  H   H84       1.0  0.75068  0.24934999999999996  0.6248600000000001  1.0000
  H   H85       1.0  0.7902300000000001  0.15242999999999998  0.64899  1.0000
  H   H86       1.0  0.37573  0.43579  0.6988200000000002  1.0000
  H   H87       1.0  0.3256  0.42476999999999987  0.55016  1.0000
  H   H88       1.0  0.4616  0.49811  0.5382  1.0000
  H   H89       1.0  0.55257  0.54001  0.6073700000000002  1.0000
  H   H90       1.0  0.56273  0.36085  0.68571  1.0000
  H   H91       1.0  0.62399  0.30141  0.54648  1.0000
  H   H92       1.0  0.7607900000000001  0.37408999999999987  0.53879  1.0000
  H   H93       1.0  0.5168  0.26597  0.69562  1.0000
  H   H94       1.0  0.4481800000000001  0.29084999999999994  0.54927  1.0000
  H   H95       1.0  0.30975  0.21887999999999994  0.55311  1.0000
  H   H96       1.0  0.27376  0.1711  0.62904  1.0000
  H   H97       1.0  0.73653  0.5037299999999999  0.65187  1.0000
  H   H98       1.0  0.9228400000000002  0.40181999999999995  0.56011  1.0000
  H   H99       1.0  0.05489000000000001  0.47583  0.55164  1.0000
  H   H100      1.0  0.02107  0.56747  0.58837  1.0000
  H   H101      1.0  0.29404  0.14324  0.35863  1.0000
  H   H102      1.0  0.39261  0.05833  0.4831600000000001  1.0000
  H   H103      1.0  0.40771  0.08817  0.3265500000000001  1.0000
  H   H104      1.0  0.5863  0.08225  0.2909100000000001  1.0000
  H   H105      1.0  0.72873  0.09408999999999998  0.42732  1.0000
  H   H106      1.0  0.54944  0.09934  0.46352  1.0000
  H   H107      1.0  0.28673  0.026339999999999995  0.63414  1.0000
  H   H108      1.0  0.3543000000000001  0.06517  0.55918  1.0000
  H   H109      1.0  0.03285  0.06120999999999999  0.50743  1.0000
  H   H110      1.0  0.9785000000000003  0.0215  0.58476  1.0000
  H   H111      1.0  0.05847000000000001  0.26816999999999996  0.30964  1.0000
  H   H112      1.0  0.19952  0.20932  0.34169000000000005  1.0000
  H   H113      1.0  0.96825  0.13907  0.43572  1.0000
  H   H114      1.0  0.8319900000000001  0.20027  0.39822  1.0000
  H   H115      1.0  0.83417  0.013539999999999996  0.3695  1.0000
  H   H116      1.0  0.9785300000000001  0.12529  0.27696  1.0000
  H   H117      1.0  0.7681  0.15837  0.29303  1.0000
  H   H118      1.0  0.00301  0.38086999999999993  0.2743  1.0000
  H   H119      1.0  0.26654  0.4924399999999999  0.25827  1.0000
  H   H120      1.0  0.38572  0.4125099999999999  0.25931  1.0000
  H   H121      1.0  0.9287100000000001  0.4509499999999999  0.22634000000000007  1.0000
  H   H122      1.0  0.14785  0.53802  0.31522  1.0000
  H   H123      1.0  0.01703  0.6131699999999999  0.32375000000000004  1.0000
  H   H124      1.0  0.8401  0.6062199999999999  0.28495  1.0000
  H   H125      1.0  0.46863000000000005  0.34952  0.29399  1.0000
  H   H126      1.0  0.20243  0.24902999999999995  0.25463  1.0000
  H   H127      1.0  0.31579  0.16572999999999993  0.26156  1.0000
  H   H128      1.0  0.50949  0.17595999999999995  0.28004  1.0000
  H   H129      1.0  0.558  0.16911999999999996  0.07301000000000002  1.0000
  H   H130      1.0  0.6783  0.21675999999999998  0.20797  1.0000
  H   H131      1.0  0.8202800000000001  0.14743  0.19776  1.0000
  H   H132      1.0  0.61654  0.30387999999999993  0.17191  1.0000
  H   H133      1.0  0.39421000000000006  0.18331999999999996  0.1206  1.0000
  H   H134      1.0  0.25021  0.25179  0.1253  1.0000
  H   H135      1.0  0.29073  0.34828  0.15018  1.0000
  H   H136      1.0  0.8744  0.06374  0.19823000000000005  1.0000
  H   H137      1.0  0.8265700000000001  0.0749  0.04939000000000001  1.0000
  H   H138      1.0  0.96311  0.00186  0.03789  1.0000
  H   H139      1.0  0.05227  0.9594199999999999  0.10721  1.0000
  H   H140      1.0  0.06178000000000001  0.13918  0.18548000000000003  1.0000
  H   H141      1.0  0.12369000000000001  0.19856  0.04628  1.0000
  H   H142      1.0  0.26043  0.12582  0.038720000000000004  1.0000
  H   H143      1.0  0.016  0.23313999999999993  0.19573000000000004  1.0000
  H   H144      1.0  0.9479400000000001  0.21023  0.04908000000000001  1.0000
  H   H145      1.0  0.80942  0.2819499999999999  0.05365  1.0000
  H   H146      1.0  0.7733700000000002  0.32899  0.12986  1.0000
  H   H147      1.0  0.23513000000000003  0.9963199999999998  0.15185000000000007  1.0000
  H   H148      1.0  0.42239  0.09791  0.060200000000000004  1.0000
  H   H149      1.0  0.55388  0.02363  0.05174  1.0000
  H   H150      1.0  0.51899  0.9319599999999998  0.08831000000000003  1.0000
  H   H151      1.0  0.29404  0.8567499999999998  0.64137  1.0000
  H   H152      1.0  0.39261  0.94167  0.51684  1.0000
  H   H153      1.0  0.40771  0.91183  0.6734400000000003  1.0000
  H   H154      1.0  0.5863  0.91775  0.7090800000000003  1.0000
  H   H155      1.0  0.72873  0.90591  0.57267  1.0000
  H   H156      1.0  0.54945  0.9006599999999998  0.53648  1.0000
  H   H157      1.0  0.28673  0.9736599999999997  0.3658600000000001  1.0000
  H   H158      1.0  0.3543000000000001  0.9348299999999998  0.44081000000000004  1.0000
  H   H159      1.0  0.03285  0.93879  0.49256  1.0000
  H   H160      1.0  0.9785000000000003  0.97849  0.41524  1.0000
  H   H161      1.0  0.05847000000000001  0.7318299999999998  0.69036  1.0000
  H   H162      1.0  0.19952  0.79068  0.65831  1.0000
  H   H163      1.0  0.96825  0.86093  0.56428  1.0000
  H   H164      1.0  0.8319900000000001  0.7997299999999998  0.60177  1.0000
  H   H165      1.0  0.83417  0.98646  0.63049  1.0000
  H   H166      1.0  0.9785300000000001  0.8747099999999998  0.72303  1.0000
  H   H167      1.0  0.7681  0.8416299999999999  0.70697  1.0000
  H   H168      1.0  0.00301  0.61913  0.7257  1.0000
  H   H169      1.0  0.26654  0.50755  0.74173  1.0000
  H   H170      1.0  0.38572  0.58748  0.74069  1.0000
  H   H171      1.0  0.9287100000000001  0.54905  0.77366  1.0000
  H   H172      1.0  0.14785  0.4619799999999999  0.68477  1.0000
  H   H173      1.0  0.01703  0.38683  0.6762500000000002  1.0000
  H   H174      1.0  0.8401  0.39378  0.71504  1.0000
  H   H175      1.0  0.46863000000000005  0.65048  0.70601  1.0000
  H   H176      1.0  0.20243  0.75097  0.74536  1.0000
  H   H177      1.0  0.31579  0.8342699999999998  0.73844  1.0000
  H   H178      1.0  0.50949  0.8240399999999998  0.71996  1.0000
  H   H179      1.0  0.558  0.83088  0.92699  1.0000
  H   H180      1.0  0.6783  0.78324  0.79202  1.0000
  H   H181      1.0  0.8202800000000001  0.85257  0.80224  1.0000
  H   H182      1.0  0.61654  0.69612  0.82808  1.0000
  H   H183      1.0  0.39421000000000006  0.8166799999999999  0.8794000000000002  1.0000
  H   H184      1.0  0.25021  0.7481999999999998  0.8746900000000002  1.0000
  H   H185      1.0  0.29074  0.6517099999999999  0.84982  1.0000
  H   H186      1.0  0.8744  0.9362599999999998  0.80176  1.0000
  H   H187      1.0  0.8265700000000001  0.9251  0.9506100000000002  1.0000
  H   H188      1.0  0.96311  0.99814  0.9621  1.0000
  H   H189      1.0  0.05227  0.04058  0.89278  1.0000
  H   H190      1.0  0.06178000000000001  0.8608199999999998  0.81452  1.0000
  H   H191      1.0  0.12369000000000001  0.80144  0.95371  1.0000
  H   H192      1.0  0.26043  0.87418  0.9612800000000002  1.0000
  H   H193      1.0  0.016  0.76686  0.80427  1.0000
  H   H194      1.0  0.9479400000000001  0.78977  0.9509200000000002  1.0000
  H   H195      1.0  0.80942  0.71805  0.94634  1.0000
  H   H196      1.0  0.7733700000000002  0.67101  0.87014  1.0000
  H   H197      1.0  0.23513000000000003  0.0036800000000000005  0.84815  1.0000
  H   H198      1.0  0.42239  0.9020899999999997  0.9398  1.0000
  H   H199      1.0  0.55388  0.9763699999999998  0.9482600000000002  1.0000
  H   H200      1.0  0.51898  0.06804  0.91169  1.0000
  C   C1        1.0  0.67802  0.63481  0.08623  1.0000
  C   C2        1.0  0.77801  0.6276899999999999  0.10683  1.0000
  C   C3        1.0  0.8584500000000002  0.60066  0.08202  1.0000
  C   C4        1.0  0.83323  0.58085  0.03736  1.0000
  C   C5        1.0  0.7299900000000001  0.58765  0.01998  1.0000
  C   C6        1.0  0.96544  0.59447  0.10253  1.0000
  C   C7        1.0  0.97786  0.59012  0.15123000000000006  1.0000
  C   C8        1.0  0.07832  0.58668  0.17139  1.0000
  C   C9        1.0  0.16794  0.5881199999999999  0.14267  1.0000
  C   C10       1.0  0.15756  0.5917199999999999  0.09407000000000003  1.0000
  C   C11       1.0  0.0567  0.59462  0.07417  1.0000
  C   C12       1.0  0.73347  0.53361  0.89562  1.0000
  C   C13       1.0  0.77007  0.5553  0.93769  1.0000
  C   C14       1.0  0.69779  0.5653699999999999  0.9739700000000002  1.0000
  C   C15       1.0  0.59042  0.55359  0.9655400000000001  1.0000
  C   C16       1.0  0.56065  0.53144  0.9228900000000002  1.0000
  C   C17       1.0  0.53988  0.7384199999999999  0.16358  1.0000
  C   C18       1.0  0.61898  0.70503  0.14517  1.0000
  C   C19       1.0  0.59469  0.6684  0.10898000000000002  1.0000
  C   C20       1.0  0.48922  0.66683  0.09306000000000002  1.0000
  C   C21       1.0  0.4142700000000001  0.7009899999999998  0.11350000000000003  1.0000
  C   C22       1.0  0.34911  0.54938  0.15149  1.0000
  C   C23       1.0  0.41750000000000004  0.60704  0.20137000000000002  1.0000
  C   C24       1.0  0.31417  0.6232899999999999  0.19474  1.0000
  C   C25       1.0  0.58628  0.8884599999999999  0.22904  1.0000
  C   C26       1.0  0.62166  0.9429999999999998  0.23306  1.0000
  C   C27       1.0  0.73146  0.9511599999999998  0.23771000000000006  1.0000
  C   C28       1.0  0.79909  0.9062199999999998  0.23688  1.0000
  C   C29       1.0  0.7567300000000001  0.8534699999999998  0.23064000000000004  1.0000
  C   C30       1.0  0.27004  0.026569999999999996  0.27384  1.0000
  C   C31       1.0  0.3732800000000001  0.02896  0.24827  1.0000
  C   C32       1.0  0.44648000000000004  0.98602  0.25248  1.0000
  C   C33       1.0  0.54578  0.98889  0.23037  1.0000
  C   C34       1.0  0.57061  0.03566  0.20374  1.0000
  C   C35       1.0  0.49675000000000014  0.07789  0.19859  1.0000
  C   C36       1.0  0.39816  0.07461  0.22059000000000006  1.0000
  C   C37       1.0  0.11385000000000002  0.7707499999999999  0.20114  1.0000
  C   C38       1.0  0.99973  0.7639099999999998  0.21336  1.0000
  C   C39       1.0  0.9336200000000001  0.8099799999999999  0.21539000000000003  1.0000
  C   C40       1.0  0.82615  0.8047999999999997  0.22737  1.0000
  C   C41       1.0  0.78533  0.7521199999999999  0.236  1.0000
  C   C42       1.0  0.85019  0.7059099999999998  0.23277  1.0000
  C   C43       1.0  0.95786  0.7116199999999998  0.2222  1.0000
  C   C44       1.0  0.11528  0.6648199999999999  0.3979200000000001  1.0000
  C   C45       1.0  0.10453000000000003  0.69845  0.3582800000000001  1.0000
  C   C46       1.0  0.18138  0.69216  0.32314  1.0000
  C   C47       1.0  0.26017  0.6527399999999999  0.32835  1.0000
  C   C48       1.0  0.26184  0.61956  0.3685500000000001  1.0000
  C   C49       1.0  0.9822  0.8890099999999997  0.32637000000000005  1.0000
  C   C50       1.0  0.9556400000000002  0.83114  0.33855  1.0000
  C   C51       1.0  0.03669  0.79188  0.33895  1.0000
  C   C52       1.0  0.01702  0.7384199999999999  0.35477  1.0000
  C   C53       1.0  0.9128900000000001  0.72424  0.36795  1.0000
  C   C54       1.0  0.83102  0.76286  0.36585000000000006  1.0000
  C   C55       1.0  0.85233  0.81659  0.3520300000000001  1.0000
  C   C56       1.0  0.52257  0.48573999999999995  0.30116  1.0000
  C   C57       1.0  0.4688  0.51009  0.3431300000000001  1.0000
  C   C58       1.0  0.39348  0.5516599999999999  0.3368100000000001  1.0000
  C   C59       1.0  0.3416600000000001  0.5756599999999998  0.37505  1.0000
  C   C60       1.0  0.3666  0.55686  0.42027  1.0000
  C   C61       1.0  0.44224000000000013  0.51573  0.42666  1.0000
  C   C62       1.0  0.49353  0.4921299999999999  0.38833  1.0000
  C   C63       1.0  0.60675  0.6384399999999999  0.34714  1.0000
  C   C64       1.0  0.58088  0.6757999999999997  0.38289  1.0000
  C   C65       1.0  0.63939  0.6708  0.4245400000000001  1.0000
  C   C66       1.0  0.71714  0.6307399999999999  0.42867  1.0000
  C   C67       1.0  0.73737  0.59557  0.39074  1.0000
  C   C68       1.0  0.35795  0.80781  0.28737  1.0000
  C   C69       1.0  0.3915  0.78321  0.33336  1.0000
  C   C70       1.0  0.47226  0.74364  0.33594  1.0000
  C   C71       1.0  0.4957300000000001  0.71729  0.37845  1.0000
  C   C72       1.0  0.43484  0.7310599999999998  0.4181400000000001  1.0000
  C   C73       1.0  0.35616  0.77121  0.41593  1.0000
  C   C74       1.0  0.33513  0.7977299999999999  0.37376  1.0000
  C   C75       1.0  0.8583  0.40454  0.35553  1.0000
  C   C76       1.0  0.87693  0.459  0.37784  1.0000
  C   C77       1.0  0.80515  0.502  0.37071  1.0000
  C   C78       1.0  0.81853  0.55189  0.3945  1.0000
  C   C79       1.0  0.90915  0.5591  0.42258  1.0000
  C   C80       1.0  0.98349  0.5171  0.42783  1.0000
  C   C81       1.0  0.96598  0.4663799999999999  0.4067100000000001  1.0000
  C   C82       1.0  0.67802  0.36518  0.91376  1.0000
  C   C83       1.0  0.77801  0.37231  0.89316  1.0000
  C   C84       1.0  0.8584500000000002  0.39933999999999986  0.9179700000000002  1.0000
  C   C85       1.0  0.83323  0.41915  0.96263  1.0000
  C   C86       1.0  0.7299900000000001  0.41234999999999994  0.98002  1.0000
  C   C87       1.0  0.96544  0.40553  0.8974600000000003  1.0000
  C   C88       1.0  0.97786  0.4098799999999999  0.8487700000000001  1.0000
  C   C89       1.0  0.07832  0.41332  0.8286000000000002  1.0000
  C   C90       1.0  0.16794  0.41187  0.85732  1.0000
  C   C91       1.0  0.15756  0.40828  0.90593  1.0000
  C   C92       1.0  0.0567  0.4053799999999999  0.9258300000000003  1.0000
  C   C93       1.0  0.73347  0.4663899999999999  0.10437  1.0000
  C   C94       1.0  0.77007  0.44469  0.06231000000000001  1.0000
  C   C95       1.0  0.69779  0.43462999999999996  0.02603  1.0000
  C   C96       1.0  0.59042  0.44641  0.03446  1.0000
  C   C97       1.0  0.56065  0.4685599999999999  0.07711  1.0000
  C   C98       1.0  0.53988  0.26158  0.8364100000000002  1.0000
  C   C99       1.0  0.61898  0.29496  0.85483  1.0000
  C   C100      1.0  0.59469  0.33159999999999995  0.89102  1.0000
  C   C101      1.0  0.48922  0.33317  0.90694  1.0000
  C   C102      1.0  0.4142700000000001  0.29901  0.8865  1.0000
  C   C103      1.0  0.34911  0.45062  0.84851  1.0000
  C   C104      1.0  0.41750000000000004  0.39296  0.79863  1.0000
  C   C105      1.0  0.31417  0.37671  0.80526  1.0000
  C   C106      1.0  0.58628  0.11153999999999997  0.77096  1.0000
  C   C107      1.0  0.62166  0.056999999999999995  0.76694  1.0000
  C   C108      1.0  0.73146  0.04884  0.7622900000000001  1.0000
  C   C109      1.0  0.79909  0.09377999999999997  0.76311  1.0000
  C   C110      1.0  0.7567300000000001  0.14653  0.76935  1.0000
  C   C111      1.0  0.27004  0.9734299999999998  0.72616  1.0000
  C   C112      1.0  0.3732800000000001  0.9710399999999999  0.75172  1.0000
  C   C113      1.0  0.44648000000000004  0.013979999999999996  0.74752  1.0000
  C   C114      1.0  0.54578  0.011099999999999997  0.76963  1.0000
  C   C115      1.0  0.57061  0.96434  0.79625  1.0000
  C   C116      1.0  0.49675000000000014  0.9221099999999998  0.8014  1.0000
  C   C117      1.0  0.39816  0.92539  0.77941  1.0000
  C   C118      1.0  0.11385000000000002  0.22925  0.79886  1.0000
  C   C119      1.0  0.99973  0.23609  0.78664  1.0000
  C   C120      1.0  0.9336200000000001  0.19001999999999997  0.78461  1.0000
  C   C121      1.0  0.82615  0.1952  0.7726200000000002  1.0000
  C   C122      1.0  0.78533  0.24786999999999995  0.76399  1.0000
  C   C123      1.0  0.85019  0.29407999999999995  0.7672200000000001  1.0000
  C   C124      1.0  0.95786  0.28837  0.7777900000000002  1.0000
  C   C125      1.0  0.11528  0.3351799999999999  0.6020700000000002  1.0000
  C   C126      1.0  0.10453000000000003  0.30155  0.64171  1.0000
  C   C127      1.0  0.18138  0.30784  0.67685  1.0000
  C   C128      1.0  0.26017  0.34726  0.67165  1.0000
  C   C129      1.0  0.26184  0.3804399999999999  0.63145  1.0000
  C   C130      1.0  0.9822  0.11099  0.67363  1.0000
  C   C131      1.0  0.9556400000000002  0.16885999999999995  0.66144  1.0000
  C   C132      1.0  0.03669  0.20810999999999996  0.66105  1.0000
  C   C133      1.0  0.01702  0.26157  0.6452300000000001  1.0000
  C   C134      1.0  0.9128900000000001  0.27576  0.63204  1.0000
  C   C135      1.0  0.83102  0.23713999999999996  0.63415  1.0000
  C   C136      1.0  0.8523200000000002  0.18340999999999993  0.6479600000000002  1.0000
  C   C137      1.0  0.52257  0.5142599999999999  0.6988300000000002  1.0000
  C   C138      1.0  0.4688  0.4899099999999999  0.65686  1.0000
  C   C139      1.0  0.39348  0.44833999999999996  0.6631900000000002  1.0000
  C   C140      1.0  0.3416600000000001  0.42434  0.6249400000000002  1.0000
  C   C141      1.0  0.3666  0.44314  0.57972  1.0000
  C   C142      1.0  0.44224000000000013  0.48426999999999987  0.57333  1.0000
  C   C143      1.0  0.49353  0.50787  0.61167  1.0000
  C   C144      1.0  0.60675  0.3615499999999999  0.6528600000000001  1.0000
  C   C145      1.0  0.58088  0.3242  0.6171000000000001  1.0000
  C   C146      1.0  0.63939  0.3292  0.57546  1.0000
  C   C147      1.0  0.71714  0.36925  0.5713300000000001  1.0000
  C   C148      1.0  0.73737  0.40442  0.60926  1.0000
  C   C149      1.0  0.35795  0.19219  0.71263  1.0000
  C   C150      1.0  0.3915  0.21678999999999995  0.66663  1.0000
  C   C151      1.0  0.47226  0.25636  0.66406  1.0000
  C   C152      1.0  0.4957300000000001  0.28271  0.62155  1.0000
  C   C153      1.0  0.43484  0.26894  0.5818600000000003  1.0000
  C   C154      1.0  0.35616  0.22878999999999994  0.5840700000000001  1.0000
  C   C155      1.0  0.33513  0.20227  0.62623  1.0000
  C   C156      1.0  0.8583  0.59546  0.64447  1.0000
  C   C157      1.0  0.87693  0.541  0.62216  1.0000
  C   C158      1.0  0.80515  0.49799999999999994  0.62928  1.0000
  C   C159      1.0  0.81853  0.44810999999999995  0.6055  1.0000
  C   C160      1.0  0.90915  0.4409  0.57741  1.0000
  C   C161      1.0  0.98349  0.4829  0.57217  1.0000
  C   C162      1.0  0.96598  0.53362  0.59329  1.0000
  C   C163      1.0  0.17835  0.13455  0.41408  1.0000
  C   C164      1.0  0.27826  0.12742999999999996  0.39344  1.0000
  C   C165      1.0  0.35871  0.10041  0.4182300000000001  1.0000
  C   C166      1.0  0.33368000000000003  0.08065  0.46292  1.0000
  C   C167      1.0  0.23048  0.08744999999999999  0.48033000000000003  1.0000
  C   C168      1.0  0.46552000000000004  0.09423999999999998  0.3976  1.0000
  C   C169      1.0  0.47755000000000003  0.08983  0.3489  1.0000
  C   C170      1.0  0.57785  0.08662999999999998  0.32858  1.0000
  C   C171      1.0  0.6676100000000003  0.08833  0.3571900000000001  1.0000
  C   C172      1.0  0.65763  0.09191  0.40581  1.0000
  C   C173      1.0  0.55693  0.09459  0.4258600000000001  1.0000
  C   C174      1.0  0.23381000000000002  0.03319  0.6046200000000002  1.0000
  C   C175      1.0  0.27053  0.05502  0.56263  1.0000
  C   C176      1.0  0.19836000000000006  0.06506  0.5263  1.0000
  C   C177      1.0  0.09105  0.05303  0.53457  1.0000
  C   C178      1.0  0.061190000000000015  0.030689999999999995  0.57712  1.0000
  C   C179      1.0  0.04017  0.23826999999999998  0.33692  1.0000
  C   C180      1.0  0.11929  0.20479999999999998  0.3552  1.0000
  C   C181      1.0  0.09502000000000001  0.16812  0.3913600000000001  1.0000
  C   C182      1.0  0.9895600000000002  0.16646999999999998  0.40729  1.0000
  C   C183      1.0  0.9145800000000002  0.20068  0.38696  1.0000
  C   C184      1.0  0.84844  0.04957  0.34834  1.0000
  C   C185      1.0  0.91731  0.10724999999999998  0.2986  1.0000
  C   C186      1.0  0.8140300000000001  0.12359999999999997  0.30516  1.0000
  C   C187      1.0  0.08792  0.38896  0.2711  1.0000
  C   C188      1.0  0.1237  0.44344  0.26733  1.0000
  C   C189      1.0  0.23354000000000003  0.45154  0.26298  1.0000
  C   C190      1.0  0.30093  0.40651999999999994  0.2639  1.0000
  C   C191      1.0  0.25821  0.35382  0.26985  1.0000
  C   C192      1.0  0.77214  0.52656  0.22668  1.0000
  C   C193      1.0  0.87548  0.52911  0.252  1.0000
  C   C194      1.0  0.94892  0.48639  0.24764  1.0000
  C   C195      1.0  0.04792  0.4892999999999999  0.26997  1.0000
  C   C196      1.0  0.07224  0.5359  0.29687  1.0000
  C   C197      1.0  0.99837  0.57814  0.30183  1.0000
  C   C198      1.0  0.90004  0.57484  0.27965  1.0000
  C   C199      1.0  0.61419  0.2697899999999999  0.29993  1.0000
  C   C200      1.0  0.50011  0.26359  0.28734  1.0000
  C   C201      1.0  0.43461  0.30986  0.28522  1.0000
  C   C202      1.0  0.32717  0.30500999999999995  0.27308  1.0000
  C   C203      1.0  0.28575  0.2525  0.26424  1.0000
  C   C204      1.0  0.35005  0.2061  0.26747  1.0000
  C   C205      1.0  0.45762  0.21146  0.27834  1.0000
  C   C206      1.0  0.61376  0.16431999999999997  0.10192  1.0000
  C   C207      1.0  0.60369  0.19817999999999994  0.14149  1.0000
  C   C208      1.0  0.68095  0.19173  0.17646  1.0000
  C   C209      1.0  0.75958  0.15225  0.17106  1.0000
  C   C210      1.0  0.7609100000000001  0.11906999999999997  0.13084  1.0000
  C   C211      1.0  0.48317  0.38909  0.17469000000000004  1.0000
  C   C212      1.0  0.45621000000000006  0.33131  0.16223  1.0000
  C   C213      1.0  0.53685  0.29182  0.16137000000000007  1.0000
  C   C214      1.0  0.51667  0.23851999999999998  0.14518  1.0000
  C   C215      1.0  0.41226  0.22487999999999997  0.13196  1.0000
  C   C216      1.0  0.33079  0.2637  0.1345  1.0000
  C   C217      1.0  0.35261  0.31719  0.1488  1.0000
  C   C218      1.0  0.020370000000000003  0.98487  0.19891000000000006  1.0000
  C   C219      1.0  0.9677500000000002  0.00944  0.15662  1.0000
  C   C220      1.0  0.8925  0.05115  0.16265000000000004  1.0000
  C   C221      1.0  0.84109  0.07525  0.12431000000000003  1.0000
  C   C222      1.0  0.86694  0.056559999999999985  0.07915  1.0000
  C   C223      1.0  0.9428700000000001  0.01549  0.07300000000000001  1.0000
  C   C224      1.0  0.99331  0.9916299999999998  0.11146  1.0000
  C   C225      1.0  0.10598  0.13846  0.15268  1.0000
  C   C226      1.0  0.08037  0.17588  0.11693000000000002  1.0000
  C   C227      1.0  0.13895  0.17084  0.07531  1.0000
  C   C228      1.0  0.21664  0.13073  0.07123  1.0000
  C   C229      1.0  0.23664  0.09555  0.10917  1.0000
  C   C230      1.0  0.85883  0.30669  0.21352000000000004  1.0000
  C   C231      1.0  0.8911700000000002  0.28272  0.16714000000000007  1.0000
  C   C232      1.0  0.97178  0.24315999999999996  0.16419  1.0000
  C   C233      1.0  0.99537  0.21739  0.12147  1.0000
  C   C234      1.0  0.93459  0.23169999999999993  0.08189  1.0000
  C   C235      1.0  0.8558400000000002  0.27178  0.08453  1.0000
  C   C236      1.0  0.83475  0.29783  0.12692  1.0000
  C   C237      1.0  0.35603  0.9044399999999999  0.14451  1.0000
  C   C238      1.0  0.37515000000000004  0.9587999999999999  0.12215  1.0000
  C   C239      1.0  0.30375  0.0019499999999999997  0.12926  1.0000
  C   C240      1.0  0.31759  0.05179  0.10546000000000001  1.0000
  C   C241      1.0  0.40835  0.05883  0.07744000000000001  1.0000
  C   C242      1.0  0.48233  0.01666  0.07219  1.0000
  C   C243      1.0  0.4642600000000001  0.9659599999999999  0.09327  1.0000
  C   C244      1.0  0.17835  0.86545  0.58592  1.0000
  C   C245      1.0  0.27826  0.87257  0.60655  1.0000
  C   C246      1.0  0.35871  0.89959  0.5817700000000002  1.0000
  C   C247      1.0  0.33368000000000003  0.9193499999999999  0.53708  1.0000
  C   C248      1.0  0.23048  0.9125499999999998  0.51966  1.0000
  C   C249      1.0  0.46552000000000004  0.90576  0.60239  1.0000
  C   C250      1.0  0.47755000000000003  0.9101699999999999  0.6511  1.0000
  C   C251      1.0  0.57785  0.9133699999999998  0.67141  1.0000
  C   C252      1.0  0.6676100000000003  0.91167  0.6428100000000002  1.0000
  C   C253      1.0  0.65763  0.9080899999999998  0.5941900000000001  1.0000
  C   C254      1.0  0.55693  0.9054099999999998  0.5741400000000002  1.0000
  C   C255      1.0  0.23381000000000002  0.96681  0.3953700000000001  1.0000
  C   C256      1.0  0.27053  0.94498  0.4373700000000001  1.0000
  C   C257      1.0  0.19836000000000006  0.93494  0.47369  1.0000
  C   C258      1.0  0.09105  0.94697  0.4654300000000001  1.0000
  C   C259      1.0  0.0612  0.96931  0.42288  1.0000
  C   C260      1.0  0.04017  0.7617299999999999  0.6630800000000001  1.0000
  C   C261      1.0  0.11929  0.7951999999999998  0.6448  1.0000
  C   C262      1.0  0.09502000000000001  0.83188  0.60864  1.0000
  C   C263      1.0  0.9895600000000002  0.83353  0.59271  1.0000
  C   C264      1.0  0.9145800000000002  0.7993099999999999  0.61304  1.0000
  C   C265      1.0  0.84844  0.95043  0.65165  1.0000
  C   C266      1.0  0.91731  0.8927399999999999  0.7014000000000002  1.0000
  C   C267      1.0  0.8140300000000001  0.8763999999999998  0.69483  1.0000
  C   C268      1.0  0.08792  0.6110399999999999  0.7289  1.0000
  C   C269      1.0  0.1237  0.55656  0.73267  1.0000
  C   C270      1.0  0.23354000000000003  0.54845  0.7370100000000002  1.0000
  C   C271      1.0  0.30093  0.59348  0.73609  1.0000
  C   C272      1.0  0.2582  0.6461799999999999  0.73014  1.0000
  C   C273      1.0  0.77214  0.4734299999999999  0.77331  1.0000
  C   C274      1.0  0.87548  0.4708799999999999  0.748  1.0000
  C   C275      1.0  0.94892  0.51361  0.7523600000000003  1.0000
  C   C276      1.0  0.04792  0.51069  0.73003  1.0000
  C   C277      1.0  0.07224  0.4641  0.70313  1.0000
  C   C278      1.0  0.99837  0.42184999999999995  0.69817  1.0000
  C   C279      1.0  0.90004  0.42516  0.72035  1.0000
  C   C280      1.0  0.61419  0.7302099999999998  0.70007  1.0000
  C   C281      1.0  0.50011  0.7363999999999999  0.71266  1.0000
  C   C282      1.0  0.43461  0.6901399999999998  0.71477  1.0000
  C   C283      1.0  0.32717  0.69499  0.7269100000000002  1.0000
  C   C284      1.0  0.28575  0.74749  0.73576  1.0000
  C   C285      1.0  0.35005  0.7939  0.73253  1.0000
  C   C286      1.0  0.45762  0.7885399999999999  0.7216600000000002  1.0000
  C   C287      1.0  0.61376  0.8356799999999998  0.89807  1.0000
  C   C288      1.0  0.60369  0.80182  0.85851  1.0000
  C   C289      1.0  0.68095  0.80827  0.8235400000000002  1.0000
  C   C290      1.0  0.75958  0.8477499999999998  0.82893  1.0000
  C   C291      1.0  0.7609100000000001  0.8809199999999999  0.8691500000000001  1.0000
  C   C292      1.0  0.48317  0.6109099999999998  0.82531  1.0000
  C   C293      1.0  0.45621000000000006  0.6686899999999998  0.83777  1.0000
  C   C294      1.0  0.53685  0.7081799999999999  0.8386300000000001  1.0000
  C   C295      1.0  0.51667  0.7614799999999998  0.85482  1.0000
  C   C296      1.0  0.41226  0.77512  0.86803  1.0000
  C   C297      1.0  0.33079  0.7362999999999997  0.8655  1.0000
  C   C298      1.0  0.35261  0.6827999999999999  0.8512000000000001  1.0000
  C   C299      1.0  0.020370000000000003  0.015129999999999996  0.80109  1.0000
  C   C300      1.0  0.9677500000000002  0.99056  0.84337  1.0000
  C   C301      1.0  0.8925  0.94885  0.83734  1.0000
  C   C302      1.0  0.84109  0.92475  0.87569  1.0000
  C   C303      1.0  0.86694  0.9434399999999998  0.92085  1.0000
  C   C304      1.0  0.9428700000000001  0.9845099999999998  0.927  1.0000
  C   C305      1.0  0.99331  0.00837  0.88854  1.0000
  C   C306      1.0  0.10598  0.86154  0.84732  1.0000
  C   C307      1.0  0.08037  0.82412  0.88307  1.0000
  C   C308      1.0  0.13895  0.8291599999999998  0.92468  1.0000
  C   C309      1.0  0.21664  0.8692699999999999  0.92877  1.0000
  C   C310      1.0  0.23664  0.90445  0.89083  1.0000
  C   C311      1.0  0.85883  0.69331  0.78648  1.0000
  C   C312      1.0  0.8911700000000002  0.71727  0.83285  1.0000
  C   C313      1.0  0.97178  0.75684  0.83581  1.0000
  C   C314      1.0  0.99537  0.7826  0.87852  1.0000
  C   C315      1.0  0.93459  0.7683  0.9181000000000002  1.0000
  C   C316      1.0  0.8558400000000002  0.7282199999999999  0.9154700000000002  1.0000
  C   C317      1.0  0.83475  0.7021699999999997  0.87308  1.0000
  C   C318      1.0  0.35603  0.09556  0.85549  1.0000
  C   C319      1.0  0.37515000000000004  0.0412  0.87785  1.0000
  C   C320      1.0  0.30375  0.9980499999999999  0.87074  1.0000
  C   C321      1.0  0.31759  0.94821  0.8945400000000001  1.0000
  C   C322      1.0  0.40835  0.9411699999999998  0.9225600000000002  1.0000
  C   C323      1.0  0.48233  0.98334  0.9278100000000002  1.0000
  C   C324      1.0  0.4642600000000001  0.03404  0.90672  1.0000
  N   N1        1.0  0.65351  0.61393  0.04404  1.0000
  N   N2        1.0  0.63067  0.52111  0.88833  1.0000
  N   N3        1.0  0.43880000000000013  0.73647  0.14805  1.0000
  N   N4        1.0  0.27164  0.58635  0.16266000000000005  1.0000
  N   N5        1.0  0.43813  0.5612399999999999  0.1743  1.0000
  N   N6        1.0  0.65067  0.84481  0.22750000000000004  1.0000
  N   N7        1.0  0.19029  0.62653  0.40334  1.0000
  N   N8        1.0  0.6818600000000002  0.59972  0.35041  1.0000
  N   N9        1.0  0.65351  0.3860699999999999  0.9559600000000003  1.0000
  N   N10       1.0  0.63067  0.47889  0.11167  1.0000
  N   N11       1.0  0.43880000000000013  0.26353  0.8519400000000003  1.0000
  N   N12       1.0  0.27164  0.4136499999999999  0.83734  1.0000
  N   N13       1.0  0.43813  0.43876  0.82569  1.0000
  N   N14       1.0  0.65067  0.15519  0.7725000000000002  1.0000
  N   N15       1.0  0.19029  0.37347  0.5966600000000001  1.0000
  N   N16       1.0  0.6818600000000002  0.4002699999999999  0.64959  1.0000
  N   N17       1.0  0.15392  0.11368999999999999  0.4562900000000001  1.0000
  N   N18       1.0  0.13106  0.02048  0.61176  1.0000
  N   N19       1.0  0.9391400000000001  0.2363  0.35251  1.0000
  N   N20       1.0  0.77122  0.08662999999999998  0.33714  1.0000
  N   N21       1.0  0.93757  0.06137  0.32562  1.0000
  N   N22       1.0  0.15207  0.34524  0.27269  1.0000
  N   N23       1.0  0.68869  0.12597  0.09629000000000003  1.0000
  N   N24       1.0  0.18096000000000004  0.09968  0.14946  1.0000
  N   N25       1.0  0.15392  0.88631  0.54371  1.0000
  N   N26       1.0  0.13106  0.97952  0.38824  1.0000
  N   N27       1.0  0.9391400000000001  0.7637  0.64748  1.0000
  N   N28       1.0  0.77122  0.9133699999999998  0.66286  1.0000
  N   N29       1.0  0.93757  0.93863  0.67438  1.0000
  N   N30       1.0  0.15207  0.65476  0.72731  1.0000
  N   N31       1.0  0.68869  0.87403  0.90371  1.0000
  N   N32       1.0  0.18096000000000004  0.9003199999999999  0.85053  1.0000
  O   O1        1.0  0.23364000000000001  0.97787  0.2843  1.0000
  O   O2        1.0  0.22255  0.06944  0.28644  1.0000
  O   O3        1.0  0.14879  0.82027  0.19442000000000004  1.0000
  O   O4        1.0  0.17473  0.7298699999999999  0.19663  1.0000
  O   O5        1.0  0.06875  0.89771  0.30324  1.0000
  O   O6        1.0  0.92407  0.92783  0.3405700000000001  1.0000
  O   O7        1.0  0.4972800000000001  0.50564  0.26172  1.0000
  O   O8        1.0  0.58809  0.44663  0.3087800000000001  1.0000
  O   O9        1.0  0.29091  0.84687  0.28931  1.0000
  O   O10       1.0  0.39688  0.78617  0.25044  1.0000
  O   O11       1.0  0.8306  0.4026  0.31233  1.0000
  O   O12       1.0  0.8732600000000001  0.36120999999999986  0.37953  1.0000
  O   O13       1.0  0.23364000000000001  0.022129999999999997  0.7157  1.0000
  O   O14       1.0  0.22255  0.9305599999999998  0.71356  1.0000
  O   O15       1.0  0.14879  0.17973  0.8055800000000002  1.0000
  O   O16       1.0  0.17473  0.27013  0.8033700000000003  1.0000
  O   O17       1.0  0.06875  0.10228999999999998  0.69676  1.0000
  O   O18       1.0  0.92407  0.07217  0.65943  1.0000
  O   O19       1.0  0.4972800000000001  0.49436  0.73828  1.0000
  O   O20       1.0  0.58809  0.55337  0.6912100000000002  1.0000
  O   O21       1.0  0.29091  0.15313  0.71069  1.0000
  O   O22       1.0  0.39688  0.21382999999999996  0.7495600000000001  1.0000
  O   O23       1.0  0.8306  0.5974  0.68766  1.0000
  O   O24       1.0  0.8732600000000001  0.63879  0.62047  1.0000
  O   O25       1.0  0.7362100000000001  0.47794999999999993  0.21563  1.0000
  O   O26       1.0  0.7241200000000001  0.56959  0.21502  1.0000
  O   O27       1.0  0.65101  0.31929  0.30555  1.0000
  O   O28       1.0  0.67274  0.22828999999999994  0.3057  1.0000
  O   O29       1.0  0.57141  0.3977099999999999  0.19665  1.0000
  O   O30       1.0  0.42349  0.4278599999999999  0.16167  1.0000
  O   O31       1.0  0.99512  0.00546  0.23814  1.0000
  O   O32       1.0  0.08451  0.94497  0.19177  1.0000
  O   O33       1.0  0.79451  0.34693999999999997  0.21251  1.0000
  O   O34       1.0  0.8958700000000002  0.28327  0.25002  1.0000
  O   O35       1.0  0.32827  0.90264  0.18768  1.0000
  O   O36       1.0  0.37071  0.8610699999999999  0.12052  1.0000
  O   O37       1.0  0.7362100000000001  0.52205  0.78437  1.0000
  O   O38       1.0  0.7241200000000001  0.4304099999999999  0.78498  1.0000
  O   O39       1.0  0.65101  0.68071  0.69445  1.0000
  O   O40       1.0  0.67274  0.7717099999999998  0.69429  1.0000
  O   O41       1.0  0.57141  0.60229  0.8033500000000002  1.0000
  O   O42       1.0  0.42349  0.57214  0.8383200000000001  1.0000
  O   O43       1.0  0.99512  0.9945399999999999  0.76185  1.0000
  O   O44       1.0  0.08451  0.05502  0.8082200000000002  1.0000
  O   O45       1.0  0.79452  0.65306  0.78749  1.0000
  O   O46       1.0  0.8958700000000002  0.7167299999999999  0.7499700000000002  1.0000
  O   O47       1.0  0.32827  0.09735999999999997  0.81231  1.0000
  O   O48       1.0  0.37070000000000003  0.13893  0.8794800000000002  1.0000
