data_image0
_chemical_formula_structural       Cu16H240C288I16N32O32
_chemical_formula_sum              "Cu16 H240 C288 I16 N32 O32"
_cell_length_a       12.75755
_cell_length_b       12.75946
_cell_length_c       61.93751
_cell_angle_alpha    89.99821
_cell_angle_beta     90.01357
_cell_angle_gamma    89.93084

_space_group_name_H-M_alt    "P 1"
_space_group_IT_number       1

loop_
  _space_group_symop_operation_xyz
  'x, y, z'

loop_
  _atom_site_type_symbol
  _atom_site_label
  _atom_site_symmetry_multiplicity
  _atom_site_fract_x
  _atom_site_fract_y
  _atom_site_fract_z
  _atom_site_occupancy
  Cu  Cu1       1.0  0.9689  0.9501400000000002  0.9255899999999998  1.0000
  Cu  Cu2       1.0  0.99723  0.9447600000000002  0.8851099999999997  1.0000
  Cu  Cu3       1.0  0.029829999999999992  0.05018000000000001  0.42549  1.0000
  Cu  Cu4       1.0  0.00223  0.05523  0.3849999999999999  1.0000
  Cu  Cu5       1.0  0.55276  0.46836  0.6756399999999998  1.0000
  Cu  Cu6       1.0  0.55547  0.49517  0.63514  1.0000
  Cu  Cu7       1.0  0.44738  0.53199  0.17539  1.0000
  Cu  Cu8       1.0  0.44461999999999996  0.5044900000000001  0.13494  1.0000
  Cu  Cu9       1.0  0.53183  0.44729000000000013  0.82453  1.0000
  Cu  Cu10      1.0  0.50448  0.4442100000000001  0.86507  1.0000
  Cu  Cu11      1.0  0.4684899999999999  0.55243  0.32452  1.0000
  Cu  Cu12      1.0  0.49592  0.5552000000000001  0.3650899999999999  1.0000
  Cu  Cu13      1.0  0.9497199999999999  0.9698100000000002  0.0746  1.0000
  Cu  Cu14      1.0  0.9441399999999999  0.9963600000000002  0.11505999999999997  1.0000
  Cu  Cu15      1.0  0.05016  0.03028  0.57457  1.0000
  Cu  Cu16      1.0  0.05558  0.00348  0.6150299999999997  1.0000
  H   H1        1.0  0.94381  0.4864600000000001  0.10444999999999997  1.0000
  H   H2        1.0  0.8021899999999998  0.6231100000000002  0.10673  1.0000
  H   H3        1.0  0.6411499999999999  0.62803  0.12978  1.0000
  H   H4        1.0  0.51395  0.3717400000000001  0.09849999999999998  1.0000
  H   H5        1.0  0.6689499999999998  0.3556600000000001  0.07397  1.0000
  H   H6        1.0  0.0886  0.35263000000000005  0.11224  1.0000
  H   H7        1.0  0.25025  0.3711600000000001  0.13503  1.0000
  H   H8        1.0  0.37355  0.5957900000000002  0.09434999999999998  1.0000
  H   H9        1.0  0.21965999999999997  0.58529  0.06944  1.0000
  H   H10       1.0  0.67529  0.5967500000000001  0.05603  1.0000
  H   H11       1.0  0.64251  0.56489  0.028699999999999993  1.0000
  H   H12       1.0  0.7625  0.63298  0.03455999999999999  1.0000
  H   H13       1.0  0.19147  0.3190900000000001  0.06103999999999998  1.0000
  H   H14       1.0  0.25319  0.34437  0.03548999999999999  1.0000
  H   H15       1.0  0.12623999999999996  0.2826000000000001  0.03654  1.0000
  H   H16       1.0  0.9384299999999999  0.44362000000000007  0.9558  1.0000
  H   H17       1.0  0.07167  0.17894000000000002  0.98952  1.0000
  H   H18       1.0  0.07874  0.02601  0.9646299999999998  1.0000
  H   H19       1.0  0.82835  0.13636  0.9286099999999998  1.0000
  H   H20       1.0  0.81401  0.29784  0.95158  1.0000
  H   H21       1.0  0.06777  0.57901  0.94909  1.0000
  H   H22       1.0  0.07438  0.74192  0.92656  1.0000
  H   H23       1.0  0.84315  0.8834000000000002  0.96323  1.0000
  H   H24       1.0  0.82917  0.72901  0.9876599999999998  1.0000
  H   H25       1.0  0.80435  0.28098  0.03413999999999998  1.0000
  H   H26       1.0  0.86705  0.15604  0.03624  1.0000
  H   H27       1.0  0.80871  0.19576  0.01101  1.0000
  H   H28       1.0  0.09727  0.62466  0.02852  1.0000
  H   H29       1.0  0.03396  0.7483800000000003  0.03288  1.0000
  H   H30       1.0  0.07965  0.7142100000000002  0.0064  1.0000
  H   H31       1.0  0.05418  0.5135700000000001  0.6047099999999997  1.0000
  H   H32       1.0  0.19694  0.37743000000000004  0.60693  1.0000
  H   H33       1.0  0.3590899999999999  0.3693300000000001  0.6295499999999999  1.0000
  H   H34       1.0  0.4855699999999999  0.6285  0.59923  1.0000
  H   H35       1.0  0.3298099999999999  0.6470000000000002  0.57488  1.0000
  H   H36       1.0  0.91036  0.64848  0.6120599999999998  1.0000
  H   H37       1.0  0.74919  0.6293700000000002  0.63495  1.0000
  H   H38       1.0  0.6271099999999998  0.40279  0.59451  1.0000
  H   H39       1.0  0.78113  0.41349  0.56962  1.0000
  H   H40       1.0  0.32294999999999996  0.40478  0.55606  1.0000
  H   H41       1.0  0.35836999999999997  0.4422600000000001  0.52906  1.0000
  H   H42       1.0  0.23695  0.37451  0.53394  1.0000
  H   H43       1.0  0.8073099999999998  0.6798000000000002  0.56095  1.0000
  H   H44       1.0  0.74716  0.65537  0.53521  1.0000
  H   H45       1.0  0.87418  0.7171700000000002  0.53667  1.0000
  H   H46       1.0  0.059659999999999984  0.55654  0.45583999999999997  1.0000
  H   H47       1.0  0.9299999999999998  0.8228000000000002  0.48995  1.0000
  H   H48       1.0  0.9223999999999999  0.97582  0.46497  1.0000
  H   H49       1.0  0.16905999999999996  0.8629400000000003  0.42832  1.0000
  H   H50       1.0  0.18338999999999997  0.70143  0.4512  1.0000
  H   H51       1.0  0.93418  0.4218600000000001  0.44909  1.0000
  H   H52       1.0  0.9265  0.25897  0.42659999999999987  1.0000
  H   H53       1.0  0.15644  0.11602000000000001  0.4633  1.0000
  H   H54       1.0  0.17156  0.27019000000000004  0.4876999999999999  1.0000
  H   H55       1.0  0.19580999999999998  0.7198900000000001  0.5341199999999998  1.0000
  H   H56       1.0  0.13259  0.84488  0.53631  1.0000
  H   H57       1.0  0.19113999999999998  0.8054000000000001  0.51107  1.0000
  H   H58       1.0  0.907  0.37392  0.52826  1.0000
  H   H59       1.0  0.97124  0.25087000000000004  0.53281  1.0000
  H   H60       1.0  0.92681  0.28454000000000007  0.50617  1.0000
  H   H61       1.0  0.012720000000000002  0.44543  0.85476  1.0000
  H   H62       1.0  0.87714  0.30327  0.8571599999999998  1.0000
  H   H63       1.0  0.8710399999999999  0.14147  0.87992  1.0000
  H   H64       1.0  0.12865  0.014610000000000003  0.84892  1.0000
  H   H65       1.0  0.1452  0.17000000000000004  0.8245  1.0000
  H   H66       1.0  0.14841  0.58853  0.8624199999999997  1.0000
  H   H67       1.0  0.13142  0.75119  0.88492  1.0000
  H   H68       1.0  0.9048799999999998  0.8735400000000002  0.8443  1.0000
  H   H69       1.0  0.91568  0.71915  0.81954  1.0000
  H   H70       1.0  0.9036  0.17862  0.80631  1.0000
  H   H71       1.0  0.9390099999999998  0.14292  0.7792  1.0000
  H   H72       1.0  0.8719999999999999  0.26439  0.7842099999999997  1.0000
  H   H73       1.0  0.18148999999999998  0.6909900000000002  0.8113199999999998  1.0000
  H   H74       1.0  0.15721  0.7522300000000001  0.78566  1.0000
  H   H75       1.0  0.22032999999999997  0.62569  0.78699  1.0000
  H   H76       1.0  0.058689999999999985  0.4416400000000001  0.70596  1.0000
  H   H77       1.0  0.32406  0.56911  0.73984  1.0000
  H   H78       1.0  0.47672  0.57717  0.7148299999999997  1.0000
  H   H79       1.0  0.36424  0.33048  0.67813  1.0000
  H   H80       1.0  0.2028  0.31627  0.7009799999999998  1.0000
  H   H81       1.0  0.92303  0.5675400000000002  0.69921  1.0000
  H   H82       1.0  0.7599099999999999  0.57362  0.67672  1.0000
  H   H83       1.0  0.61974  0.34222  0.7135099999999998  1.0000
  H   H84       1.0  0.7740199999999999  0.32986  0.73806  1.0000
  H   H85       1.0  0.21875  0.30208  0.7843  1.0000
  H   H86       1.0  0.3445699999999999  0.36276000000000014  0.78676  1.0000
  H   H87       1.0  0.3058  0.30445  0.7615  1.0000
  H   H88       1.0  0.87603  0.5947  0.7781999999999999  1.0000
  H   H89       1.0  0.7535399999999998  0.5301700000000001  0.78295  1.0000
  H   H90       1.0  0.7859899999999999  0.57438  0.75625  1.0000
  H   H91       1.0  0.98798  0.5555800000000001  0.3544799999999999  1.0000
  H   H92       1.0  0.12448999999999999  0.69881  0.35654  1.0000
  H   H93       1.0  0.12942  0.8603700000000001  0.37941999999999987  1.0000
  H   H94       1.0  0.86939  0.9846400000000002  0.34889  1.0000
  H   H95       1.0  0.8538599999999997  0.8295700000000003  0.32437  1.0000
  H   H96       1.0  0.8526699999999999  0.41247000000000006  0.3624099999999999  1.0000
  H   H97       1.0  0.87087  0.25042  0.3851499999999999  1.0000
  H   H98       1.0  0.09465  0.12611000000000003  0.34431  1.0000
  H   H99       1.0  0.08422  0.28047  0.31948  1.0000
  H   H100      1.0  0.09336  0.82296  0.30611  1.0000
  H   H101      1.0  0.060169999999999994  0.8575300000000001  0.2788499999999999  1.0000
  H   H102      1.0  0.12885  0.7371700000000002  0.28428  1.0000
  H   H103      1.0  0.81738  0.30853  0.31133  1.0000
  H   H104      1.0  0.84149  0.24714000000000005  0.28569  1.0000
  H   H105      1.0  0.7785199999999998  0.37369000000000013  0.28696  1.0000
  H   H106      1.0  0.9416299999999999  0.5578800000000002  0.20581  1.0000
  H   H107      1.0  0.67482  0.4310000000000001  0.23985  1.0000
  H   H108      1.0  0.52173  0.42394  0.21495999999999996  1.0000
  H   H109      1.0  0.63553  0.66876  0.17799  1.0000
  H   H110      1.0  0.7969899999999998  0.6829600000000001  0.20086  1.0000
  H   H111      1.0  0.07771  0.43179000000000006  0.19911  1.0000
  H   H112      1.0  0.24083  0.42585000000000006  0.17665999999999996  1.0000
  H   H113      1.0  0.38043999999999994  0.6577400000000002  0.21332  1.0000
  H   H114      1.0  0.2265  0.6699600000000002  0.23791999999999996  1.0000
  H   H115      1.0  0.78085  0.6964600000000001  0.28457  1.0000
  H   H116      1.0  0.65424  0.6368900000000001  0.2862699999999999  1.0000
  H   H117      1.0  0.69653  0.69586  0.2613  1.0000
  H   H118      1.0  0.12339  0.40571  0.27838  1.0000
  H   H119      1.0  0.24625999999999995  0.47007  0.28306  1.0000
  H   H120      1.0  0.21365  0.42485  0.25643  1.0000
  H   H121      1.0  0.55602  0.9874300000000003  0.6455899999999998  1.0000
  H   H122      1.0  0.69808  0.12416000000000003  0.64355  1.0000
  H   H123      1.0  0.8595799999999999  0.13046  0.6206899999999997  1.0000
  H   H124      1.0  0.98581  0.87107  0.65116  1.0000
  H   H125      1.0  0.83076  0.8544200000000001  0.6757  1.0000
  H   H126      1.0  0.41237  0.8520900000000002  0.6376599999999998  1.0000
  H   H127      1.0  0.2505  0.8710000000000001  0.6149599999999997  1.0000
  H   H128      1.0  0.12802  0.09649000000000002  0.6557299999999998  1.0000
  H   H129      1.0  0.28273  0.08543000000000002  0.68048  1.0000
  H   H130      1.0  0.8225899999999998  0.09380000000000001  0.6939299999999998  1.0000
  H   H131      1.0  0.85787  0.06068  0.72114  1.0000
  H   H132      1.0  0.73712  0.12916  0.7158299999999999  1.0000
  H   H133      1.0  0.30934  0.81768  0.68871  1.0000
  H   H134      1.0  0.24735999999999994  0.84207  0.7142799999999998  1.0000
  H   H135      1.0  0.37404  0.77938  0.71317  1.0000
  H   H136      1.0  0.5578399999999999  0.9414700000000003  0.79423  1.0000
  H   H137      1.0  0.4311099999999999  0.67461  0.76015  1.0000
  H   H138      1.0  0.4237299999999999  0.52207  0.78519  1.0000
  H   H139      1.0  0.66973  0.63604  0.82195  1.0000
  H   H140      1.0  0.68291  0.79748  0.79908  1.0000
  H   H141      1.0  0.43136  0.07748  0.80079  1.0000
  H   H142      1.0  0.4252799999999999  0.24024  0.82332  1.0000
  H   H143      1.0  0.65789  0.37999  0.78677  1.0000
  H   H144      1.0  0.6708399999999999  0.22577  0.76226  1.0000
  H   H145      1.0  0.6968499999999999  0.7811700000000001  0.71559  1.0000
  H   H146      1.0  0.6366  0.6548700000000002  0.71363  1.0000
  H   H147      1.0  0.6954699999999998  0.6960400000000002  0.73869  1.0000
  H   H148      1.0  0.40547  0.12364000000000003  0.72173  1.0000
  H   H149      1.0  0.4700899999999999  0.24612  0.7170299999999997  1.0000
  H   H150      1.0  0.42514  0.21352000000000002  0.74371  1.0000
  H   H151      1.0  0.44423  0.0117  0.1456  1.0000
  H   H152      1.0  0.30115  0.8749300000000002  0.14354  1.0000
  H   H153      1.0  0.13948  0.8687600000000002  0.12079999999999998  1.0000
  H   H154      1.0  0.01499  0.12999  0.15079  1.0000
  H   H155      1.0  0.17001  0.14647000000000002  0.17539  1.0000
  H   H156      1.0  0.58673  0.14568  0.13741  1.0000
  H   H157      1.0  0.74878  0.12716  0.11475  1.0000
  H   H158      1.0  0.8732299999999997  0.90491  0.15595  1.0000
  H   H159      1.0  0.7188699999999999  0.91591  0.18074  1.0000
  H   H160      1.0  0.17579  0.90732  0.19385999999999995  1.0000
  H   H161      1.0  0.14279  0.9392800000000002  0.22126999999999994  1.0000
  H   H162      1.0  0.26280999999999993  0.8707200000000003  0.21540999999999993  1.0000
  H   H163      1.0  0.69153  0.18436  0.18901999999999994  1.0000
  H   H164      1.0  0.7531699999999999  0.15825  0.21451999999999993  1.0000
  H   H165      1.0  0.6268699999999999  0.22167000000000003  0.21352999999999994  1.0000
  H   H166      1.0  0.44175999999999993  0.05807000000000001  0.2942399999999999  1.0000
  H   H167      1.0  0.56957  0.32409  0.26025  1.0000
  H   H168      1.0  0.5770699999999999  0.47732000000000013  0.28512  1.0000
  H   H169      1.0  0.3309999999999999  0.3648100000000001  0.32194  1.0000
  H   H170      1.0  0.31661  0.20312000000000002  0.2990899999999999  1.0000
  H   H171      1.0  0.56646  0.92297  0.30112  1.0000
  H   H172      1.0  0.57307  0.7595700000000002  0.3235  1.0000
  H   H173      1.0  0.34298  0.6187900000000001  0.2865  1.0000
  H   H174      1.0  0.33084  0.77279  0.2618999999999999  1.0000
  H   H175      1.0  0.30346  0.219  0.21561  1.0000
  H   H176      1.0  0.36347999999999997  0.3454  0.21367  1.0000
  H   H177      1.0  0.30479999999999996  0.30406000000000005  0.23874  1.0000
  H   H178      1.0  0.59378  0.8759900000000003  0.22147999999999995  1.0000
  H   H179      1.0  0.52947  0.75286  0.21725  1.0000
  H   H180      1.0  0.57516  0.78738  0.24374999999999994  1.0000
  H   H181      1.0  0.48541  0.9437400000000002  0.8955399999999998  1.0000
  H   H182      1.0  0.62142  0.8027700000000001  0.8931199999999998  1.0000
  H   H183      1.0  0.62923  0.6409000000000001  0.8705399999999998  1.0000
  H   H184      1.0  0.37176  0.51328  0.90136  1.0000
  H   H185      1.0  0.3553  0.6677600000000001  0.9260399999999998  1.0000
  H   H186      1.0  0.34997  0.08914  0.8881199999999998  1.0000
  H   H187      1.0  0.36858  0.25039000000000006  0.86527  1.0000
  H   H188      1.0  0.59774  0.37109000000000003  0.90537  1.0000
  H   H189      1.0  0.58748  0.21688  0.9301899999999997  1.0000
  H   H190      1.0  0.59552  0.6749800000000001  0.9440699999999997  1.0000
  H   H191      1.0  0.5619  0.64162  0.9713299999999998  1.0000
  H   H192      1.0  0.63137  0.7611600000000002  0.96579  1.0000
  H   H193      1.0  0.31969999999999993  0.19295000000000004  0.93913  1.0000
  H   H194      1.0  0.3454999999999999  0.25309  0.96483  1.0000
  H   H195      1.0  0.28275  0.12663  0.9634999999999998  1.0000
  H   H196      1.0  0.44363  0.9424600000000002  0.0442  1.0000
  H   H197      1.0  0.17559  0.06781  0.0098  1.0000
  H   H198      1.0  0.022539999999999998  0.07532  0.03478  1.0000
  H   H199      1.0  0.13815  0.83197  0.07206  1.0000
  H   H200      1.0  0.30015  0.8185800000000002  0.0493  1.0000
  H   H201      1.0  0.57916  0.06842000000000001  0.05076999999999999  1.0000
  H   H202      1.0  0.74245  0.07578000000000001  0.07313  1.0000
  H   H203      1.0  0.88193  0.8408300000000001  0.03714  1.0000
  H   H204      1.0  0.72765  0.82697  0.01269  1.0000
  H   H205      1.0  0.28084  0.8041300000000001  0.9658799999999997  1.0000
  H   H206      1.0  0.15572  0.86673  0.9635799999999999  1.0000
  H   H207      1.0  0.19465  0.8082400000000001  0.98883  1.0000
  H   H208      1.0  0.62664  0.09328  0.9717199999999998  1.0000
  H   H209      1.0  0.7493499999999998  0.0283  0.9671799999999998  1.0000
  H   H210      1.0  0.7161199999999999  0.07313  0.99378  1.0000
  H   H211      1.0  0.51273  0.05566000000000001  0.39557  1.0000
  H   H212      1.0  0.37821  0.19691  0.3931899999999999  1.0000
  H   H213      1.0  0.37164  0.3584200000000001  0.37037  1.0000
  H   H214      1.0  0.6285299999999999  0.4860300000000001  0.4013  1.0000
  H   H215      1.0  0.6457199999999997  0.33077  0.4258099999999999  1.0000
  H   H216      1.0  0.6472699999999998  0.9117000000000001  0.3878999999999999  1.0000
  H   H217      1.0  0.6293199999999999  0.7498400000000001  0.36512  1.0000
  H   H218      1.0  0.40374  0.62689  0.4056399999999999  1.0000
  H   H219      1.0  0.4144  0.78089  0.43057  1.0000
  H   H220      1.0  0.4072699999999999  0.32534  0.44428  1.0000
  H   H221      1.0  0.44105  0.35760000000000003  0.47162  1.0000
  H   H222      1.0  0.37179  0.23799000000000003  0.46584  1.0000
  H   H223      1.0  0.6805399999999998  0.80854  0.4391  1.0000
  H   H224      1.0  0.6552199999999998  0.7468900000000002  0.46466  1.0000
  H   H225      1.0  0.71686  0.8741200000000002  0.46358999999999995  1.0000
  H   H226      1.0  0.5565299999999999  0.05945000000000002  0.54423  1.0000
  H   H227      1.0  0.82341  0.9306900000000001  0.51009  1.0000
  H   H228      1.0  0.97608  0.9231500000000001  0.5351099999999998  1.0000
  H   H229      1.0  0.8634899999999998  0.17019  0.57164  1.0000
  H   H230      1.0  0.70092  0.18322  0.5489  1.0000
  H   H231      1.0  0.4207  0.9310200000000001  0.55078  1.0000
  H   H232      1.0  0.25721  0.9238500000000002  0.57317  1.0000
  H   H233      1.0  0.11808  0.15859  0.53718  1.0000
  H   H234      1.0  0.27186  0.17164  0.51255  1.0000
  H   H235      1.0  0.71985  0.19471  0.4654199999999999  1.0000
  H   H236      1.0  0.8456399999999998  0.13292  0.4639899999999999  1.0000
  H   H237      1.0  0.8028399999999998  0.19264000000000006  0.48888  1.0000
  H   H238      1.0  0.37525  0.9026100000000002  0.47166999999999987  1.0000
  H   H239      1.0  0.25224  0.96678  0.4669299999999999  1.0000
  H   H240      1.0  0.2846  0.9215800000000002  0.49357  1.0000
  C   C1        1.0  0.9449299999999998  0.45835  0.04227  1.0000
  C   C2        1.0  0.8495599999999998  0.47052  0.05334999999999999  1.0000
  C   C3        1.0  0.8481899999999999  0.4783900000000001  0.076  1.0000
  C   C4        1.0  0.94429  0.47808  0.08697  1.0000
  C   C5        1.0  0.04069999999999999  0.46757000000000004  0.07638  1.0000
  C   C6        1.0  0.03966  0.45545  0.05379999999999999  1.0000
  C   C7        1.0  0.75054  0.48683000000000004  0.08869  1.0000
  C   C8        1.0  0.7410599999999998  0.5643  0.10466  1.0000
  C   C9        1.0  0.6517099999999998  0.56809  0.11742999999999998  1.0000
  C   C10       1.0  0.5799  0.4255700000000001  0.09972999999999997  1.0000
  C   C11       1.0  0.6663299999999998  0.4169  0.08616  1.0000
  C   C12       1.0  0.13843  0.4706100000000001  0.0892  1.0000
  C   C13       1.0  0.14888  0.4093500000000001  0.10793999999999997  1.0000
  C   C14       1.0  0.23832999999999993  0.4187100000000001  0.12061  1.0000
  C   C15       1.0  0.30836  0.5431300000000001  0.09764  1.0000
  C   C16       1.0  0.22235999999999997  0.5372  0.08392  1.0000
  C   C17       1.0  0.7069999999999999  0.57335  0.04025  1.0000
  C   C18       1.0  0.17819  0.3405900000000001  0.04407  1.0000
  C   C19       1.0  0.94515  0.45277000000000006  0.01834  1.0000
  C   C20       1.0  0.94615  0.35604  0.007539999999999998  1.0000
  C   C21       1.0  0.94254  0.35177  0.98482  1.0000
  C   C22       1.0  0.94048  0.4463300000000001  0.9733499999999998  1.0000
  C   C23       1.0  0.9421  0.54411  0.98361  1.0000
  C   C24       1.0  0.9433199999999999  0.5462  0.006349999999999999  1.0000
  C   C25       1.0  0.94289  0.25293000000000004  0.97247  1.0000
  C   C26       1.0  0.01604  0.17269000000000004  0.9763  1.0000
  C   C27       1.0  0.01977  0.08694  0.9624999999999998  1.0000
  C   C28       1.0  0.88109  0.15018  0.9421899999999997  1.0000
  C   C29       1.0  0.8735799999999999  0.23907000000000003  0.9550499999999997  1.0000
  C   C30       1.0  0.9469499999999997  0.6397800000000002  0.97034  1.0000
  C   C31       1.0  0.015999999999999997  0.64461  0.9526699999999998  1.0000
  C   C32       1.0  0.01996  0.73435  0.9400299999999998  1.0000
  C   C33       1.0  0.89211  0.8145600000000002  0.9607399999999998  1.0000
  C   C34       1.0  0.88406  0.7281300000000002  0.9742599999999998  1.0000
  C   C35       1.0  0.85109  0.22223  0.025479999999999992  1.0000
  C   C36       1.0  0.04513  0.6839300000000003  0.02143  1.0000
  C   C37       1.0  0.055749999999999994  0.5429  0.5424599999999998  1.0000
  C   C38       1.0  0.15053  0.53265  0.55385  1.0000
  C   C39       1.0  0.1511  0.52406  0.57648  1.0000
  C   C40       1.0  0.05466  0.52282  0.58725  1.0000
  C   C41       1.0  0.9588299999999998  0.53294  0.5764299999999998  1.0000
  C   C42       1.0  0.96046  0.54493  0.5538399999999998  1.0000
  C   C43       1.0  0.24852999999999995  0.51493  0.58923  1.0000
  C   C44       1.0  0.25816  0.43619  0.6049399999999999  1.0000
  C   C45       1.0  0.3480799999999999  0.4307700000000001  0.6175299999999998  1.0000
  C   C46       1.0  0.41956  0.5747300000000001  0.6003  1.0000
  C   C47       1.0  0.33283  0.5848000000000001  0.5868599999999998  1.0000
  C   C48       1.0  0.86096  0.52974  0.58917  1.0000
  C   C49       1.0  0.85028  0.5913800000000001  0.60785  1.0000
  C   C50       1.0  0.7611  0.58157  0.62057  1.0000
  C   C51       1.0  0.69182  0.4561000000000001  0.59775  1.0000
  C   C52       1.0  0.7777299999999998  0.4621500000000001  0.58401  1.0000
  C   C53       1.0  0.29308  0.43178  0.5403599999999997  1.0000
  C   C54       1.0  0.82168  0.6589900000000002  0.54398  1.0000
  C   C55       1.0  0.05664  0.54784  0.51848  1.0000
  C   C56       1.0  0.05424  0.6444600000000001  0.50761  1.0000
  C   C57       1.0  0.05684  0.64865  0.48486  1.0000
  C   C58       1.0  0.059079999999999994  0.5540000000000002  0.4734099999999999  1.0000
  C   C59       1.0  0.059259999999999986  0.4562700000000001  0.48370999999999986  1.0000
  C   C60       1.0  0.05956999999999999  0.45441  0.50646  1.0000
  C   C61       1.0  0.05632  0.7474  0.47247  1.0000
  C   C62       1.0  0.98424  0.8283600000000001  0.4764799999999999  1.0000
  C   C63       1.0  0.98042  0.91418  0.4627  1.0000
  C   C64       1.0  0.11692999999999999  0.8496  0.4420099999999999  1.0000
  C   C65       1.0  0.12447999999999997  0.7606200000000002  0.45484  1.0000
  C   C66       1.0  0.05398  0.36033  0.47048  1.0000
  C   C67       1.0  0.9852899999999999  0.35587  0.4527299999999999  1.0000
  C   C68       1.0  0.9806699999999998  0.26608  0.44012  1.0000
  C   C69       1.0  0.10781  0.18512000000000003  0.4608299999999999  1.0000
  C   C70       1.0  0.11642999999999998  0.27156  0.4743499999999999  1.0000
  C   C71       1.0  0.14889  0.7787600000000001  0.52554  1.0000
  C   C72       1.0  0.95998  0.3150800000000001  0.5212999999999998  1.0000
  C   C73       1.0  0.04456  0.4439  0.7925499999999998  1.0000
  C   C74       1.0  0.03215  0.34945  0.80388  1.0000
  C   C75       1.0  0.02285999999999999  0.34884  0.8264899999999997  1.0000
  C   C76       1.0  0.02249  0.44514  0.83731  1.0000
  C   C77       1.0  0.03402  0.54086  0.82654  1.0000
  C   C78       1.0  0.0469  0.5389600000000001  0.80396  1.0000
  C   C79       1.0  0.0138  0.25145000000000006  0.83919  1.0000
  C   C80       1.0  0.9359  0.24200000000000005  0.85506  1.0000
  C   C81       1.0  0.9316199999999999  0.15235  0.86772  1.0000
  C   C82       1.0  0.07476  0.08063000000000002  0.85013  1.0000
  C   C83       1.0  0.08379  0.16719  0.83665  1.0000
  C   C84       1.0  0.030889999999999994  0.63871  0.8393  1.0000
  C   C85       1.0  0.09222  0.6492600000000002  0.85802  1.0000
  C   C86       1.0  0.08334999999999997  0.7391400000000002  0.8705699999999997  1.0000
  C   C87       1.0  0.9581399999999998  0.80869  0.84763  1.0000
  C   C88       1.0  0.96391  0.72237  0.834  1.0000
  C   C89       1.0  0.9295899999999999  0.2082  0.7905299999999997  1.0000
  C   C90       1.0  0.16131  0.67741  0.7943  1.0000
  C   C91       1.0  0.05020999999999999  0.44318000000000013  0.76856  1.0000
  C   C92       1.0  0.14681  0.44452  0.7576599999999998  1.0000
  C   C93       1.0  0.15082  0.44225000000000003  0.73491  1.0000
  C   C94       1.0  0.05613  0.4417000000000001  0.72351  1.0000
  C   C95       1.0  0.95857  0.4423300000000001  0.73381  1.0000
  C   C96       1.0  0.9568399999999999  0.44161  0.75654  1.0000
  C   C97       1.0  0.24921999999999997  0.44260000000000005  0.72242  1.0000
  C   C98       1.0  0.32998  0.51465  0.72642  1.0000
  C   C99       1.0  0.41557999999999995  0.5187200000000001  0.7125899999999997  1.0000
  C   C100      1.0  0.3509699999999999  0.38245  0.69186  1.0000
  C   C101      1.0  0.26205  0.37489  0.7046899999999998  1.0000
  C   C102      1.0  0.8626399999999999  0.4473600000000001  0.72062  1.0000
  C   C103      1.0  0.8576  0.5158600000000001  0.7028599999999998  1.0000
  C   C104      1.0  0.76777  0.51956  0.6902599999999998  1.0000
  C   C105      1.0  0.68813  0.39177  0.71104  1.0000
  C   C106      1.0  0.7744999999999999  0.3844300000000001  0.7245999999999998  1.0000
  C   C107      1.0  0.27884999999999993  0.34774  0.77582  1.0000
  C   C108      1.0  0.8172699999999999  0.54145  0.77134  1.0000
  C   C109      1.0  0.95516  0.55538  0.2923499999999999  1.0000
  C   C110      1.0  0.9678699999999998  0.65033  0.30349  1.0000
  C   C111      1.0  0.97735  0.6517  0.3261199999999999  1.0000
  C   C112      1.0  0.9779499999999998  0.5555400000000001  0.3370299999999999  1.0000
  C   C113      1.0  0.96611  0.4594100000000001  0.32642  1.0000
  C   C114      1.0  0.9524599999999998  0.46063  0.30386  1.0000
  C   C115      1.0  0.9864  0.7491800000000002  0.3388299999999999  1.0000
  C   C116      1.0  0.06484  0.7593800000000003  0.3545899999999999  1.0000
  C   C117      1.0  0.06855  0.84894  0.36729999999999996  1.0000
  C   C118      1.0  0.92403  0.9192500000000001  0.35  1.0000
  C   C119      1.0  0.9155899999999999  0.8328400000000001  0.33645  1.0000
  C   C120      1.0  0.9694599999999999  0.3616800000000001  0.33923  1.0000
  C   C121      1.0  0.90879  0.35159  0.35805  1.0000
  C   C122      1.0  0.9181899999999997  0.26205000000000006  0.3707  1.0000
  C   C123      1.0  0.04201999999999999  0.19146000000000002  0.3476299999999999  1.0000
  C   C124      1.0  0.03617  0.27769  0.33396  1.0000
  C   C125      1.0  0.06963  0.79255  0.29025  1.0000
  C   C126      1.0  0.83755  0.32203  0.29431  1.0000
  C   C127      1.0  0.94977  0.55593  0.26839  1.0000
  C   C128      1.0  0.85316  0.55463  0.25752  1.0000
  C   C129      1.0  0.84914  0.55697  0.23475999999999994  1.0000
  C   C130      1.0  0.94396  0.5578300000000002  0.22337  1.0000
  C   C131      1.0  0.04161999999999999  0.55739  0.23368  1.0000
  C   C132      1.0  0.04327  0.55806  0.25641  1.0000
  C   C133      1.0  0.75053  0.55678  0.22232  1.0000
  C   C134      1.0  0.66929  0.48527  0.22638  1.0000
  C   C135      1.0  0.58342  0.4816400000000001  0.21259999999999996  1.0000
  C   C136      1.0  0.64867  0.6170300000000001  0.19175  1.0000
  C   C137      1.0  0.73766  0.6244500000000001  0.20458  1.0000
  C   C138      1.0  0.13765  0.55246  0.22047999999999995  1.0000
  C   C139      1.0  0.14294  0.48378  0.20274999999999996  1.0000
  C   C140      1.0  0.23276  0.4802100000000001  0.19012999999999994  1.0000
  C   C141      1.0  0.3121  0.60823  0.21085  1.0000
  C   C142      1.0  0.22579999999999997  0.61547  0.22444  1.0000
  C   C143      1.0  0.7213399999999998  0.65184  0.27568  1.0000
  C   C144      1.0  0.18245  0.45847  0.27146  1.0000
  C   C145      1.0  0.55573  0.9551800000000003  0.7077  1.0000
  C   C146      1.0  0.6506799999999998  0.9678300000000001  0.69657  1.0000
  C   C147      1.0  0.65215  0.97715  0.6739499999999998  1.0000
  C   C148      1.0  0.55602  0.97741  0.66303  1.0000
  C   C149      1.0  0.4599  0.9657900000000001  0.67363  1.0000
  C   C150      1.0  0.4610099999999999  0.95272  0.6962  1.0000
  C   C151      1.0  0.74964  0.98654  0.66127  1.0000
  C   C152      1.0  0.7591  0.06497000000000001  0.6455  1.0000
  C   C153      1.0  0.84861  0.06943  0.63279  1.0000
  C   C154      1.0  0.92004  0.9253300000000002  0.65007  1.0000
  C   C155      1.0  0.83375  0.91624  0.66364  1.0000
  C   C156      1.0  0.36235999999999996  0.96951  0.6607999999999998  1.0000
  C   C157      1.0  0.35186  0.90857  0.6420299999999998  1.0000
  C   C158      1.0  0.26231999999999994  0.9183400000000002  0.6293999999999997  1.0000
  C   C159      1.0  0.19274  0.043110000000000016  0.65241  1.0000
  C   C160      1.0  0.27898  0.036910000000000005  0.66607  1.0000
  C   C161      1.0  0.79253  0.07002000000000001  0.70982  1.0000
  C   C162      1.0  0.3224499999999999  0.83817  0.70573  1.0000
  C   C163      1.0  0.55612  0.94983  0.7316499999999998  1.0000
  C   C164      1.0  0.55475  0.8532300000000003  0.74251  1.0000
  C   C165      1.0  0.55689  0.8491100000000003  0.7652599999999998  1.0000
  C   C166      1.0  0.55775  0.9438500000000002  0.77667  1.0000
  C   C167      1.0  0.55753  0.04146  0.76635  1.0000
  C   C168      1.0  0.55819  0.04325000000000001  0.7436299999999998  1.0000
  C   C169      1.0  0.55668  0.75057  0.7777  1.0000
  C   C170      1.0  0.48527  0.6692900000000003  0.7736399999999998  1.0000
  C   C171      1.0  0.4817199999999999  0.58363  0.78747  1.0000
  C   C172      1.0  0.61761  0.64894  0.80823  1.0000
  C   C173      1.0  0.62458  0.73792  0.7954  1.0000
  C   C174      1.0  0.55246  0.13742  0.77953  1.0000
  C   C175      1.0  0.48338999999999993  0.14266000000000004  0.79719  1.0000
  C   C176      1.0  0.4796899999999999  0.23236000000000004  0.80984  1.0000
  C   C177      1.0  0.6081199999999999  0.31176  0.78919  1.0000
  C   C178      1.0  0.61569  0.22542000000000006  0.7756199999999998  1.0000
  C   C179      1.0  0.65172  0.7215100000000002  0.72432  1.0000
  C   C180      1.0  0.4585299999999999  0.18243000000000004  0.7286399999999997  1.0000
  C   C181      1.0  0.4444099999999999  0.04517  0.20767999999999995  1.0000
  C   C182      1.0  0.34942  0.03231  0.19653  1.0000
  C   C183      1.0  0.34793  0.02268  0.1739  1.0000
  C   C184      1.0  0.44416999999999995  0.022040000000000008  0.16303  1.0000
  C   C185      1.0  0.54029  0.03417  0.17364999999999997  1.0000
  C   C186      1.0  0.53922  0.04805  0.19619  1.0000
  C   C187      1.0  0.25048  0.01332  0.16116999999999995  1.0000
  C   C188      1.0  0.24047999999999994  0.9345000000000002  0.14548  1.0000
  C   C189      1.0  0.15082  0.9301600000000002  0.1328  1.0000
  C   C190      1.0  0.08031  0.07515000000000001  0.14988  1.0000
  C   C191      1.0  0.16668  0.08412  0.16345  1.0000
  C   C192      1.0  0.63784  0.03019  0.16081999999999994  1.0000
  C   C193      1.0  0.64777  0.08998  0.14189  1.0000
  C   C194      1.0  0.73726  0.08023000000000002  0.12925999999999996  1.0000
  C   C195      1.0  0.80792  0.9573700000000003  0.15253  1.0000
  C   C196      1.0  0.72174  0.9635900000000001  0.16619999999999993  1.0000
  C   C197      1.0  0.20715  0.93029  0.20969999999999994  1.0000
  C   C198      1.0  0.67808  0.16286000000000006  0.20596999999999993  1.0000
  C   C199      1.0  0.4438599999999999  0.050280000000000005  0.23163  1.0000
  C   C200      1.0  0.44521  0.14677  0.24253  1.0000
  C   C201      1.0  0.44287  0.15065  0.26527999999999996  1.0000
  C   C202      1.0  0.4418799999999999  0.055840000000000015  0.27667999999999987  1.0000
  C   C203      1.0  0.44216  0.9582800000000002  0.26634  1.0000
  C   C204      1.0  0.44167  0.9567500000000001  0.24359999999999996  1.0000
  C   C205      1.0  0.44325  0.24917000000000006  0.27774  1.0000
  C   C206      1.0  0.51506  0.33008  0.2736699999999999  1.0000
  C   C207      1.0  0.51891  0.4159800000000001  0.28742  1.0000
  C   C208      1.0  0.38294  0.35134  0.30823  1.0000
  C   C209      1.0  0.37539999999999996  0.26225  0.29543  1.0000
  C   C210      1.0  0.44717  0.8622100000000001  0.27952  1.0000
  C   C211      1.0  0.5151599999999998  0.85738  0.29737  1.0000
  C   C212      1.0  0.51909  0.7674300000000001  0.3099599999999999  1.0000
  C   C213      1.0  0.39212999999999987  0.68736  0.28905  1.0000
  C   C214      1.0  0.38485  0.77369  0.27546  1.0000
  C   C215      1.0  0.34845999999999994  0.2787  0.22435  1.0000
  C   C216      1.0  0.54125  0.8174400000000003  0.22864  1.0000
  C   C217      1.0  0.4573599999999999  0.94436  0.9577299999999997  1.0000
  C   C218      1.0  0.46936999999999995  0.8491100000000003  0.9465999999999998  1.0000
  C   C219      1.0  0.47681999999999997  0.8477100000000002  0.92395  1.0000
  C   C220      1.0  0.47677999999999987  0.9438500000000002  0.91301  1.0000
  C   C221      1.0  0.46647999999999995  0.04010000000000001  0.9236399999999998  1.0000
  C   C222      1.0  0.4545399999999999  0.039230000000000015  0.9462299999999998  1.0000
  C   C223      1.0  0.48562  0.75023  0.9112399999999999  1.0000
  C   C224      1.0  0.56311  0.7412700000000001  0.8952599999999998  1.0000
  C   C225      1.0  0.56821  0.65148  0.8826599999999998  1.0000
  C   C226      1.0  0.4255399999999999  0.57927  0.9002099999999997  1.0000
  C   C227      1.0  0.41636  0.66554  0.9137999999999997  1.0000
  C   C228      1.0  0.46994999999999987  0.1377  0.91081  1.0000
  C   C229      1.0  0.4075  0.14893000000000003  0.89226  1.0000
  C   C230      1.0  0.41702  0.23827  0.8795699999999997  1.0000
  C   C231      1.0  0.54395  0.30666000000000004  0.9021899999999998  1.0000
  C   C232      1.0  0.53823  0.22052  0.91588  1.0000
  C   C233      1.0  0.57175  0.70623  0.9598599999999998  1.0000
  C   C234      1.0  0.34104  0.17863000000000004  0.95607  1.0000
  C   C235      1.0  0.45197999999999994  0.944  0.98167  1.0000
  C   C236      1.0  0.35525  0.9461400000000002  0.99249  1.0000
  C   C237      1.0  0.35111  0.9437300000000002  0.015239999999999997  1.0000
  C   C238      1.0  0.4459  0.94243  0.02664  1.0000
  C   C239      1.0  0.54363  0.9421400000000002  0.01637  1.0000
  C   C240      1.0  0.54546  0.9413100000000001  0.9936499999999998  1.0000
  C   C241      1.0  0.25252  0.9437700000000002  0.027669999999999993  1.0000
  C   C242      1.0  0.17059999999999997  0.014460000000000002  0.023429999999999992  1.0000
  C   C243      1.0  0.08474999999999999  0.018050000000000004  0.03719999999999998  1.0000
  C   C244      1.0  0.15102  0.8835000000000002  0.05825  1.0000
  C   C245      1.0  0.2402  0.87646  0.04547  1.0000
  C   C246      1.0  0.63946  0.9469200000000001  0.02962  1.0000
  C   C247      1.0  0.64468  0.016560000000000002  0.04719  1.0000
  C   C248      1.0  0.7346  0.02082  0.05975999999999999  1.0000
  C   C249      1.0  0.8138299999999999  0.89109  0.03941999999999998  1.0000
  C   C250      1.0  0.72735  0.8830100000000001  0.025889999999999993  1.0000
  C   C251      1.0  0.22166  0.8508200000000002  0.97443  1.0000
  C   C252      1.0  0.6851899999999999  0.039930000000000014  0.97869  1.0000
  C   C253      1.0  0.54271  0.05501000000000001  0.45774  1.0000
  C   C254      1.0  0.53195  0.15036  0.4465999999999999  1.0000
  C   C255      1.0  0.52325  0.15166  0.42396  1.0000
  C   C256      1.0  0.52214  0.0555  0.41304  1.0000
  C   C257      1.0  0.53235  0.95924  0.42367  1.0000
  C   C258      1.0  0.54464  0.9602100000000002  0.44624  1.0000
  C   C259      1.0  0.51448  0.24909000000000006  0.41122999999999993  1.0000
  C   C260      1.0  0.43683  0.25819  0.3952699999999999  1.0000
  C   C261      1.0  0.43224999999999997  0.34775  0.38257  1.0000
  C   C262      1.0  0.57486  0.41996000000000006  0.40014  1.0000
  C   C263      1.0  0.58413  0.33352  0.4136899999999999  1.0000
  C   C264      1.0  0.5292499999999999  0.8616500000000001  0.4108599999999999  1.0000
  C   C265      1.0  0.59064  0.8512500000000002  0.39214  1.0000
  C   C266      1.0  0.58143  0.7617600000000002  0.37948  1.0000
  C   C267      1.0  0.45653999999999995  0.69196  0.40236  1.0000
  C   C268      1.0  0.46231999999999995  0.7779900000000002  0.41607  1.0000
  C   C269      1.0  0.43119  0.29348  0.4600199999999999  1.0000
  C   C270      1.0  0.65912  0.82184  0.4560599999999999  1.0000
  C   C271      1.0  0.5478999999999999  0.05494000000000002  0.48167  1.0000
  C   C272      1.0  0.6446  0.05365  0.4925099999999999  1.0000
  C   C273      1.0  0.6487199999999999  0.0566  0.51524  1.0000
  C   C274      1.0  0.55399  0.05814000000000001  0.52667  1.0000
  C   C275      1.0  0.45627  0.057040000000000014  0.51637  1.0000
  C   C276      1.0  0.45433  0.05642000000000001  0.49364  1.0000
  C   C277      1.0  0.74751  0.05663  0.52761  1.0000
  C   C278      1.0  0.82873  0.9848700000000001  0.52357  1.0000
  C   C279      1.0  0.91446  0.9811600000000003  0.53737  1.0000
  C   C280      1.0  0.84976  0.1177  0.5580299999999998  1.0000
  C   C281      1.0  0.76052  0.12473  0.54526  1.0000
  C   C282      1.0  0.36037  0.05226000000000001  0.52961  1.0000
  C   C283      1.0  0.35523  0.98298  0.5472299999999998  1.0000
  C   C284      1.0  0.26536  0.97888  0.55982  1.0000
  C   C285      1.0  0.18625  0.10846  0.5394399999999998  1.0000
  C   C286      1.0  0.27245  0.11606  0.52584  1.0000
  C   C287      1.0  0.7782199999999999  0.14903000000000002  0.47443  1.0000
  C   C288      1.0  0.31592999999999993  0.95534  0.47856  1.0000
  I   I1        1.0  0.7982999999999998  0.9464000000000002  0.9005099999999998  1.0000
  I   I2        1.0  0.16665  0.94996  0.9109699999999997  1.0000
  I   I3        1.0  0.20077999999999996  0.05333  0.4005199999999999  1.0000
  I   I4        1.0  0.8321899999999998  0.049360000000000015  0.41079  1.0000
  I   I5        1.0  0.55383  0.29752000000000006  0.65073  1.0000
  I   I6        1.0  0.5498399999999999  0.66603  0.66086  1.0000
  I   I7        1.0  0.44626999999999994  0.70281  0.15038999999999997  1.0000
  I   I8        1.0  0.45090999999999987  0.33454  0.16066  1.0000
  I   I9        1.0  0.70195  0.4462600000000001  0.84968  1.0000
  I   I10       1.0  0.3337999999999999  0.45036000000000004  0.8393799999999998  1.0000
  I   I11       1.0  0.29787  0.55327  0.34945  1.0000
  I   I12       1.0  0.66615  0.5492500000000001  0.3391999999999999  1.0000
  I   I13       1.0  0.94739  0.7981900000000001  0.09947  1.0000
  I   I14       1.0  0.95056  0.16691  0.0895  1.0000
  I   I15       1.0  0.05311  0.20155000000000003  0.5992799999999998  1.0000
  I   I16       1.0  0.0498  0.83288  0.58928  1.0000
  N   N1        1.0  0.57171  0.4995300000000001  0.11531  1.0000
  N   N2        1.0  0.31704  0.48578  0.11594  1.0000
  N   N3        1.0  0.9538699999999998  0.07474  0.9455399999999998  1.0000
  N   N4        1.0  0.9593699999999997  0.8192200000000001  0.9438899999999998  1.0000
  N   N5        1.0  0.4281699999999999  0.4993100000000001  0.61558  1.0000
  N   N6        1.0  0.6826699999999998  0.51404  0.61596  1.0000
  N   N7        1.0  0.04516  0.9257500000000001  0.4455499999999999  1.0000
  N   N8        1.0  0.04037  0.18064000000000005  0.44402  1.0000
  N   N9        1.0  0.00044  0.07240000000000002  0.86563  1.0000
  N   N10       1.0  0.01617  0.8179100000000002  0.8658399999999999  1.0000
  N   N11       1.0  0.42711  0.4540300000000001  0.69542  1.0000
  N   N12       1.0  0.6831899999999999  0.45875  0.69414  1.0000
  N   N13       1.0  0.9987999999999999  0.9282000000000002  0.3654  1.0000
  N   N14       1.0  0.98457  0.18276  0.36591  1.0000
  N   N15       1.0  0.5721  0.5460500000000001  0.19539  1.0000
  N   N16       1.0  0.31718  0.54129  0.19394  1.0000
  N   N17       1.0  0.9283899999999999  0.0002300000000000001  0.6346899999999998  1.0000
  N   N18       1.0  0.18355  0.9854500000000002  0.63415  1.0000
  N   N19       1.0  0.54631  0.5725100000000001  0.8046699999999998  1.0000
  N   N20       1.0  0.54084  0.31678  0.80605  1.0000
  N   N21       1.0  0.07142  0.99981  0.13462  1.0000
  N   N22       1.0  0.8166699999999998  0.014180000000000003  0.13416  1.0000
  N   N23       1.0  0.45428  0.42759000000000014  0.30459  1.0000
  N   N24       1.0  0.45878  0.6826  0.3060099999999999  1.0000
  N   N25       1.0  0.49996  0.5712000000000002  0.88472  1.0000
  N   N26       1.0  0.48517999999999994  0.31631  0.8840899999999998  1.0000
  N   N27       1.0  0.07408  0.9542300000000001  0.05452999999999999  1.0000
  N   N28       1.0  0.8191499999999998  0.9595300000000002  0.05606  1.0000
  N   N29       1.0  0.5004  0.42811  0.38466  1.0000
  N   N30       1.0  0.51433  0.6830000000000003  0.3841199999999999  1.0000
  N   N31       1.0  0.9260699999999997  0.04611000000000001  0.55448  1.0000
  N   N32       1.0  0.18091  0.040230000000000016  0.5561  1.0000
  O   O1        1.0  0.75787  0.47161  0.04126  1.0000
  O   O2        1.0  0.13208999999999999  0.4443800000000001  0.04225  1.0000
  O   O3        1.0  0.95235  0.26459000000000005  0.01946  1.0000
  O   O4        1.0  0.9418999999999997  0.64065  0.017349999999999994  1.0000
  O   O5        1.0  0.24325999999999998  0.53378  0.54218  1.0000
  O   O6        1.0  0.86799  0.55526  0.54226  1.0000
  O   O7        1.0  0.047719999999999985  0.73585  0.51952  1.0000
  O   O8        1.0  0.06279  0.3598  0.5174099999999999  1.0000
  O   O9        1.0  0.03181  0.25721  0.7921099999999998  1.0000
  O   O10       1.0  0.05807999999999999  0.63069  0.7922599999999997  1.0000
  O   O11       1.0  0.23840999999999998  0.44961  0.7695199999999998  1.0000
  O   O12       1.0  0.86228  0.43885000000000013  0.76746  1.0000
  O   O13       1.0  0.96828  0.74148  0.2913199999999999  1.0000
  O   O14       1.0  0.94106  0.36841000000000007  0.2923099999999999  1.0000
  O   O15       1.0  0.7616299999999998  0.54991  0.26942  1.0000
  O   O16       1.0  0.1377  0.56106  0.2673899999999999  1.0000
  O   O17       1.0  0.7418  0.9684600000000002  0.7087399999999998  1.0000
  O   O18       1.0  0.3688599999999999  0.94161  0.70776  1.0000
  O   O19       1.0  0.54985  0.76183  0.73057  1.0000
  O   O20       1.0  0.56116  0.13768  0.7326399999999997  1.0000
  O   O21       1.0  0.25839  0.03161  0.20872  1.0000
  O   O22       1.0  0.63147  0.05931  0.20775  1.0000
  O   O23       1.0  0.45027  0.23829  0.23062  1.0000
  O   O24       1.0  0.43871  0.8623300000000002  0.23261999999999994  1.0000
  O   O25       1.0  0.47046  0.7576100000000001  0.95871  1.0000
  O   O26       1.0  0.44456  0.13191000000000003  0.9577299999999997  1.0000
  O   O27       1.0  0.26392  0.95216  0.98053  1.0000
  O   O28       1.0  0.6399  0.9374600000000002  0.9826299999999998  1.0000
  O   O29       1.0  0.53251  0.24207  0.45867  1.0000
  O   O30       1.0  0.55525  0.8676900000000001  0.45776  1.0000
  O   O31       1.0  0.73612  0.04775  0.4806  1.0000
  O   O32       1.0  0.3597099999999999  0.05829000000000001  0.48268  1.0000
