data_image0
_chemical_formula_structural       Mn24H312C336N64O72
_chemical_formula_sum              "Mn24 H312 C336 N64 O72"
_cell_length_a       17.58397
_cell_length_b       30.14071
_cell_length_c       30.14254
_cell_angle_alpha    85.16116
_cell_angle_beta     73.06065
_cell_angle_gamma    73.02566

_symmetry_space_group_name_H-M    'P 1'
_symmetry_Int_Tables_number       1

loop_
  _symmetry_equiv_pos_as_xyz
  'x,y,z'

loop_
  _atom_site_type_symbol
  _atom_site_label
  _atom_site_symmetry_multiplicity
  _atom_site_fract_x
  _atom_site_fract_y
  _atom_site_fract_z
  _atom_site_occupancy
  Mn  Mn1       1.0  0.59477  0.11587  0.03205  1.0000
  Mn  Mn2       1.0  0.78559  0.9991499999999999  0.91998  1.0000
  Mn  Mn3       1.0  0.35935  0.08363  0.14216  1.0000
  Mn  Mn4       1.0  0.7428400000000002  0.38438  0.46779  1.0000
  Mn  Mn5       1.0  0.7051  0.50072  0.5799700000000001  1.0000
  Mn  Mn6       1.0  0.5843200000000001  0.4163099999999999  0.358  1.0000
  Mn  Mn7       1.0  0.21112000000000003  0.03194  0.38409999999999994  1.0000
  Mn  Mn8       1.0  0.28484  0.91993  0.50083  1.0000
  Mn  Mn9       1.0  0.9427300000000001  0.14225  0.4163  1.0000
  Mn  Mn10      1.0  0.6274000000000001  0.46791  0.11568  1.0000
  Mn  Mn11      1.0  0.7055900000000002  0.5800099999999998  0.99917  1.0000
  Mn  Mn12      1.0  0.50134  0.35794  0.08368  1.0000
  Mn  Mn13      1.0  0.40523  0.88413  0.96795  1.0000
  Mn  Mn14      1.0  0.21441  0.0008499999999999998  0.08002  1.0000
  Mn  Mn15      1.0  0.64066  0.91637  0.85784  1.0000
  Mn  Mn16      1.0  0.2571700000000002  0.61562  0.53221  1.0000
  Mn  Mn17      1.0  0.2949100000000001  0.4992799999999999  0.42003  1.0000
  Mn  Mn18      1.0  0.41569000000000017  0.5836899999999998  0.642  1.0000
  Mn  Mn19      1.0  0.7888899999999998  0.9680599999999999  0.6159  1.0000
  Mn  Mn20      1.0  0.71517  0.08006999999999997  0.49917  1.0000
  Mn  Mn21      1.0  0.05728000000000006  0.85775  0.5837  1.0000
  Mn  Mn22      1.0  0.37260000000000026  0.5321  0.88432  1.0000
  Mn  Mn23      1.0  0.29441999999999996  0.41999  0.00083  1.0000
  Mn  Mn24      1.0  0.49867  0.64206  0.9163199999999999  1.0000
  H   H1        1.0  0.7029600000000001  0.11711  0.14555  1.0000
  H   H2        1.0  0.8407400000000003  0.07182  0.15573  1.0000
  H   H3        1.0  0.9434199999999999  0.019119999999999995  0.09256  1.0000
  H   H4        1.0  0.90541  0.01141  0.020579999999999998  1.0000
  H   H5        1.0  0.5661  0.04441  0.91146  1.0000
  H   H6        1.0  0.64067  0.06868  0.87518  1.0000
  H   H7        1.0  0.5325500000000001  0.14847  0.8852  1.0000
  H   H8        1.0  0.50095  0.10615  0.86293  1.0000
  H   H9        1.0  0.45860999999999996  0.12270999999999997  0.92218  1.0000
  H   H10       1.0  0.91948  0.07254999999999999  0.80714  1.0000
  H   H11       1.0  0.9301799999999999  0.07575  0.72264  1.0000
  H   H12       1.0  0.85382  0.03265  0.69157  1.0000
  H   H13       1.0  0.7688399999999999  0.98783  0.74561  1.0000
  H   H14       1.0  0.6513100000000001  0.87633  0.95633  1.0000
  H   H15       1.0  0.5994500000000001  0.9188599999999998  0.99948  1.0000
  H   H16       1.0  0.72204  0.89588  0.03302  1.0000
  H   H17       1.0  0.6829800000000001  0.84789  0.03162  1.0000
  H   H18       1.0  0.7749100000000001  0.8526999999999998  0.98962  1.0000
  H   H19       1.0  0.8834800000000005  0.9334699999999998  0.9826  1.0000
  H   H20       1.0  0.005460000000000036  0.86501  0.97903  1.0000
  H   H21       1.0  0.05683000000000014  0.8701999999999998  0.82979  1.0000
  H   H22       1.0  0.9331400000000001  0.93871  0.83976  1.0000
  H   H23       1.0  0.16554000000000013  0.82483  0.86674  1.0000
  H   H24       1.0  0.10311000000000006  0.78875  0.89359  1.0000
  H   H25       1.0  0.18095  0.21378  0.20013000000000003  1.0000
  H   H26       1.0  0.19502000000000003  0.29432  0.19077  1.0000
  H   H27       1.0  0.32204  0.30994  0.13521  1.0000
  H   H28       1.0  0.43031  0.24533999999999995  0.08974  1.0000
  H   H29       1.0  0.62351  0.00804  0.03312  1.0000
  H   H30       1.0  0.56458  0.96919  0.05827  1.0000
  H   H31       1.0  0.66352  0.007469999999999999  0.10772  1.0000
  H   H32       1.0  0.69466  0.9513199999999998  0.08349  1.0000
  H   H33       1.0  0.6054200000000001  0.96742  0.13206  1.0000
  H   H34       1.0  0.44303000000000003  0.7522999999999999  0.9111700000000001  1.0000
  H   H35       1.0  0.3160400000000002  0.8187099999999999  0.92473  1.0000
  H   H36       1.0  0.1761100000000002  0.7198299999999997  0.93513  1.0000
  H   H37       1.0  0.30913  0.6576  0.9200900000000001  1.0000
  H   H38       1.0  0.16733000000000017  0.8464999999999998  0.946  1.0000
  H   H39       1.0  0.11087000000000005  0.80644  0.97153  1.0000
  H   H40       1.0  0.9659400000000004  0.3830099999999999  0.35429  1.0000
  H   H41       1.0  0.06836000000000002  0.42836  0.34428  1.0000
  H   H42       1.0  0.05510999999999991  0.48106  0.40747  1.0000
  H   H43       1.0  0.9373800000000001  0.4886299999999999  0.47942  1.0000
  H   H44       1.0  0.52263  0.45574  0.58847  1.0000
  H   H45       1.0  0.5847300000000001  0.4313899999999999  0.6249900000000002  1.0000
  H   H46       1.0  0.5667499999999999  0.35164  0.61471  1.0000
  H   H47       1.0  0.4705  0.39391  0.63689  1.0000
  H   H48       1.0  0.5042600000000003  0.3774  0.5776  1.0000
  H   H49       1.0  0.79959  0.4274699999999999  0.6929  1.0000
  H   H50       1.0  0.72911  0.42406  0.7773  1.0000
  H   H51       1.0  0.5786  0.4668999999999999  0.8084399999999999  1.0000
  H   H52       1.0  0.5025900000000001  0.51201  0.75456  1.0000
  H   H53       1.0  0.4839999999999999  0.6236399999999998  0.54333  1.0000
  H   H54       1.0  0.51849  0.58085  0.50041  1.0000
  H   H55       1.0  0.6510999999999999  0.60392  0.46699  1.0000
  H   H56       1.0  0.5626600000000003  0.6519799999999998  0.46832  1.0000
  H   H57       1.0  0.6174700000000001  0.64723  0.5103  1.0000
  H   H58       1.0  0.7998499999999998  0.56659  0.51734  1.0000
  H   H59       1.0  0.8495700000000002  0.63512  0.52091  1.0000
  H   H60       1.0  0.7568399999999998  0.62996  0.67016  1.0000
  H   H61       1.0  0.7118700000000001  0.56137  0.66015  1.0000
  H   H62       1.0  0.8571199999999999  0.67529  0.63326  1.0000
  H   H63       1.0  0.7854  0.7113799999999998  0.60642  1.0000
  H   H64       1.0  0.59451  0.28613  0.30007  1.0000
  H   H65       1.0  0.68015  0.2056  0.30958  1.0000
  H   H66       1.0  0.7674399999999999  0.19032999999999994  0.36513  1.0000
  H   H67       1.0  0.7656700000000001  0.25521  0.41018999999999994  1.0000
  H   H68       1.0  0.6641700000000003  0.4919299999999999  0.46669  1.0000
  H   H69       1.0  0.59186  0.53125  0.44158  1.0000
  H   H70       1.0  0.7782800000000001  0.4921999999999999  0.39213  1.0000
  H   H71       1.0  0.7294  0.54848  0.41631  1.0000
  H   H72       1.0  0.7047799999999999  0.53242  0.36768  1.0000
  H   H73       1.0  0.10694000000000022  0.7475299999999998  0.58866  1.0000
  H   H74       1.0  0.059510000000000035  0.68123  0.57526  1.0000
  H   H75       1.0  0.8312100000000001  0.78036  0.56494  1.0000
  H   H76       1.0  0.8873800000000002  0.8424699999999998  0.57983  1.0000
  H   H77       1.0  0.9597599999999998  0.65363  0.55401  1.0000
  H   H78       1.0  0.8887299999999999  0.69377  0.5285  1.0000
  H   H79       1.0  0.32051  0.1452  0.38289  1.0000
  H   H80       1.0  0.4126100000000001  0.15558999999999995  0.42835999999999996  1.0000
  H   H81       1.0  0.46233  0.09260999999999998  0.48125  1.0000
  H   H82       1.0  0.41669  0.02059  0.48896  1.0000
  H   H83       1.0  0.11052000000000006  0.91171  0.45567  1.0000
  H   H84       1.0  0.20908000000000007  0.8749699999999998  0.43152  1.0000
  H   H85       1.0  0.18111000000000008  0.8851999999999998  0.35163  1.0000
  H   H86       1.0  0.10720000000000006  0.8629699999999998  0.39384  1.0000
  H   H87       1.0  0.08132000000000017  0.9222099999999998  0.37736  1.0000
  H   H88       1.0  0.49253000000000013  0.8071799999999998  0.42734  1.0000
  H   H89       1.0  0.5067600000000001  0.72269  0.42387  1.0000
  H   H90       1.0  0.38757  0.6915  0.4669  1.0000
  H   H91       1.0  0.2577  0.74538  0.51202  1.0000
  H   H92       1.0  0.027419999999999986  0.95645  0.62365  1.0000
  H   H93       1.0  0.018380000000000007  0.99951  0.58106  1.0000
  H   H94       1.0  0.11767999999999999  0.03306  0.60417  1.0000
  H   H95       1.0  0.030740000000000017  0.03164  0.65217  1.0000
  H   H96       1.0  0.12755999999999995  0.98969  0.64733  1.0000
  H   H97       1.0  0.3169400000000003  0.9825999999999998  0.56669  1.0000
  H   H98       1.0  0.3702799999999999  0.9791  0.63519  1.0000
  H   H99       1.0  0.4268900000000001  0.8297999999999998  0.6299  1.0000
  H   H100      1.0  0.3717899999999999  0.83976  0.5613600000000001  1.0000
  H   H101      1.0  0.49040000000000006  0.8667199999999998  0.67517  1.0000
  H   H102      1.0  0.3918300000000001  0.8936199999999997  0.71128  1.0000
  H   H103      1.0  0.89504  0.20009  0.28606  1.0000
  H   H104      1.0  0.9898799999999999  0.19052999999999995  0.20559  1.0000
  H   H105      1.0  0.13246000000000002  0.1349  0.19009  1.0000
  H   H106      1.0  0.17619  0.08970999999999997  0.25477  1.0000
  H   H107      1.0  0.13128000000000006  0.03321  0.49178  1.0000
  H   H108      1.0  0.033540000000000014  0.05837999999999999  0.53076  1.0000
  H   H109      1.0  0.17075000000000004  0.10775999999999997  0.49246  1.0000
  H   H110      1.0  0.14573000000000005  0.08363  0.54864  1.0000
  H   H111      1.0  0.07257  0.1322  0.53253  1.0000
  H   H112      1.0  0.6953600000000001  0.91116  0.7477  1.0000
  H   H113      1.0  0.63467  0.9248699999999997  0.68133  1.0000
  H   H114      1.0  0.39591000000000015  0.9351999999999998  0.78023  1.0000
  H   H115      1.0  0.46684000000000025  0.9200399999999997  0.84241  1.0000
  H   H116      1.0  0.5137800000000001  0.94599  0.65362  1.0000
  H   H117      1.0  0.41721  0.9715399999999997  0.69372  1.0000
  H   H118      1.0  0.84954  0.35447  0.11682  1.0000
  H   H119      1.0  0.9972999999999999  0.34438  0.07132  1.0000
  H   H120      1.0  0.03643000000000008  0.4076399999999999  0.01869  1.0000
  H   H121      1.0  0.9260000000000002  0.47954  0.01122  1.0000
  H   H122      1.0  0.4776999999999999  0.58838  0.04445  1.0000
  H   H123      1.0  0.5158  0.62481  0.06868  1.0000
  H   H124      1.0  0.41791  0.61474  0.14852  1.0000
  H   H125      1.0  0.3640000000000002  0.6369199999999998  0.10622  1.0000
  H   H126      1.0  0.3810500000000001  0.5776799999999999  0.12277  1.0000
  H   H127      1.0  0.7265400000000001  0.6930599999999999  0.07246  1.0000
  H   H128      1.0  0.6528300000000001  0.7775399999999999  0.07572  1.0000
  H   H129      1.0  0.5452400000000001  0.80865  0.0328  1.0000
  H   H130      1.0  0.5142299999999999  0.7546299999999998  0.98783  1.0000
  H   H131      1.0  0.6073400000000004  0.5436  0.87637  1.0000
  H   H132      1.0  0.5987399999999999  0.50057  0.91894  1.0000
  H   H133      1.0  0.75477  0.46711  0.89602  1.0000
  H   H134      1.0  0.7147600000000001  0.4683199999999999  0.84785  1.0000
  H   H135      1.0  0.7643100000000002  0.51049  0.85286  1.0000
  H   H136      1.0  0.8664399999999999  0.51733  0.93321  1.0000
  H   H137      1.0  0.9849300000000001  0.52083  0.86489  1.0000
  H   H138      1.0  0.8866800000000001  0.6701799999999998  0.87015  1.0000
  H   H139      1.0  0.77292  0.66016  0.93853  1.0000
  H   H140      1.0  0.03233000000000007  0.63329  0.82477  1.0000
  H   H141      1.0  0.9967099999999999  0.60641  0.78871  1.0000
  H   H142      1.0  0.3811100000000001  0.30020999999999987  0.21367  1.0000
  H   H143      1.0  0.38575000000000004  0.30972  0.29427  1.0000
  H   H144      1.0  0.45776  0.36509  0.30984  1.0000
  H   H145      1.0  0.52108  0.4101999999999999  0.24519  1.0000
  H   H146      1.0  0.6565200000000001  0.4666899999999999  0.00797  1.0000
  H   H147      1.0  0.62315  0.4414499999999999  0.96894  1.0000
  H   H148      1.0  0.77127  0.39218  0.00742  1.0000
  H   H149      1.0  0.7781500000000001  0.41638  0.9513  1.0000
  H   H150      1.0  0.7378000000000001  0.3677  0.96726  1.0000
  H   H151      1.0  0.35449000000000014  0.58883  0.75245  1.0000
  H   H152      1.0  0.24078999999999998  0.57545  0.81866  1.0000
  H   H153      1.0  0.11161999999999997  0.56521  0.7196  1.0000
  H   H154      1.0  0.22983  0.58006  0.65748  1.0000
  H   H155      1.0  0.11364000000000005  0.55406  0.84626  1.0000
  H   H156      1.0  0.08278  0.52853  0.8061  1.0000
  H   H157      1.0  0.2970400000000002  0.8828999999999998  0.85445  1.0000
  H   H158      1.0  0.1592599999999999  0.92818  0.8442700000000001  1.0000
  H   H159      1.0  0.056580000000000234  0.9808799999999998  0.90744  1.0000
  H   H160      1.0  0.09460000000000006  0.9885899999999997  0.97942  1.0000
  H   H161      1.0  0.4339100000000003  0.95559  0.08854  1.0000
  H   H162      1.0  0.35934000000000005  0.93132  0.12482  1.0000
  H   H163      1.0  0.4674500000000001  0.85153  0.1148  1.0000
  H   H164      1.0  0.49906  0.89385  0.13707  1.0000
  H   H165      1.0  0.54139  0.87729  0.07782  1.0000
  H   H166      1.0  0.08052999999999995  0.92745  0.19286  1.0000
  H   H167      1.0  0.06983000000000002  0.92425  0.27736  1.0000
  H   H168      1.0  0.14619000000000001  0.96736  0.30843  1.0000
  H   H169      1.0  0.23115999999999998  0.012169999999999997  0.25439  1.0000
  H   H170      1.0  0.34869  0.12368  0.04367  1.0000
  H   H171      1.0  0.40056  0.08114  0.00052  1.0000
  H   H172      1.0  0.2779700000000001  0.10412  0.9669799999999998  1.0000
  H   H173      1.0  0.3170299999999999  0.15211  0.9683800000000001  1.0000
  H   H174      1.0  0.22509  0.14731  0.01038  1.0000
  H   H175      1.0  0.11651999999999998  0.06653  0.0174  1.0000
  H   H176      1.0  0.99455  0.13498999999999997  0.02097  1.0000
  H   H177      1.0  0.9431700000000001  0.12979999999999997  0.17021  1.0000
  H   H178      1.0  0.06687000000000001  0.06129  0.16024  1.0000
  H   H179      1.0  0.8344699999999999  0.17517  0.13326  1.0000
  H   H180      1.0  0.8968900000000001  0.21124999999999997  0.10641  1.0000
  H   H181      1.0  0.8190599999999999  0.78622  0.79987  1.0000
  H   H182      1.0  0.80499  0.70568  0.80923  1.0000
  H   H183      1.0  0.6779600000000001  0.69006  0.86479  1.0000
  H   H184      1.0  0.5697  0.7546599999999998  0.91026  1.0000
  H   H185      1.0  0.37649000000000005  0.99196  0.96689  1.0000
  H   H186      1.0  0.4354199999999999  0.03081  0.94173  1.0000
  H   H187      1.0  0.33649000000000007  0.9925299999999999  0.89228  1.0000
  H   H188      1.0  0.30533999999999994  0.04867999999999999  0.91651  1.0000
  H   H189      1.0  0.39457999999999993  0.03258  0.86794  1.0000
  H   H190      1.0  0.5569800000000001  0.24769999999999995  0.08883  1.0000
  H   H191      1.0  0.68397  0.18129  0.07527  1.0000
  H   H192      1.0  0.8239000000000001  0.28016999999999986  0.06487  1.0000
  H   H193      1.0  0.69087  0.34241  0.07991  1.0000
  H   H194      1.0  0.8326800000000001  0.1535  0.054  1.0000
  H   H195      1.0  0.8891400000000002  0.19355999999999995  0.02847  1.0000
  H   H196      1.0  0.03406000000000014  0.6169899999999998  0.64571  1.0000
  H   H197      1.0  0.9316500000000001  0.57164  0.65572  1.0000
  H   H198      1.0  0.9448900000000001  0.51895  0.59253  1.0000
  H   H199      1.0  0.06263000000000002  0.51137  0.52058  1.0000
  H   H200      1.0  0.4773700000000001  0.5442599999999999  0.41153  1.0000
  H   H201      1.0  0.4152799999999999  0.56861  0.37501  1.0000
  H   H202      1.0  0.43326  0.6483699999999998  0.38529  1.0000
  H   H203      1.0  0.52951  0.60609  0.36311  1.0000
  H   H204      1.0  0.49575  0.6226  0.4224  1.0000
  H   H205      1.0  0.20041000000000006  0.5725299999999999  0.3071  1.0000
  H   H206      1.0  0.27090000000000003  0.57594  0.22270000000000004  1.0000
  H   H207      1.0  0.42141  0.5331  0.19156  1.0000
  H   H208      1.0  0.4974199999999999  0.488  0.24544  1.0000
  H   H209      1.0  0.5160100000000001  0.37636  0.45667  1.0000
  H   H210      1.0  0.4815099999999999  0.41915  0.49959000000000003  1.0000
  H   H211      1.0  0.34891000000000005  0.39608  0.53301  1.0000
  H   H212      1.0  0.43735000000000007  0.3480299999999999  0.53168  1.0000
  H   H213      1.0  0.38253000000000004  0.35277  0.4897  1.0000
  H   H214      1.0  0.20016  0.4334199999999999  0.48266  1.0000
  H   H215      1.0  0.15044000000000002  0.36488  0.47909  1.0000
  H   H216      1.0  0.24317000000000003  0.37005  0.32984  1.0000
  H   H217      1.0  0.28814  0.43863  0.33985  1.0000
  H   H218      1.0  0.14289  0.32472  0.36674  1.0000
  H   H219      1.0  0.21460999999999997  0.28862  0.39358  1.0000
  H   H220      1.0  0.40550000000000014  0.71387  0.6999299999999999  1.0000
  H   H221      1.0  0.31986  0.7944  0.69042  1.0000
  H   H222      1.0  0.23256999999999983  0.80967  0.63487  1.0000
  H   H223      1.0  0.2343399999999999  0.74479  0.58981  1.0000
  H   H224      1.0  0.33583  0.50807  0.53331  1.0000
  H   H225      1.0  0.40815  0.4687499999999999  0.55842  1.0000
  H   H226      1.0  0.22173000000000007  0.5078  0.60787  1.0000
  H   H227      1.0  0.27060000000000006  0.45152  0.58369  1.0000
  H   H228      1.0  0.29522000000000004  0.4675799999999999  0.63232  1.0000
  H   H229      1.0  0.8930699999999998  0.25247  0.41134  1.0000
  H   H230      1.0  0.9405  0.31877  0.42474  1.0000
  H   H231      1.0  0.16880000000000006  0.21964  0.43506  1.0000
  H   H232      1.0  0.11262  0.15753  0.42017  1.0000
  H   H233      1.0  0.04024999999999999  0.34638  0.44599  1.0000
  H   H234      1.0  0.11126999999999998  0.30623  0.47151  1.0000
  H   H235      1.0  0.6795  0.8548  0.61711  1.0000
  H   H236      1.0  0.58739  0.84441  0.57165  1.0000
  H   H237      1.0  0.53768  0.90739  0.51875  1.0000
  H   H238      1.0  0.58332  0.9794099999999998  0.51104  1.0000
  H   H239      1.0  0.8894899999999999  0.08829  0.54433  1.0000
  H   H240      1.0  0.7909299999999998  0.12502999999999997  0.56848  1.0000
  H   H241      1.0  0.8189  0.11479999999999997  0.6483699999999999  1.0000
  H   H242      1.0  0.8928  0.13704  0.60616  1.0000
  H   H243      1.0  0.9186800000000002  0.07779  0.62264  1.0000
  H   H244      1.0  0.50747  0.19282  0.57266  1.0000
  H   H245      1.0  0.4932500000000001  0.27731  0.57613  1.0000
  H   H246      1.0  0.61243  0.3085  0.5331  1.0000
  H   H247      1.0  0.74231  0.25462  0.48798  1.0000
  H   H248      1.0  0.9725900000000001  0.043549999999999985  0.37635  1.0000
  H   H249      1.0  0.98163  0.00049  0.41894  1.0000
  H   H250      1.0  0.88233  0.9669399999999999  0.39583  1.0000
  H   H251      1.0  0.9692699999999997  0.96836  0.34783  1.0000
  H   H252      1.0  0.87245  0.01031  0.35267  1.0000
  H   H253      1.0  0.68307  0.0174  0.43331  1.0000
  H   H254      1.0  0.62973  0.0209  0.36481  1.0000
  H   H255      1.0  0.57311  0.17020999999999997  0.3701  1.0000
  H   H256      1.0  0.62821  0.16024  0.43864  1.0000
  H   H257      1.0  0.50961  0.13328  0.32483  1.0000
  H   H258      1.0  0.60817  0.10639  0.28872  1.0000
  H   H259      1.0  0.10497000000000008  0.7999199999999997  0.71394  1.0000
  H   H260      1.0  0.01013000000000005  0.80947  0.79441  1.0000
  H   H261      1.0  0.8675400000000001  0.8651099999999998  0.80991  1.0000
  H   H262      1.0  0.8238199999999999  0.9102899999999999  0.74523  1.0000
  H   H263      1.0  0.86872  0.96679  0.50822  1.0000
  H   H264      1.0  0.9664700000000003  0.94162  0.46924  1.0000
  H   H265      1.0  0.8292500000000003  0.8922399999999998  0.50754  1.0000
  H   H266      1.0  0.85427  0.91637  0.45136  1.0000
  H   H267      1.0  0.9274300000000003  0.8677999999999998  0.46747  1.0000
  H   H268      1.0  0.30465000000000003  0.08884  0.2523  1.0000
  H   H269      1.0  0.36533000000000004  0.07513  0.31867  1.0000
  H   H270      1.0  0.6041  0.06479999999999998  0.21977  1.0000
  H   H271      1.0  0.53317  0.07996  0.15759  1.0000
  H   H272      1.0  0.4862200000000002  0.05400999999999999  0.34639  1.0000
  H   H273      1.0  0.5828  0.02846  0.30628  1.0000
  H   H274      1.0  0.15046000000000004  0.64553  0.88318  1.0000
  H   H275      1.0  0.0027100000000000166  0.65562  0.92868  1.0000
  H   H276      1.0  0.9635700000000001  0.5923599999999998  0.98131  1.0000
  H   H277      1.0  0.07401  0.52046  0.98878  1.0000
  H   H278      1.0  0.5223100000000003  0.4116199999999999  0.9555499999999999  1.0000
  H   H279      1.0  0.4842100000000001  0.3751899999999999  0.93132  1.0000
  H   H280      1.0  0.5821000000000001  0.38526  0.85148  1.0000
  H   H281      1.0  0.63601  0.3630799999999999  0.89378  1.0000
  H   H282      1.0  0.6189500000000001  0.42231999999999986  0.87723  1.0000
  H   H283      1.0  0.27346  0.30695  0.92754  1.0000
  H   H284      1.0  0.34718000000000004  0.22245999999999994  0.92429  1.0000
  H   H285      1.0  0.45476000000000005  0.19135999999999995  0.9672  1.0000
  H   H286      1.0  0.48578  0.24536999999999995  0.01217  1.0000
  H   H287      1.0  0.3926700000000001  0.45639999999999986  0.12363  1.0000
  H   H288      1.0  0.40126000000000006  0.4994299999999999  0.08106  1.0000
  H   H289      1.0  0.24523  0.5329  0.10398  1.0000
  H   H290      1.0  0.28525  0.53168  0.15215  1.0000
  H   H291      1.0  0.2357000000000001  0.4895099999999999  0.14714  1.0000
  H   H292      1.0  0.13357000000000002  0.4826799999999999  0.06679  1.0000
  H   H293      1.0  0.015079999999999984  0.47917  0.13511  1.0000
  H   H294      1.0  0.11333000000000001  0.3298299999999999  0.12985  1.0000
  H   H295      1.0  0.22709000000000007  0.33983999999999986  0.06147  1.0000
  H   H296      1.0  0.9676800000000002  0.36670999999999987  0.17523  1.0000
  H   H297      1.0  0.0033000000000000234  0.39359  0.21129  1.0000
  H   H298      1.0  0.61889  0.69979  0.78633  1.0000
  H   H299      1.0  0.6142600000000003  0.69028  0.70573  1.0000
  H   H300      1.0  0.5422500000000001  0.63492  0.69017  1.0000
  H   H301      1.0  0.47892000000000007  0.5897999999999998  0.75481  1.0000
  H   H302      1.0  0.34348  0.53331  0.99203  1.0000
  H   H303      1.0  0.3768600000000001  0.5585499999999998  0.03106  1.0000
  H   H304      1.0  0.22874000000000003  0.60783  0.99258  1.0000
  H   H305      1.0  0.22184999999999996  0.58362  0.0487  1.0000
  H   H306      1.0  0.26221  0.6323  0.03274  1.0000
  H   H307      1.0  0.64551  0.41117  0.24755  1.0000
  H   H308      1.0  0.75922  0.42455  0.18134  1.0000
  H   H309      1.0  0.88839  0.43479  0.2804  1.0000
  H   H310      1.0  0.77018  0.41993999999999987  0.34252  1.0000
  H   H311      1.0  0.88637  0.44594  0.15374  1.0000
  H   H312      1.0  0.9172300000000001  0.4714699999999999  0.1939  1.0000
  C   C1        1.0  0.72616  0.08959  0.07809  1.0000
  C   C2        1.0  0.74817  0.09334  0.11887  1.0000
  C   C3        1.0  0.82506  0.0681  0.12413  1.0000
  C   C4        1.0  0.8828600000000002  0.03837999999999999  0.08877  1.0000
  C   C5        1.0  0.86195  0.03416  0.04859  1.0000
  C   C6        1.0  0.7842  0.05905999999999999  0.04236  1.0000
  C   C7        1.0  0.76646  0.05144  0.99942  1.0000
  C   C8        1.0  0.60964  0.08589999999999998  0.94611  1.0000
  C   C9        1.0  0.5848200000000001  0.07677999999999997  0.90477  1.0000
  C   C10       1.0  0.5153200000000001  0.11591  0.8931799999999999  1.0000
  C   C11       1.0  0.8387499999999999  0.028639999999999992  0.82424  1.0000
  C   C12       1.0  0.8869699999999999  0.05425999999999999  0.79289  1.0000
  C   C13       1.0  0.8923400000000002  0.05579  0.7459  1.0000
  C   C14       1.0  0.84962  0.03193  0.72833  1.0000
  C   C15       1.0  0.80184  0.0067199999999999985  0.7586500000000002  1.0000
  C   C16       1.0  0.79571  0.004009999999999999  0.80653  1.0000
  C   C17       1.0  0.7484500000000001  0.9742899999999998  0.83561  1.0000
  C   C18       1.0  0.7007900000000001  0.9338199999999998  0.94798  1.0000
  C   C19       1.0  0.6614500000000001  0.89975  0.97849  1.0000
  C   C20       1.0  0.7133900000000002  0.8725099999999998  0.01012  1.0000
  C   C21       1.0  0.9239899999999995  0.9182199999999998  0.94953  1.0000
  C   C22       1.0  0.99198  0.87975  0.94708  1.0000
  C   C23       1.0  0.04250000000000012  0.86136  0.90377  1.0000
  C   C24       1.0  0.020390000000000047  0.88292  0.8645  1.0000
  C   C25       1.0  0.9515000000000001  0.92134  0.86975  1.0000
  C   C26       1.0  0.11838000000000008  0.8205599999999997  0.89869  1.0000
  C   C27       1.0  0.2975900000000001  0.18372  0.15092  1.0000
  C   C28       1.0  0.23509000000000002  0.2214  0.17604  1.0000
  C   C29       1.0  0.24355000000000002  0.26613  0.17045  1.0000
  C   C30       1.0  0.31411000000000006  0.27524  0.13929  1.0000
  C   C31       1.0  0.37567999999999996  0.23874  0.11412  1.0000
  C   C32       1.0  0.36959  0.19280999999999998  0.11931  1.0000
  C   C33       1.0  0.43866000000000005  0.15627999999999997  0.09267  1.0000
  C   C34       1.0  0.51199  0.03657  0.08677  1.0000
  C   C35       1.0  0.5866700000000001  0.9974099999999998  0.066  1.0000
  C   C36       1.0  0.6405100000000002  0.9798799999999998  0.09954  1.0000
  C   C37       1.0  0.3826800000000003  0.7465699999999997  0.91642  1.0000
  C   C38       1.0  0.3111299999999999  0.78363  0.92407  1.0000
  C   C39       1.0  0.23439  0.77505  0.9314  1.0000
  C   C40       1.0  0.23384999999999986  0.7288  0.92971  1.0000
  C   C41       1.0  0.30809000000000003  0.69374  0.92163  1.0000
  C   C42       1.0  0.15554999999999997  0.81401  0.93994  1.0000
  C   C43       1.0  0.89408  0.4104399999999999  0.42182000000000003  1.0000
  C   C44       1.0  0.96067  0.40669  0.38107  1.0000
  C   C45       1.0  0.017470000000000027  0.43196999999999997  0.37589  1.0000
  C   C46       1.0  0.01019000000000013  0.46167999999999987  0.41125999999999996  1.0000
  C   C47       1.0  0.9448599999999999  0.4658699999999999  0.45138  1.0000
  C   C48       1.0  0.8858599999999999  0.44096999999999986  0.45754  1.0000
  C   C49       1.0  0.8176800000000001  0.44862999999999986  0.50049  1.0000
  C   C50       1.0  0.6421499999999999  0.41419999999999996  0.55389  1.0000
  C   C51       1.0  0.56688  0.4233299999999999  0.59524  1.0000
  C   C52       1.0  0.52496  0.3842  0.60669  1.0000
  C   C53       1.0  0.6920000000000001  0.4713299999999999  0.67581  1.0000
  C   C54       1.0  0.73456  0.44574999999999987  0.70715  1.0000
  C   C55       1.0  0.6945099999999998  0.44416  0.7541200000000001  1.0000
  C   C56       1.0  0.61033  0.46793  0.7717  1.0000
  C   C57       1.0  0.5675700000000001  0.4932199999999999  0.74143  1.0000
  C   C58       1.0  0.60665  0.4959899999999999  0.69355  1.0000
  C   C59       1.0  0.5589300000000004  0.5258199999999998  0.66444  1.0000
  C   C60       1.0  0.5829299999999998  0.5661599999999998  0.55201  1.0000
  C   C61       1.0  0.53996  0.60015  0.52145  1.0000
  C   C62       1.0  0.59625  0.62738  0.48983  1.0000
  C   C63       1.0  0.7919199999999998  0.58186  0.55041  1.0000
  C   C64       1.0  0.8188500000000002  0.62039  0.55286  1.0000
  C   C65       1.0  0.8076300000000001  0.6387699999999997  0.59618  1.0000
  C   C66       1.0  0.7678  0.61722  0.63545  1.0000
  C   C67       1.0  0.74275  0.57875  0.63016  1.0000
  C   C68       1.0  0.8375900000000002  0.67957  0.6013  1.0000
  C   C69       1.0  0.63191  0.31632  0.3492  1.0000
  C   C70       1.0  0.63225  0.2785699999999999  0.32416  1.0000
  C   C71       1.0  0.68002  0.23389  0.32982  1.0000
  C   C72       1.0  0.72866  0.22493999999999995  0.36093  1.0000
  C   C73       1.0  0.7285699999999999  0.26152  0.38595  1.0000
  C   C74       1.0  0.68153  0.30738  0.38077  1.0000
  C   C75       1.0  0.6876  0.3438899999999999  0.40739  1.0000
  C   C76       1.0  0.6344500000000002  0.4636499999999999  0.41322  1.0000
  C   C77       1.0  0.64954  0.50277  0.43383000000000005  1.0000
  C   C78       1.0  0.71972  0.51997  0.40024  1.0000
  C   C79       1.0  0.046050000000000105  0.7533199999999998  0.58346  1.0000
  C   C80       1.0  0.018960000000000126  0.7163399999999998  0.57592  1.0000
  C   C81       1.0  0.94089  0.72503  0.5686499999999999  1.0000
  C   C82       1.0  0.89254  0.77132  0.57033  1.0000
  C   C83       1.0  0.92388  0.8062899999999997  0.5783  1.0000
  C   C84       1.0  0.9094300000000002  0.6861399999999998  0.56008  1.0000
  C   C85       1.0  0.31636999999999993  0.0778  0.41037  1.0000
  C   C86       1.0  0.34204000000000007  0.11857999999999998  0.40667  1.0000
  C   C87       1.0  0.3933700000000001  0.12394999999999998  0.43205  1.0000
  C   C88       1.0  0.42128000000000004  0.08868  0.46186999999999995  1.0000
  C   C89       1.0  0.39623000000000014  0.048489999999999985  0.46605  1.0000
  C   C90       1.0  0.34365000000000007  0.04216  0.44101  1.0000
  C   C91       1.0  0.31808000000000014  0.9993099999999999  0.44874  1.0000
  C   C92       1.0  0.19596  0.94597  0.41419  1.0000
  C   C93       1.0  0.16166000000000008  0.9047399999999998  0.42333000000000004  1.0000
  C   C94       1.0  0.13127  0.89322  0.38417  1.0000
  C   C95       1.0  0.3680100000000003  0.8242299999999998  0.47129  1.0000
  C   C96       1.0  0.44181999999999994  0.79288  0.44555  1.0000
  C   C97       1.0  0.44890999999999986  0.74588  0.44393  1.0000
  C   C98       1.0  0.38244999999999996  0.7282799999999999  0.4678  1.0000
  C   C99       1.0  0.30943  0.75855  0.49315  1.0000
  C   C100      1.0  0.3004499999999999  0.80646  0.49597  1.0000
  C   C101      1.0  0.22347000000000003  0.8354699999999999  0.52588  1.0000
  C   C102      1.0  0.13451000000000002  0.94792  0.56617  1.0000
  C   C103      1.0  0.06110000000000002  0.9785  0.60024  1.0000
  C   C104      1.0  0.08579999999999997  0.01013  0.62752  1.0000
  C   C105      1.0  0.34220000000000017  0.9495399999999999  0.5819  1.0000
  C   C106      1.0  0.3716300000000002  0.9471299999999998  0.62039  1.0000
  C   C107      1.0  0.4038299999999999  0.9038  0.63871  1.0000
  C   C108      1.0  0.40323000000000003  0.8645099999999998  0.61715  1.0000
  C   C109      1.0  0.37282  0.8697599999999999  0.57872  1.0000
  C   C110      1.0  0.43892000000000014  0.8986999999999998  0.67949  1.0000
  C   C111      1.0  0.9816600000000001  0.15095  0.31620000000000004  1.0000
  C   C112      1.0  0.95683  0.17595999999999998  0.2785  1.0000
  C   C113      1.0  0.010100000000000022  0.17023999999999995  0.2338  1.0000
  C   C114      1.0  0.08980000000000003  0.13905999999999993  0.22477  1.0000
  C   C115      1.0  0.11486000000000002  0.11400999999999999  0.2613  1.0000
  C   C116      1.0  0.06274000000000002  0.11927  0.3072  1.0000
  C   C117      1.0  0.0951  0.09262999999999998  0.34376  1.0000
  C   C118      1.0  0.04832999999999999  0.08683999999999997  0.4634  1.0000
  C   C119      1.0  0.08380000000000003  0.06611  0.50255  1.0000
  C   C120      1.0  0.12014999999999999  0.09964999999999997  0.52007  1.0000
  C   C121      1.0  0.6292800000000001  0.9164  0.75344  1.0000
  C   C122      1.0  0.59476  0.92411  0.71641  1.0000
  C   C123      1.0  0.50943  0.9313999999999999  0.72503  1.0000
  C   C124      1.0  0.46265  0.92972  0.77127  1.0000
  C   C125      1.0  0.5019000000000002  0.9215799999999998  0.80628  1.0000
  C   C126      1.0  0.4695199999999999  0.9399399999999999  0.6861000000000002  1.0000
  C   C127      1.0  0.80478  0.42195  0.08943999999999999  1.0000
  C   C128      1.0  0.8678099999999999  0.38123  0.09313  1.0000
  C   C129      1.0  0.9499  0.376  0.06779  1.0000
  C   C130      1.0  0.97215  0.41139  0.03809  1.0000
  C   C131      1.0  0.9108800000000001  0.4515099999999999  0.03399  1.0000
  C   C132      1.0  0.82697  0.45767999999999986  0.05894  1.0000
  C   C133      1.0  0.7663200000000001  0.50064  0.05132  1.0000
  C   C134      1.0  0.55608  0.55387  0.08588  1.0000
  C   C135      1.0  0.4897599999999999  0.59515  0.0768  1.0000
  C   C136      1.0  0.4087  0.60671  0.11596  1.0000
  C   C137      1.0  0.66268  0.6759  0.0287  1.0000
  C   C138      1.0  0.6796500000000001  0.7072899999999998  0.05427  1.0000
  C   C139      1.0  0.6380899999999999  0.7543  0.05578  1.0000
  C   C140      1.0  0.5777400000000001  0.77185  0.03197  1.0000
  C   C141      1.0  0.56026  0.74153  0.00672  1.0000
  C   C142      1.0  0.6020900000000001  0.6936299999999997  0.004  1.0000
  C   C143      1.0  0.58434  0.66447  0.97413  1.0000
  C   C144      1.0  0.6486099999999998  0.55205  0.93382  1.0000
  C   C145      1.0  0.6397199999999998  0.52152  0.89977  1.0000
  C   C146      1.0  0.72338  0.4899099999999999  0.87255  1.0000
  C   C147      1.0  0.8738200000000004  0.5504  0.91804  1.0000
  C   C148      1.0  0.93943  0.55283  0.8796  1.0000
  C   C149      1.0  0.94656  0.59615  0.86126  1.0000
  C   C150      1.0  0.8850299999999999  0.63544  0.88283  1.0000
  C   C151      1.0  0.8213700000000003  0.63016  0.92121  1.0000
  C   C152      1.0  0.017260000000000022  0.6013  0.82046  1.0000
  C   C153      1.0  0.44898000000000005  0.34917  0.18368  1.0000
  C   C154      1.0  0.41136000000000006  0.3241999999999999  0.22136  1.0000
  C   C155      1.0  0.41420999999999997  0.32989  0.26607  1.0000
  C   C156      1.0  0.45387000000000005  0.36095  0.27515  1.0000
  C   C157      1.0  0.4905100000000001  0.3859499999999999  0.23864  1.0000
  C   C158      1.0  0.4895300000000001  0.38075  0.19272  1.0000
  C   C159      1.0  0.53207  0.40733  0.15619  1.0000
  C   C160      1.0  0.59872  0.41310999999999987  0.03641  1.0000
  C   C161      1.0  0.65271  0.4337699999999999  0.99725  1.0000
  C   C162      1.0  0.74016  0.40026  0.9798099999999998  1.0000
  C   C163      1.0  0.29944000000000026  0.58362  0.74661  1.0000
  C   C164      1.0  0.2354  0.57606  0.78356  1.0000
  C   C165      1.0  0.16606999999999994  0.56874  0.77488  1.0000
  C   C166      1.0  0.16397  0.5705  0.72863  1.0000
  C   C167      1.0  0.2302200000000001  0.57849  0.6936399999999999  1.0000
  C   C168      1.0  0.09580999999999999  0.56012  0.81377  1.0000
  C   C169      1.0  0.2738499999999999  0.91042  0.92191  1.0000
  C   C170      1.0  0.25182999999999994  0.90666  0.88113  1.0000
  C   C171      1.0  0.17495000000000002  0.9318999999999997  0.87587  1.0000
  C   C172      1.0  0.11714999999999992  0.9616199999999998  0.91123  1.0000
  C   C173      1.0  0.13806000000000002  0.9658399999999998  0.95141  1.0000
  C   C174      1.0  0.21580999999999992  0.94094  0.95764  1.0000
  C   C175      1.0  0.23355000000000006  0.94856  0.0005799999999999999  1.0000
  C   C176      1.0  0.39036  0.9141  0.05389  1.0000
  C   C177      1.0  0.41517999999999994  0.9232299999999998  0.09523  1.0000
  C   C178      1.0  0.48468  0.8840899999999998  0.10682  1.0000
  C   C179      1.0  0.16125999999999996  0.97136  0.17576  1.0000
  C   C180      1.0  0.11304  0.94574  0.20711  1.0000
  C   C181      1.0  0.10766999999999996  0.94421  0.2541  1.0000
  C   C182      1.0  0.15038000000000004  0.96807  0.27167  1.0000
  C   C183      1.0  0.19816  0.99328  0.24135  1.0000
  C   C184      1.0  0.20429999999999998  0.99599  0.19347  1.0000
  C   C185      1.0  0.25155  0.02571  0.16439  1.0000
  C   C186      1.0  0.29922  0.06618  0.05201999999999999  1.0000
  C   C187      1.0  0.33856  0.10024999999999998  0.02151  1.0000
  C   C188      1.0  0.2866200000000002  0.12749  0.98988  1.0000
  C   C189      1.0  0.07602000000000002  0.08178  0.05047  1.0000
  C   C190      1.0  0.008030000000000016  0.12024999999999997  0.05292  1.0000
  C   C191      1.0  0.9575  0.13864  0.09623  1.0000
  C   C192      1.0  0.97962  0.11707999999999998  0.1355  1.0000
  C   C193      1.0  0.04851000000000002  0.07866  0.13025  1.0000
  C   C194      1.0  0.88163  0.17944  0.10131  1.0000
  C   C195      1.0  0.7024099999999999  0.81629  0.84908  1.0000
  C   C196      1.0  0.76492  0.7786  0.82396  1.0000
  C   C197      1.0  0.75645  0.73388  0.82955  1.0000
  C   C198      1.0  0.6858900000000001  0.7247599999999998  0.86071  1.0000
  C   C199      1.0  0.6243300000000002  0.7612599999999999  0.88588  1.0000
  C   C200      1.0  0.63042  0.8071899999999999  0.88069  1.0000
  C   C201      1.0  0.5613500000000001  0.8437199999999998  0.90733  1.0000
  C   C202      1.0  0.48801000000000005  0.9634399999999997  0.91323  1.0000
  C   C203      1.0  0.41334  0.0026  0.934  1.0000
  C   C204      1.0  0.35949000000000003  0.02012  0.90046  1.0000
  C   C205      1.0  0.61733  0.25344  0.08358  1.0000
  C   C206      1.0  0.68888  0.21637  0.07593  1.0000
  C   C207      1.0  0.7656099999999999  0.22495  0.0686  1.0000
  C   C208      1.0  0.76616  0.2712  0.07029  1.0000
  C   C209      1.0  0.69192  0.30626  0.07837  1.0000
  C   C210      1.0  0.8444599999999999  0.18599  0.060059999999999995  1.0000
  C   C211      1.0  0.10592000000000001  0.58956  0.57818  1.0000
  C   C212      1.0  0.039340000000000035  0.59331  0.61893  1.0000
  C   C213      1.0  0.98254  0.56803  0.6241099999999999  1.0000
  C   C214      1.0  0.98982  0.53832  0.58874  1.0000
  C   C215      1.0  0.05514000000000007  0.53413  0.54862  1.0000
  C   C216      1.0  0.11415000000000004  0.5590299999999998  0.54247  1.0000
  C   C217      1.0  0.18233000000000005  0.55138  0.49951  1.0000
  C   C218      1.0  0.3578600000000001  0.5857999999999998  0.44611  1.0000
  C   C219      1.0  0.43312  0.57667  0.40476  1.0000
  C   C220      1.0  0.47504999999999986  0.6158  0.39331  1.0000
  C   C221      1.0  0.30801  0.52867  0.32419  1.0000
  C   C222      1.0  0.26545  0.55425  0.29285  1.0000
  C   C223      1.0  0.30549  0.55584  0.24588  1.0000
  C   C224      1.0  0.38967  0.53207  0.2283  1.0000
  C   C225      1.0  0.4324299999999999  0.50678  0.25857  1.0000
  C   C226      1.0  0.39335999999999993  0.50401  0.30645  1.0000
  C   C227      1.0  0.44107999999999997  0.47418  0.33556  1.0000
  C   C228      1.0  0.41708  0.43383999999999995  0.44799  1.0000
  C   C229      1.0  0.46005000000000007  0.39984999999999987  0.47855  1.0000
  C   C230      1.0  0.40375999999999995  0.37262  0.51017  1.0000
  C   C231      1.0  0.20808000000000001  0.41814  0.44959  1.0000
  C   C232      1.0  0.1811599999999999  0.3796199999999999  0.44714  1.0000
  C   C233      1.0  0.19238  0.36123  0.40382  1.0000
  C   C234      1.0  0.23220999999999994  0.38279  0.36455  1.0000
  C   C235      1.0  0.25725000000000003  0.42126  0.36984  1.0000
  C   C236      1.0  0.16240999999999997  0.32043  0.3987  1.0000
  C   C237      1.0  0.3681000000000002  0.6836799999999997  0.6508  1.0000
  C   C238      1.0  0.3677600000000002  0.72144  0.67584  1.0000
  C   C239      1.0  0.3199900000000003  0.7661099999999997  0.67018  1.0000
  C   C240      1.0  0.2713500000000001  0.7750699999999998  0.6390699999999999  1.0000
  C   C241      1.0  0.27143000000000006  0.7384799999999998  0.61405  1.0000
  C   C242      1.0  0.31848000000000004  0.69262  0.61923  1.0000
  C   C243      1.0  0.3124  0.65612  0.59261  1.0000
  C   C244      1.0  0.36555  0.5363599999999998  0.58678  1.0000
  C   C245      1.0  0.35046  0.49723  0.56617  1.0000
  C   C246      1.0  0.28029000000000004  0.4800299999999999  0.59976  1.0000
  C   C247      1.0  0.9539600000000001  0.24668  0.41653999999999997  1.0000
  C   C248      1.0  0.98105  0.28366  0.42408  1.0000
  C   C249      1.0  0.05912000000000002  0.27496999999999994  0.43135  1.0000
  C   C250      1.0  0.10746000000000003  0.22868999999999995  0.42967  1.0000
  C   C251      1.0  0.07612  0.19370999999999994  0.4217000000000001  1.0000
  C   C252      1.0  0.09057000000000005  0.31386  0.43992  1.0000
  C   C253      1.0  0.6836299999999998  0.9222  0.58963  1.0000
  C   C254      1.0  0.6579700000000002  0.88142  0.59333  1.0000
  C   C255      1.0  0.60664  0.8760499999999998  0.56795  1.0000
  C   C256      1.0  0.5787199999999999  0.91132  0.53813  1.0000
  C   C257      1.0  0.6037800000000001  0.9515099999999997  0.53395  1.0000
  C   C258      1.0  0.6563500000000002  0.9578399999999998  0.55899  1.0000
  C   C259      1.0  0.6819299999999999  0.00069  0.55126  1.0000
  C   C260      1.0  0.8040500000000002  0.05403999999999999  0.58581  1.0000
  C   C261      1.0  0.8383399999999998  0.09525999999999997  0.57667  1.0000
  C   C262      1.0  0.8687300000000001  0.10677999999999997  0.61583  1.0000
  C   C263      1.0  0.6319999999999999  0.17577  0.52871  1.0000
  C   C264      1.0  0.5581900000000001  0.20712  0.55445  1.0000
  C   C265      1.0  0.5511000000000003  0.25412  0.5560699999999998  1.0000
  C   C266      1.0  0.6175599999999999  0.27173  0.5322  1.0000
  C   C267      1.0  0.6905800000000001  0.24145  0.50685  1.0000
  C   C268      1.0  0.6995599999999998  0.19354  0.50403  1.0000
  C   C269      1.0  0.77654  0.16453  0.47412  1.0000
  C   C270      1.0  0.8655  0.05208  0.43383000000000005  1.0000
  C   C271      1.0  0.9388999999999998  0.02149999999999999  0.39976  1.0000
  C   C272      1.0  0.9142100000000002  0.9898699999999998  0.37249  1.0000
  C   C273      1.0  0.65781  0.05047  0.4181  1.0000
  C   C274      1.0  0.62837  0.052869999999999986  0.37961  1.0000
  C   C275      1.0  0.59618  0.09621  0.36129  1.0000
  C   C276      1.0  0.59677  0.1355  0.38285  1.0000
  C   C277      1.0  0.62719  0.13024  0.42128  1.0000
  C   C278      1.0  0.56108  0.1013  0.32051  1.0000
  C   C279      1.0  0.018350000000000144  0.8490599999999998  0.6838  1.0000
  C   C280      1.0  0.04318000000000018  0.8240399999999998  0.7215  1.0000
  C   C281      1.0  0.98991  0.82976  0.7662  1.0000
  C   C282      1.0  0.9102100000000002  0.8609499999999998  0.77523  1.0000
  C   C283      1.0  0.88515  0.88599  0.7387  1.0000
  C   C284      1.0  0.9372700000000002  0.8807299999999998  0.69281  1.0000
  C   C285      1.0  0.90491  0.90738  0.65624  1.0000
  C   C286      1.0  0.95168  0.9131599999999997  0.5366  1.0000
  C   C287      1.0  0.9161999999999999  0.9339  0.49744999999999995  1.0000
  C   C288      1.0  0.8798499999999999  0.90035  0.47993  1.0000
  C   C289      1.0  0.37071999999999994  0.0836  0.24656  1.0000
  C   C290      1.0  0.40524999999999994  0.07589  0.28359  1.0000
  C   C291      1.0  0.49057  0.0686  0.27497  1.0000
  C   C292      1.0  0.53736  0.07028  0.22873  1.0000
  C   C293      1.0  0.49811  0.07842  0.19372  1.0000
  C   C294      1.0  0.53049  0.060059999999999995  0.3139  1.0000
  C   C295      1.0  0.1952299999999999  0.57805  0.91056  1.0000
  C   C296      1.0  0.13219999999999993  0.61877  0.90687  1.0000
  C   C297      1.0  0.05011000000000003  0.6239999999999999  0.93221  1.0000
  C   C298      1.0  0.027860000000000072  0.5886199999999999  0.96191  1.0000
  C   C299      1.0  0.0891300000000002  0.5484999999999999  0.96601  1.0000
  C   C300      1.0  0.17303999999999997  0.54232  0.94106  1.0000
  C   C301      1.0  0.23369000000000006  0.49936  0.94868  1.0000
  C   C302      1.0  0.44393  0.4461399999999999  0.91412  1.0000
  C   C303      1.0  0.5102500000000001  0.40485  0.9232  1.0000
  C   C304      1.0  0.59131  0.39328999999999986  0.88404  1.0000
  C   C305      1.0  0.33732  0.3241  0.9713  1.0000
  C   C306      1.0  0.3203599999999999  0.2927099999999999  0.94573  1.0000
  C   C307      1.0  0.36192000000000013  0.24569999999999995  0.9442199999999998  1.0000
  C   C308      1.0  0.42227  0.22815  0.96803  1.0000
  C   C309      1.0  0.43974  0.25847  0.9932800000000002  1.0000
  C   C310      1.0  0.39792000000000005  0.30638  0.996  1.0000
  C   C311      1.0  0.41566  0.33553  0.02587  1.0000
  C   C312      1.0  0.35139000000000004  0.4479599999999999  0.06618  1.0000
  C   C313      1.0  0.3602800000000001  0.4784899999999999  0.10024  1.0000
  C   C314      1.0  0.27663  0.51009  0.12745  1.0000
  C   C315      1.0  0.12618000000000001  0.4496  0.08196  1.0000
  C   C316      1.0  0.06058000000000003  0.44717999999999997  0.1204  1.0000
  C   C317      1.0  0.05345000000000003  0.4038499999999999  0.13874  1.0000
  C   C318      1.0  0.11498000000000003  0.36456  0.11717  1.0000
  C   C319      1.0  0.17863  0.36984  0.07879  1.0000
  C   C320      1.0  0.9827499999999999  0.39871  0.17955  1.0000
  C   C321      1.0  0.5510200000000002  0.6508299999999998  0.81632  1.0000
  C   C322      1.0  0.58864  0.6758099999999998  0.7786400000000001  1.0000
  C   C323      1.0  0.5858  0.67011  0.73393  1.0000
  C   C324      1.0  0.54613  0.63905  0.72485  1.0000
  C   C325      1.0  0.5095000000000001  0.6140499999999999  0.76136  1.0000
  C   C326      1.0  0.5104800000000005  0.61925  0.80728  1.0000
  C   C327      1.0  0.4679400000000002  0.59267  0.84381  1.0000
  C   C328      1.0  0.4012900000000001  0.5869  0.9635899999999998  1.0000
  C   C329      1.0  0.34730000000000005  0.5662299999999999  0.00275  1.0000
  C   C330      1.0  0.25984  0.59974  0.02019  1.0000
  C   C331      1.0  0.7005599999999996  0.41638  0.25339  1.0000
  C   C332      1.0  0.7646  0.4239499999999999  0.21644  1.0000
  C   C333      1.0  0.8339400000000002  0.43125999999999987  0.22512  1.0000
  C   C334      1.0  0.8360400000000001  0.4294999999999999  0.27137  1.0000
  C   C335      1.0  0.76978  0.42150999999999994  0.30636  1.0000
  C   C336      1.0  0.9042000000000001  0.4398799999999999  0.18623  1.0000
  N   N1        1.0  0.6922900000000001  0.07381  0.9926399999999999  1.0000
  N   N2        1.0  0.68281  0.06255  0.9508  1.0000
  N   N3        1.0  0.74418  0.96941  0.88089  1.0000
  N   N4        1.0  0.7044800000000001  0.93637  0.90367  1.0000
  N   N5        1.0  0.9041599999999999  0.93915  0.91162  1.0000
  N   N6        1.0  0.43912999999999996  0.1117  0.09987  1.0000
  N   N7        1.0  0.5111599999999997  0.07976  0.07415  1.0000
  N   N8        1.0  0.38171000000000016  0.7021699999999997  0.91554  1.0000
  N   N9        1.0  0.7588000000000001  0.42652  0.50711  1.0000
  N   N10       1.0  0.69661  0.4375799999999999  0.5491  1.0000
  N   N11       1.0  0.5950500000000001  0.53063  0.61914  1.0000
  N   N12       1.0  0.54519  0.56384  0.59641  1.0000
  N   N13       1.0  0.7551499999999999  0.5609  0.58829  1.0000
  N   N14       1.0  0.6502700000000003  0.38842  0.4003  1.0000
  N   N15       1.0  0.66469  0.42049  0.42583  1.0000
  N   N16       1.0  0.9999100000000002  0.79774  0.58434  1.0000
  N   N17       1.0  0.26599000000000006  0.99266  0.42651  1.0000
  N   N18       1.0  0.24534000000000017  0.9508  0.43775  1.0000
  N   N19       1.0  0.21396000000000004  0.88081  0.53067  1.0000
  N   N20       1.0  0.14118  0.90352  0.56379  1.0000
  N   N21       1.0  0.34331  0.9116299999999998  0.56092  1.0000
  N   N22       1.0  0.05089000000000001  0.09990999999999997  0.38830999999999993  1.0000
  N   N23       1.0  0.09096999999999998  0.0742  0.42023  1.0000
  N   N24       1.0  0.5839800000000002  0.91542  0.79782  1.0000
  N   N25       1.0  0.68537  0.50734  0.07365  1.0000
  N   N26       1.0  0.6339399999999998  0.54918  0.06249  1.0000
  N   N27       1.0  0.6251300000000002  0.6191299999999997  0.96943  1.0000
  N   N28       1.0  0.60828  0.5964  0.9363  1.0000
  N   N29       1.0  0.8159199999999999  0.58829  0.93899  1.0000
  N   N30       1.0  0.53943  0.40016  0.11163  1.0000
  N   N31       1.0  0.58596  0.42564  0.07958  1.0000
  N   N32       1.0  0.29772  0.5845199999999998  0.70219  1.0000
  N   N33       1.0  0.30772  0.92619  0.00736  1.0000
  N   N34       1.0  0.31719999999999987  0.93746  0.0492  1.0000
  N   N35       1.0  0.25583  0.03059  0.11911  1.0000
  N   N36       1.0  0.29552  0.06363  0.09633  1.0000
  N   N37       1.0  0.09585000000000005  0.06085  0.08838  1.0000
  N   N38       1.0  0.5608800000000002  0.8882999999999998  0.90013  1.0000
  N   N39       1.0  0.48884  0.92024  0.92585  1.0000
  N   N40       1.0  0.6183  0.29783  0.08446  1.0000
  N   N41       1.0  0.24121000000000004  0.57348  0.49289  1.0000
  N   N42       1.0  0.3034000000000001  0.5624199999999998  0.4509  1.0000
  N   N43       1.0  0.40495999999999993  0.46937  0.38086  1.0000
  N   N44       1.0  0.45481000000000005  0.43615999999999994  0.40358999999999995  1.0000
  N   N45       1.0  0.24485000000000004  0.4390999999999999  0.41171  1.0000
  N   N46       1.0  0.34974000000000016  0.6115799999999998  0.5997  1.0000
  N   N47       1.0  0.33531000000000005  0.57951  0.57417  1.0000
  N   N48       1.0  0.00010000000000003286  0.20225999999999994  0.41566  1.0000
  N   N49       1.0  0.7340200000000001  0.007349999999999998  0.57349  1.0000
  N   N50       1.0  0.7546699999999998  0.049199999999999994  0.56225  1.0000
  N   N51       1.0  0.78604  0.11919  0.46933  1.0000
  N   N52       1.0  0.8588300000000001  0.09649  0.43621  1.0000
  N   N53       1.0  0.6566999999999998  0.08837  0.43908  1.0000
  N   N54       1.0  0.94912  0.90009  0.61169  1.0000
  N   N55       1.0  0.9090400000000001  0.9257999999999997  0.57977  1.0000
  N   N56       1.0  0.41601999999999995  0.08459  0.20218  1.0000
  N   N57       1.0  0.3146300000000001  0.4926599999999999  0.92635  1.0000
  N   N58       1.0  0.36607000000000006  0.4508199999999999  0.93751  1.0000
  N   N59       1.0  0.37488  0.38087  0.03057  1.0000
  N   N60       1.0  0.39171999999999996  0.4036  0.0637  1.0000
  N   N61       1.0  0.18408999999999995  0.41171  0.06101  1.0000
  N   N62       1.0  0.46058  0.59985  0.88837  1.0000
  N   N63       1.0  0.41405  0.57436  0.92042  1.0000
  N   N64       1.0  0.7022900000000001  0.4154899999999999  0.29781  1.0000
  O   O1        1.0  0.65164  0.11591999999999997  0.07571  1.0000
  O   O2        1.0  0.8217300000000001  0.02258  0.96893  1.0000
  O   O3        1.0  0.5569899999999999  0.11613999999999997  0.97771  1.0000
  O   O4        1.0  0.8373  0.029139999999999992  0.86865  1.0000
  O   O5        1.0  0.7126500000000001  0.9517399999999998  0.81706  1.0000
  O   O6        1.0  0.73134  0.96014  0.96637  1.0000
  O   O7        1.0  0.2843  0.14205999999999994  0.15827  1.0000
  O   O8        1.0  0.5006  0.16716  0.06256  1.0000
  O   O9        1.0  0.45041999999999993  0.027119999999999995  0.11846999999999999  1.0000
  O   O10       1.0  0.8435900000000001  0.38409  0.42421000000000003  1.0000
  O   O11       1.0  0.8140000000000001  0.4772099999999999  0.53112  1.0000
  O   O12       1.0  0.65133  0.38401  0.52223  1.0000
  O   O13       1.0  0.73531  0.47081  0.6313899999999999  1.0000
  O   O14       1.0  0.4821499999999999  0.5486  0.68298  1.0000
  O   O15       1.0  0.658  0.53962  0.53354  1.0000
  O   O16       1.0  0.5841000000000001  0.35791  0.34179  1.0000
  O   O17       1.0  0.7309000000000001  0.3329799999999999  0.43727  1.0000
  O   O18       1.0  0.59474  0.4729399999999999  0.38168  1.0000
  O   O19       1.0  0.26837  0.07545999999999997  0.38392  1.0000
  O   O20       1.0  0.3445900000000001  0.9688099999999997  0.47751999999999994  1.0000
  O   O21       1.0  0.1741100000000001  0.9774899999999997  0.38378  1.0000
  O   O22       1.0  0.3672099999999999  0.86862  0.47091  1.0000
  O   O23       1.0  0.16538999999999995  0.81689  0.54867  1.0000
  O   O24       1.0  0.19105  0.96637  0.53966  1.0000
  O   O25       1.0  0.9267499999999999  0.15844  0.35783  1.0000
  O   O26       1.0  0.16792000000000007  0.062429999999999986  0.33293  1.0000
  O   O27       1.0  0.9771800000000002  0.11849999999999998  0.47279  1.0000
  O   O28       1.0  0.7279  0.42425  0.11576  1.0000
  O   O29       1.0  0.79115  0.53112  0.02254  1.0000
  O   O30       1.0  0.53512  0.52228  0.1161  1.0000
  O   O31       1.0  0.7054400000000001  0.63146  0.02925  1.0000
  O   O32       1.0  0.53055  0.683  0.95124  1.0000
  O   O33       1.0  0.69735  0.53362  0.96023  1.0000
  O   O34       1.0  0.44309000000000004  0.3416799999999999  0.14206  1.0000
  O   O35       1.0  0.56427  0.4373099999999999  0.16707  1.0000
  O   O36       1.0  0.56818  0.38163  0.02706  1.0000
  O   O37       1.0  0.3483700000000002  0.8840799999999998  0.92429  1.0000
  O   O38       1.0  0.17827000000000012  0.9774199999999997  0.03107  1.0000
  O   O39       1.0  0.44302000000000014  0.8838599999999998  0.02229  1.0000
  O   O40       1.0  0.16270000000000015  0.9708599999999997  0.13135  1.0000
  O   O41       1.0  0.28736  0.04825999999999998  0.18294  1.0000
  O   O42       1.0  0.26867  0.03986  0.03363  1.0000
  O   O43       1.0  0.71571  0.85794  0.84173  1.0000
  O   O44       1.0  0.49941  0.8328399999999998  0.93744  1.0000
  O   O45       1.0  0.5495800000000001  0.9728799999999997  0.88153  1.0000
  O   O46       1.0  0.15642000000000003  0.61592  0.57579  1.0000
  O   O47       1.0  0.18600000000000003  0.52279  0.46888  1.0000
  O   O48       1.0  0.34868000000000005  0.61599  0.4777699999999999  1.0000
  O   O49       1.0  0.26469000000000004  0.52919  0.36861  1.0000
  O   O50       1.0  0.51785  0.4513999999999999  0.31701999999999997  1.0000
  O   O51       1.0  0.34201  0.46038  0.46646  1.0000
  O   O52       1.0  0.41591000000000017  0.6420999999999998  0.65821  1.0000
  O   O53       1.0  0.2691099999999999  0.66703  0.56273  1.0000
  O   O54       1.0  0.40526999999999996  0.5270699999999999  0.6183200000000001  1.0000
  O   O55       1.0  0.7316300000000001  0.92454  0.61608  1.0000
  O   O56       1.0  0.65541  0.031189999999999992  0.52248  1.0000
  O   O57       1.0  0.8259000000000001  0.02251  0.61622  1.0000
  O   O58       1.0  0.6328  0.13138  0.52909  1.0000
  O   O59       1.0  0.8346200000000001  0.18311  0.45133  1.0000
  O   O60       1.0  0.80895  0.03363  0.46034  1.0000
  O   O61       1.0  0.07325000000000015  0.8415699999999998  0.64217  1.0000
  O   O62       1.0  0.8320899999999998  0.9375699999999998  0.66707  1.0000
  O   O63       1.0  0.02282000000000004  0.8814999999999998  0.52721  1.0000
  O   O64       1.0  0.2721  0.57575  0.88424  1.0000
  O   O65       1.0  0.2088500000000001  0.4688799999999999  0.97746  1.0000
  O   O66       1.0  0.46488000000000046  0.47773  0.8839  1.0000
  O   O67       1.0  0.29456000000000004  0.36854  0.97075  1.0000
  O   O68       1.0  0.46946  0.317  0.04876  1.0000
  O   O69       1.0  0.30266  0.46638  0.03977  1.0000
  O   O70       1.0  0.5569199999999999  0.6583199999999998  0.85794  1.0000
  O   O71       1.0  0.43574  0.56269  0.83293  1.0000
  O   O72       1.0  0.4318200000000001  0.61837  0.97294  1.0000
