data_image0
_chemical_formula_structural       Cu24H192C480O96
_chemical_formula_sum              "Cu24 H192 C480 O96"
_cell_length_a       42.5525
_cell_length_b       42.55441
_cell_length_c       42.55465
_cell_angle_alpha    59.9367
_cell_angle_beta     59.93867000000001
_cell_angle_gamma    59.938489999999994

_symmetry_space_group_name_H-M    'P 1'
_symmetry_Int_Tables_number       1

loop_
  _symmetry_equiv_pos_as_xyz
  'x,y,z'

loop_
  _atom_site_type_symbol
  _atom_site_label
  _atom_site_symmetry_multiplicity
  _atom_site_fract_x
  _atom_site_fract_y
  _atom_site_fract_z
  _atom_site_occupancy
  Cu  Cu1       1.0  0.80854  9.9999999999948e-06  0.19146  1.0000
  Cu  Cu2       1.0  0.7510000000000001  0.9999899999999999  0.24899999999999997  1.0000
  Cu  Cu3       1.0  0.99995  0.8085600000000001  0.9999299999999999  1.0000
  Cu  Cu4       1.0  4.99999999999992e-05  0.75097  6.000000000000001e-05  1.0000
  Cu  Cu5       1.0  5.000000000004095e-05  0.19143999999999994  7e-05  1.0000
  Cu  Cu6       1.0  0.99995  0.24903  0.99994  1.0000
  Cu  Cu7       1.0  0.19146000000000016  0.9999899999999999  0.80854  1.0000
  Cu  Cu8       1.0  0.249  1.0000000000006858e-05  0.75099  1.0000
  Cu  Cu9       1.0  0.0  0.80855  0.19145  1.0000
  Cu  Cu10      1.0  1.6698025633278894e-16  0.7509999999999998  0.24899999999999997  1.0000
  Cu  Cu11      1.0  0.19144  5.9999999999999995e-05  6.000000000000001e-05  1.0000
  Cu  Cu12      1.0  0.24903  0.9999499999999997  0.9999500000000001  1.0000
  Cu  Cu13      1.0  0.8085600000000001  0.9999399999999999  0.99994  1.0000
  Cu  Cu14      1.0  0.75097  5e-05  5e-05  1.0000
  Cu  Cu15      1.0  2.0872532041598617e-17  0.19145000000000006  0.80854  1.0000
  Cu  Cu16      1.0  0.0  0.24900000000000003  0.751  1.0000
  Cu  Cu17      1.0  5.000000000000785e-05  6.999999999999978e-05  0.19144  1.0000
  Cu  Cu18      1.0  0.99995  0.9999399999999999  0.24903  1.0000
  Cu  Cu19      1.0  0.80854  0.19146  9.999999999999999e-06  1.0000
  Cu  Cu20      1.0  0.751  0.24900000000000008  0.9999899999999999  1.0000
  Cu  Cu21      1.0  0.19146000000000007  0.80855  0.9999899999999999  1.0000
  Cu  Cu22      1.0  0.24900000000000014  0.7509999999999998  9.999999999999999e-06  1.0000
  Cu  Cu23      1.0  0.9999500000000004  0.9999300000000001  0.8085599999999997  1.0000
  Cu  Cu24      1.0  4.999999999993253e-05  5.9999999999992914e-05  0.75097  1.0000
  H   H1        1.0  0.7789699999999998  0.88067  0.32001  1.0000
  H   H2        1.0  0.71691  0.81831  0.43689  1.0000
  H   H3        1.0  0.6817600000000001  0.7831199999999997  0.50307  1.0000
  H   H4        1.0  0.8807199999999998  0.7789199999999998  0.02035  1.0000
  H   H5        1.0  0.81826  0.71683  0.027899999999999994  1.0000
  H   H6        1.0  0.7831999999999999  0.68181  0.03204  1.0000
  H   H7        1.0  0.020350000000000135  0.31994999999999985  0.88056  1.0000
  H   H8        1.0  0.027889999999999956  0.43687  0.81829  1.0000
  H   H9        1.0  0.03204999999999995  0.5030000000000001  0.7830799999999999  1.0000
  H   H10       1.0  0.32007  0.020350000000000017  0.77891  1.0000
  H   H11       1.0  0.4369799999999999  0.02788999999999998  0.71694  1.0000
  H   H12       1.0  0.5031099999999997  0.03204999999999999  0.68177  1.0000
  H   H13       1.0  0.02035000000000001  0.7789  0.32006999999999997  1.0000
  H   H14       1.0  0.02789000000000004  0.7169399999999999  0.43699  1.0000
  H   H15       1.0  0.03206000000000013  0.6817699999999998  0.50312  1.0000
  H   H16       1.0  0.31997  0.88058  0.02035  1.0000
  H   H17       1.0  0.43687999999999994  0.81829  0.02788  1.0000
  H   H18       1.0  0.5030000000000001  0.7830799999999999  0.03205  1.0000
  H   H19       1.0  0.7789099999999999  0.020350000000000017  0.88072  1.0000
  H   H20       1.0  0.7168199999999999  0.027899999999999987  0.81825  1.0000
  H   H21       1.0  0.6818  0.03203999999999998  0.7832  1.0000
  H   H22       1.0  0.88069  0.32001999999999997  0.77894  1.0000
  H   H23       1.0  0.81831  0.4369  0.7169  1.0000
  H   H24       1.0  0.7831100000000002  0.50308  0.68175  1.0000
  H   H25       1.0  0.88058  0.020350000000000004  0.31996  1.0000
  H   H26       1.0  0.81829  0.027879999999999995  0.43688  1.0000
  H   H27       1.0  0.78309  0.032040000000000006  0.50299  1.0000
  H   H28       1.0  0.7788999999999999  0.32007  0.02035  1.0000
  H   H29       1.0  0.71693  0.43699  0.02789  1.0000
  H   H30       1.0  0.6817700000000001  0.5031  0.03205  1.0000
  H   H31       1.0  0.32003000000000004  0.77894  0.88068  1.0000
  H   H32       1.0  0.4369100000000002  0.7168999999999999  0.81831  1.0000
  H   H33       1.0  0.50306  0.68176  0.78313  1.0000
  H   H34       1.0  0.02035000000000001  0.8807300000000001  0.7789  1.0000
  H   H35       1.0  0.027899999999999973  0.81826  0.71681  1.0000
  H   H36       1.0  0.03204000000000006  0.7832099999999999  0.6818  1.0000
  H   H37       1.0  0.22110000000000007  0.11928000000000005  0.97965  1.0000
  H   H38       1.0  0.28317999999999993  0.18174  0.9721  1.0000
  H   H39       1.0  0.3182099999999999  0.2168  0.9679600000000002  1.0000
  H   H40       1.0  0.11932000000000001  0.22106  0.67998  1.0000
  H   H41       1.0  0.18169000000000002  0.28308999999999984  0.5631  1.0000
  H   H42       1.0  0.21689000000000003  0.31824  0.49692  1.0000
  H   H43       1.0  0.9796500000000001  0.67994  0.2211  1.0000
  H   H44       1.0  0.97211  0.56302  0.28306  1.0000
  H   H45       1.0  0.96795  0.4968799999999999  0.31823  1.0000
  H   H46       1.0  0.6800300000000001  0.9796599999999999  0.11942  1.0000
  H   H47       1.0  0.56312  0.97212  0.18172  1.0000
  H   H48       1.0  0.4970000000000001  0.9679599999999999  0.21692  1.0000
  H   H49       1.0  0.9796499999999999  0.2211  0.11927  1.0000
  H   H50       1.0  0.9720999999999997  0.28319  0.18174  1.0000
  H   H51       1.0  0.96796  0.3182  0.21679  1.0000
  H   H52       1.0  0.67998  0.11931999999999998  0.22106  1.0000
  H   H53       1.0  0.56309  0.18168999999999993  0.2831  1.0000
  H   H54       1.0  0.49694  0.21687  0.31824  1.0000
  H   H55       1.0  0.22111000000000017  0.9796499999999997  0.67993  1.0000
  H   H56       1.0  0.28306999999999993  0.9721099999999999  0.56301  1.0000
  H   H57       1.0  0.31823  0.96795  0.4969  1.0000
  H   H58       1.0  0.11941999999999997  0.6800400000000001  0.97965  1.0000
  H   H59       1.0  0.18171  0.56312  0.9721100000000001  1.0000
  H   H60       1.0  0.21691000000000007  0.49700999999999995  0.9679499999999999  1.0000
  H   H61       1.0  0.11928000000000008  0.9796599999999999  0.22109  1.0000
  H   H62       1.0  0.1817400000000001  0.9721099999999999  0.28317999999999993  1.0000
  H   H63       1.0  0.21680000000000005  0.9679599999999999  0.3182  1.0000
  H   H64       1.0  0.22103  0.67999  0.11933  1.0000
  H   H65       1.0  0.28308999999999995  0.56311  0.18169  1.0000
  H   H66       1.0  0.3182400000000001  0.49693  0.21688  1.0000
  H   H67       1.0  0.6799300000000001  0.22109000000000004  0.97965  1.0000
  H   H68       1.0  0.5630200000000001  0.28305999999999987  0.9721100000000001  1.0000
  H   H69       1.0  0.49689  0.31823  0.9679499999999999  1.0000
  H   H70       1.0  0.9796499999999999  0.11943000000000005  0.6800399999999998  1.0000
  H   H71       1.0  0.97212  0.18170999999999993  0.56313  1.0000
  H   H72       1.0  0.96795  0.21692000000000003  0.497  1.0000
  H   H73       1.0  0.22104000000000001  0.11932999999999999  0.67999  1.0000
  H   H74       1.0  0.28309  0.18168999999999996  0.5631099999999999  1.0000
  H   H75       1.0  0.31824  0.21688  0.4969299999999999  1.0000
  H   H76       1.0  0.11928999999999998  0.22109000000000004  0.97965  1.0000
  H   H77       1.0  0.18173999999999996  0.28317999999999993  0.9721  1.0000
  H   H78       1.0  0.21679999999999994  0.3182  0.9679600000000002  1.0000
  H   H79       1.0  0.9796500000000001  0.6800499999999999  0.11942999999999998  1.0000
  H   H80       1.0  0.9721100000000001  0.56314  0.18171  1.0000
  H   H81       1.0  0.96795  0.49699999999999994  0.21692  1.0000
  H   H82       1.0  0.67993  0.9796499999999999  0.22109  1.0000
  H   H83       1.0  0.5630199999999999  0.9721099999999999  0.28306  1.0000
  H   H84       1.0  0.4968900000000001  0.96795  0.31823  1.0000
  H   H85       1.0  0.9796499999999999  0.2211  0.67993  1.0000
  H   H86       1.0  0.97211  0.28306  0.56301  1.0000
  H   H87       1.0  0.96795  0.31823  0.49687999999999993  1.0000
  H   H88       1.0  0.68004  0.11942000000000005  0.97965  1.0000
  H   H89       1.0  0.56313  0.18171999999999994  0.9721100000000001  1.0000
  H   H90       1.0  0.49699999999999994  0.21692000000000006  0.9679499999999999  1.0000
  H   H91       1.0  0.22110000000000007  0.9796599999999999  0.11928  1.0000
  H   H92       1.0  0.28318000000000004  0.9721099999999999  0.18174  1.0000
  H   H93       1.0  0.31821000000000005  0.9679599999999999  0.2168  1.0000
  H   H94       1.0  0.11931  0.67999  0.22105  1.0000
  H   H95       1.0  0.18168999999999996  0.5631  0.28309  1.0000
  H   H96       1.0  0.21689  0.49692  0.31824  1.0000
  H   H97       1.0  0.11942000000000014  0.9796599999999999  0.6800399999999998  1.0000
  H   H98       1.0  0.18171000000000004  0.97212  0.56312  1.0000
  H   H99       1.0  0.21691000000000016  0.9679599999999999  0.49701  1.0000
  H   H100      1.0  0.22111  0.67993  0.97965  1.0000
  H   H101      1.0  0.28306999999999966  0.56301  0.9721  1.0000
  H   H102      1.0  0.3182400000000001  0.49690000000000006  0.9679499999999999  1.0000
  H   H103      1.0  0.6799799999999999  0.22106  0.11932  1.0000
  H   H104      1.0  0.5630900000000001  0.2831  0.18169  1.0000
  H   H105      1.0  0.4969400000000001  0.31824  0.21687  1.0000
  H   H106      1.0  0.9796499999999999  0.11928  0.2211  1.0000
  H   H107      1.0  0.9720999999999997  0.18173999999999998  0.28319  1.0000
  H   H108      1.0  0.96796  0.21679000000000004  0.31819  1.0000
  H   H109      1.0  0.7788999999999999  0.88072  0.02035  1.0000
  H   H110      1.0  0.7168200000000001  0.81826  0.027899999999999994  1.0000
  H   H111      1.0  0.6817899999999998  0.7832  0.03204  1.0000
  H   H112      1.0  0.88069  0.7789499999999999  0.32001  1.0000
  H   H113      1.0  0.81831  0.71691  0.4369  1.0000
  H   H114      1.0  0.78311  0.68176  0.50308  1.0000
  H   H115      1.0  0.02034999999999997  0.3200700000000001  0.7789  1.0000
  H   H116      1.0  0.027899999999999973  0.43699  0.71694  1.0000
  H   H117      1.0  0.032060000000000005  0.5031199999999999  0.68177  1.0000
  H   H118      1.0  0.31997  0.02034999999999997  0.88057  1.0000
  H   H119      1.0  0.4368799999999999  0.02788000000000002  0.81828  1.0000
  H   H120      1.0  0.5030100000000001  0.03204000000000003  0.7830799999999999  1.0000
  H   H121      1.0  0.020350000000000094  0.7788999999999999  0.88072  1.0000
  H   H122      1.0  0.0279000000000001  0.7168099999999998  0.81826  1.0000
  H   H123      1.0  0.03204000000000006  0.6818099999999997  0.78321  1.0000
  H   H124      1.0  0.32001999999999997  0.88069  0.77894  1.0000
  H   H125      1.0  0.43691  0.81831  0.71689  1.0000
  H   H126      1.0  0.5030599999999997  0.78313  0.68176  1.0000
  H   H127      1.0  0.7788999999999999  0.020350000000000004  0.32006999999999997  1.0000
  H   H128      1.0  0.71693  0.02788999999999998  0.43699  1.0000
  H   H129      1.0  0.6817699999999999  0.03204999999999999  0.5031  1.0000
  H   H130      1.0  0.88058  0.31996  0.02035  1.0000
  H   H131      1.0  0.8182900000000001  0.43688  0.02789  1.0000
  H   H132      1.0  0.78309  0.50299  0.03204  1.0000
  H   H133      1.0  0.8807199999999997  0.020350000000000017  0.77891  1.0000
  H   H134      1.0  0.81827  0.027899999999999987  0.71682  1.0000
  H   H135      1.0  0.7831999999999999  0.03204000000000003  0.6818  1.0000
  H   H136      1.0  0.77897  0.32001  0.88067  1.0000
  H   H137      1.0  0.71691  0.43689  0.81831  1.0000
  H   H138      1.0  0.6817600000000001  0.5030699999999999  0.78311  1.0000
  H   H139      1.0  0.32007  0.77891  0.02035  1.0000
  H   H140      1.0  0.43698000000000004  0.71694  0.02789  1.0000
  H   H141      1.0  0.5031100000000002  0.68178  0.03205  1.0000
  H   H142      1.0  0.02035000000000001  0.8805699999999999  0.31995  1.0000
  H   H143      1.0  0.02789000000000004  0.81829  0.43687  1.0000
  H   H144      1.0  0.03205000000000007  0.7830799999999999  0.503  1.0000
  H   H145      1.0  0.88342  0.8834199999999999  0.22265  1.0000
  H   H146      1.0  0.8833099999999999  0.88331  0.010529999999999998  1.0000
  H   H147      1.0  0.0105  0.22266  0.88346  1.0000
  H   H148      1.0  0.22266999999999995  0.010500000000000015  0.88345  1.0000
  H   H149      1.0  0.0105  0.8834599999999999  0.22266  1.0000
  H   H150      1.0  0.2226700000000001  0.8834499999999998  0.0105  1.0000
  H   H151      1.0  0.88332  0.010529999999999987  0.8833  1.0000
  H   H152      1.0  0.88342  0.22264999999999985  0.88342  1.0000
  H   H153      1.0  0.88345  0.010500000000000002  0.22268  1.0000
  H   H154      1.0  0.88345  0.22267999999999996  0.0105  1.0000
  H   H155      1.0  0.22268999999999994  0.8834000000000001  0.8834  1.0000
  H   H156      1.0  0.010540000000000067  0.8833  0.8833  1.0000
  H   H157      1.0  0.11669000000000003  0.11668999999999996  0.98946  1.0000
  H   H158      1.0  0.11657999999999982  0.11658000000000003  0.77734  1.0000
  H   H159      1.0  0.9894999999999999  0.7773399999999998  0.11653999999999999  1.0000
  H   H160      1.0  0.77733  0.9895  0.11655  1.0000
  H   H161      1.0  0.9894599999999999  0.1167  0.1167  1.0000
  H   H162      1.0  0.77732  0.1166  0.1166  1.0000
  H   H163      1.0  0.11656  0.9895  0.77732  1.0000
  H   H164      1.0  0.11656  0.7773199999999999  0.98949  1.0000
  H   H165      1.0  0.11669000000000004  0.9894699999999998  0.11669  1.0000
  H   H166      1.0  0.11658000000000003  0.77735  0.11657999999999999  1.0000
  H   H167      1.0  0.77733  0.11655000000000006  0.9894999999999999  1.0000
  H   H168      1.0  0.9894999999999999  0.11654  0.7773299999999999  1.0000
  H   H169      1.0  0.62078  0.72233  0.62079  1.0000
  H   H170      1.0  0.72237  0.62076  0.0361  1.0000
  H   H171      1.0  0.03610000000000001  0.62076  0.72237  1.0000
  H   H172      1.0  0.62088  0.03609999999999999  0.62088  1.0000
  H   H173      1.0  0.03611000000000011  0.6208999999999998  0.6209  1.0000
  H   H174      1.0  0.6207599999999998  0.72235  0.0361  1.0000
  H   H175      1.0  0.6207599999999999  0.03610000000000006  0.7223499999999998  1.0000
  H   H176      1.0  0.7223  0.6207999999999999  0.6208  1.0000
  H   H177      1.0  0.72237  0.036100000000000014  0.62075  1.0000
  H   H178      1.0  0.62088  0.62089  0.0361  1.0000
  H   H179      1.0  0.62078  0.62079  0.72233  1.0000
  H   H180      1.0  0.0361000000000001  0.72237  0.62076  1.0000
  H   H181      1.0  0.37924  0.27765  0.9639  1.0000
  H   H182      1.0  0.27770999999999996  0.37919999999999987  0.3792  1.0000
  H   H183      1.0  0.9638999999999999  0.3791  0.3790999999999999  1.0000
  H   H184      1.0  0.37924  0.96391  0.27765  1.0000
  H   H185      1.0  0.9639000000000001  0.37923999999999997  0.27763  1.0000
  H   H186      1.0  0.3792200000000001  0.27767  0.37921  1.0000
  H   H187      1.0  0.37912  0.9638999999999999  0.37911  1.0000
  H   H188      1.0  0.2776400000000001  0.37924  0.9639  1.0000
  H   H189      1.0  0.2776299999999999  0.96391  0.37924  1.0000
  H   H190      1.0  0.37922000000000017  0.3792099999999998  0.27767  1.0000
  H   H191      1.0  0.37912  0.37910999999999995  0.9639  1.0000
  H   H192      1.0  0.9638999999999999  0.27763  0.37924  1.0000
  C   C1        1.0  0.8101999999999998  0.92781  0.25066  1.0000
  C   C2        1.0  0.8291299999999999  0.88606  0.26941  1.0000
  C   C3        1.0  0.8088100000000001  0.8659499999999999  0.30592  1.0000
  C   C4        1.0  0.73114  0.7884499999999999  0.45152  1.0000
  C   C5        1.0  0.7115699999999999  0.7688700000000002  0.4883799999999999  1.0000
  C   C6        1.0  0.92774  0.81012  0.011349999999999997  1.0000
  C   C7        1.0  0.88599  0.82905  0.015419999999999998  1.0000
  C   C8        1.0  0.8659099999999998  0.80876  0.01931  1.0000
  C   C9        1.0  0.78841  0.73114  0.028900000000000002  1.0000
  C   C10       1.0  0.7688499999999999  0.71161  0.03118  1.0000
  C   C11       1.0  0.011360000000000025  0.25061999999999995  0.92774  1.0000
  C   C12       1.0  0.015400000000000006  0.26939  0.88599  1.0000
  C   C13       1.0  0.019310000000000084  0.30588999999999994  0.86586  1.0000
  C   C14       1.0  0.0289  0.45149  0.78843  1.0000
  C   C15       1.0  0.031180000000000013  0.48835  0.76882  1.0000
  C   C16       1.0  0.25071  0.011299999999999984  0.81019  1.0000
  C   C17       1.0  0.2694400000000001  0.015370000000000075  0.8290999999999997  1.0000
  C   C18       1.0  0.3059500000000001  0.019300000000000067  0.8087499999999997  1.0000
  C   C19       1.0  0.45157000000000014  0.028900000000000044  0.7311599999999998  1.0000
  C   C20       1.0  0.48843  0.031180000000000017  0.71158  1.0000
  C   C21       1.0  0.011310000000000087  0.8101899999999999  0.2507  1.0000
  C   C22       1.0  0.015379999999999972  0.82909  0.26943  1.0000
  C   C23       1.0  0.019300000000000112  0.8087499999999996  0.30594  1.0000
  C   C24       1.0  0.028900000000000124  0.7311699999999998  0.45157  1.0000
  C   C25       1.0  0.031190000000000072  0.71158  0.48843  1.0000
  C   C26       1.0  0.2506299999999999  0.92775  0.01136  1.0000
  C   C27       1.0  0.2694  0.88601  0.0154  1.0000
  C   C28       1.0  0.30590000000000006  0.8658799999999999  0.0193  1.0000
  C   C29       1.0  0.4514999999999999  0.78843  0.028900000000000002  1.0000
  C   C30       1.0  0.4883499999999999  0.76883  0.03118  1.0000
  C   C31       1.0  0.8101099999999999  0.011360000000000025  0.92774  1.0000
  C   C32       1.0  0.8290399999999999  0.015420000000000012  0.88599  1.0000
  C   C33       1.0  0.80875  0.01930999999999998  0.86591  1.0000
  C   C34       1.0  0.73114  0.028899999999999995  0.78841  1.0000
  C   C35       1.0  0.7116  0.031180000000000065  0.7688499999999998  1.0000
  C   C36       1.0  0.9278200000000001  0.25067  0.81018  1.0000
  C   C37       1.0  0.88607  0.26941000000000004  0.8291099999999999  1.0000
  C   C38       1.0  0.8659700000000001  0.30591999999999997  0.80879  1.0000
  C   C39       1.0  0.78845  0.45152000000000003  0.73113  1.0000
  C   C40       1.0  0.7688699999999996  0.48838000000000004  0.71157  1.0000
  C   C41       1.0  0.92775  0.011349999999999994  0.25064  1.0000
  C   C42       1.0  0.8859999999999999  0.015399999999999999  0.26941  1.0000
  C   C43       1.0  0.8658699999999999  0.019299999999999998  0.30591  1.0000
  C   C44       1.0  0.78843  0.02890000000000002  0.45148999999999995  1.0000
  C   C45       1.0  0.7688300000000001  0.031179999999999992  0.48835  1.0000
  C   C46       1.0  0.8101799999999999  0.25071000000000004  0.0113  1.0000
  C   C47       1.0  0.8290899999999999  0.26945  0.01538  1.0000
  C   C48       1.0  0.80875  0.30594999999999994  0.0193  1.0000
  C   C49       1.0  0.73116  0.45157  0.028900000000000002  1.0000
  C   C50       1.0  0.7115799999999998  0.48842  0.03118  1.0000
  C   C51       1.0  0.25070000000000003  0.8101800000000001  0.9277999999999998  1.0000
  C   C52       1.0  0.26944  0.82911  0.88605  1.0000
  C   C53       1.0  0.30595  0.80879  0.86594  1.0000
  C   C54       1.0  0.45152  0.7311400000000001  0.7884499999999999  1.0000
  C   C55       1.0  0.4883800000000002  0.7115799999999997  0.76887  1.0000
  C   C56       1.0  0.011359999999999919  0.92774  0.8101  1.0000
  C   C57       1.0  0.015420000000000038  0.8859799999999999  0.82903  1.0000
  C   C58       1.0  0.01932000000000006  0.8659100000000001  0.80874  1.0000
  C   C59       1.0  0.02890999999999989  0.78841  0.73114  1.0000
  C   C60       1.0  0.031180000000000138  0.7688599999999998  0.7116  1.0000
  C   C61       1.0  0.18989  0.07226000000000002  0.98863  1.0000
  C   C62       1.0  0.17095999999999997  0.11400999999999996  0.98458  1.0000
  C   C63       1.0  0.19126000000000007  0.13407999999999998  0.98068  1.0000
  C   C64       1.0  0.2688600000000001  0.21159000000000003  0.9710899999999999  1.0000
  C   C65       1.0  0.28840999999999994  0.23115000000000002  0.96882  1.0000
  C   C66       1.0  0.07219000000000003  0.18982  0.74933  1.0000
  C   C67       1.0  0.11394000000000006  0.17088999999999996  0.73058  1.0000
  C   C68       1.0  0.13404  0.19121  0.69407  1.0000
  C   C69       1.0  0.21156  0.2688599999999999  0.54848  1.0000
  C   C70       1.0  0.23114000000000015  0.28843  0.51162  1.0000
  C   C71       1.0  0.9886899999999998  0.7493  0.18980999999999998  1.0000
  C   C72       1.0  0.98462  0.73057  0.17091  1.0000
  C   C73       1.0  0.9806999999999999  0.6940599999999999  0.19125  1.0000
  C   C74       1.0  0.9711  0.5484299999999999  0.26883  1.0000
  C   C75       1.0  0.9688200000000001  0.5115699999999999  0.28842  1.0000
  C   C76       1.0  0.74937  0.9886499999999999  0.07225  1.0000
  C   C77       1.0  0.7305999999999999  0.9846  0.114  1.0000
  C   C78       1.0  0.6940999999999998  0.9807  0.13413  1.0000
  C   C79       1.0  0.5484999999999999  0.97111  0.21157  1.0000
  C   C80       1.0  0.5116500000000002  0.96883  0.23116999999999996  1.0000
  C   C81       1.0  0.9886399999999997  0.1899  0.07226  1.0000
  C   C82       1.0  0.98458  0.17097000000000004  0.11401999999999997  1.0000
  C   C83       1.0  0.9806799999999999  0.19125999999999999  0.13409  1.0000
  C   C84       1.0  0.9711  0.2688599999999999  0.21159  1.0000
  C   C85       1.0  0.96882  0.2884  0.23114  1.0000
  C   C86       1.0  0.7493100000000001  0.07219999999999999  0.18983  1.0000
  C   C87       1.0  0.7305599999999999  0.11394999999999997  0.17089  1.0000
  C   C88       1.0  0.69405  0.13405  0.19120999999999994  1.0000
  C   C89       1.0  0.54848  0.21155  0.26886  1.0000
  C   C90       1.0  0.5116299999999999  0.23112999999999997  0.28842  1.0000
  C   C91       1.0  0.1898200000000001  0.9886999999999999  0.74928  1.0000
  C   C92       1.0  0.17091000000000015  0.98463  0.7305499999999999  1.0000
  C   C93       1.0  0.1912599999999999  0.9807  0.69405  1.0000
  C   C94       1.0  0.26884  0.9711  0.54843  1.0000
  C   C95       1.0  0.28842999999999996  0.96882  0.51158  1.0000
  C   C96       1.0  0.07226000000000003  0.7493599999999999  0.98865  1.0000
  C   C97       1.0  0.11401000000000004  0.73059  0.9846  1.0000
  C   C98       1.0  0.13413000000000005  0.6940899999999999  0.98069  1.0000
  C   C99       1.0  0.21157000000000006  0.5485100000000002  0.9710999999999999  1.0000
  C   C100      1.0  0.23117999999999997  0.51165  0.96882  1.0000
  C   C101      1.0  0.07226000000000012  0.9886499999999999  0.18987999999999994  1.0000
  C   C102      1.0  0.11400999999999996  0.98459  0.17095  1.0000
  C   C103      1.0  0.13408999999999993  0.9806899999999998  0.19125  1.0000
  C   C104      1.0  0.21159000000000014  0.9711  0.26886  1.0000
  C   C105      1.0  0.23115  0.96883  0.2884  1.0000
  C   C106      1.0  0.18980000000000008  0.7493399999999999  0.07219  1.0000
  C   C107      1.0  0.17087  0.73059  0.11394999999999998  1.0000
  C   C108      1.0  0.1911900000000001  0.6940799999999998  0.13405  1.0000
  C   C109      1.0  0.2688599999999999  0.54848  0.21155  1.0000
  C   C110      1.0  0.28843  0.51162  0.23113  1.0000
  C   C111      1.0  0.7493000000000001  0.18981  0.9886999999999999  1.0000
  C   C112      1.0  0.7305599999999999  0.1709  0.9846199999999999  1.0000
  C   C113      1.0  0.6940599999999999  0.19124000000000002  0.9806999999999999  1.0000
  C   C114      1.0  0.54843  0.26883  0.9710999999999999  1.0000
  C   C115      1.0  0.5115800000000001  0.28842  0.9688099999999998  1.0000
  C   C116      1.0  0.98865  0.07225000000000001  0.74937  1.0000
  C   C117      1.0  0.98461  0.114  0.73061  1.0000
  C   C118      1.0  0.9806999999999999  0.13413  0.69411  1.0000
  C   C119      1.0  0.9710999999999997  0.21156999999999998  0.54851  1.0000
  C   C120      1.0  0.9688200000000001  0.23116999999999996  0.51165  1.0000
  C   C121      1.0  0.18979999999999994  0.07219000000000002  0.74933  1.0000
  C   C122      1.0  0.17087000000000005  0.11394999999999997  0.73058  1.0000
  C   C123      1.0  0.19119000000000003  0.13405000000000009  0.6940799999999998  1.0000
  C   C124      1.0  0.26885999999999993  0.21155  0.54848  1.0000
  C   C125      1.0  0.2884300000000001  0.23112999999999997  0.51162  1.0000
  C   C126      1.0  0.07225999999999995  0.18987999999999994  0.9886400000000001  1.0000
  C   C127      1.0  0.11401000000000004  0.17094999999999994  0.98458  1.0000
  C   C128      1.0  0.13409  0.19125000000000003  0.98069  1.0000
  C   C129      1.0  0.21158999999999994  0.26886000000000004  0.9710999999999999  1.0000
  C   C130      1.0  0.23114999999999997  0.28840000000000005  0.96882  1.0000
  C   C131      1.0  0.98865  0.7493799999999998  0.07225  1.0000
  C   C132      1.0  0.9846  0.73061  0.114  1.0000
  C   C133      1.0  0.9806899999999998  0.69411  0.13413  1.0000
  C   C134      1.0  0.9711  0.5485100000000002  0.21157  1.0000
  C   C135      1.0  0.9688199999999998  0.51165  0.23116999999999996  1.0000
  C   C136      1.0  0.7493000000000002  0.9886999999999999  0.18980999999999998  1.0000
  C   C137      1.0  0.7305599999999999  0.98463  0.1709  1.0000
  C   C138      1.0  0.6940599999999998  0.9807  0.19124  1.0000
  C   C139      1.0  0.54843  0.9711  0.26883  1.0000
  C   C140      1.0  0.5115800000000001  0.96882  0.28842  1.0000
  C   C141      1.0  0.9886899999999998  0.18981  0.7492999999999999  1.0000
  C   C142      1.0  0.98462  0.17091  0.73056  1.0000
  C   C143      1.0  0.9806999999999999  0.19125000000000003  0.69406  1.0000
  C   C144      1.0  0.9711  0.26883  0.54843  1.0000
  C   C145      1.0  0.96882  0.28842000000000007  0.5115699999999999  1.0000
  C   C146      1.0  0.74937  0.07224999999999993  0.9886400000000001  1.0000
  C   C147      1.0  0.7306000000000002  0.11400000000000005  0.9846  1.0000
  C   C148      1.0  0.6941  0.13412  0.98069  1.0000
  C   C149      1.0  0.5485  0.21157  0.9710999999999999  1.0000
  C   C150      1.0  0.5116500000000002  0.23116999999999996  0.96882  1.0000
  C   C151      1.0  0.18988999999999998  0.9886400000000001  0.07226  1.0000
  C   C152      1.0  0.17095999999999997  0.98458  0.11401  1.0000
  C   C153      1.0  0.19125000000000006  0.9806899999999998  0.13408  1.0000
  C   C154      1.0  0.26885999999999993  0.9711  0.21159  1.0000
  C   C155      1.0  0.28839999999999993  0.96883  0.23115  1.0000
  C   C156      1.0  0.07219000000000009  0.74933  0.18981999999999993  1.0000
  C   C157      1.0  0.11392999999999999  0.73059  0.17089  1.0000
  C   C158      1.0  0.1340400000000002  0.6940799999999998  0.19120999999999994  1.0000
  C   C159      1.0  0.21155999999999994  0.54848  0.26886  1.0000
  C   C160      1.0  0.23114  0.51162  0.28843  1.0000
  C   C161      1.0  0.0722500000000001  0.9886499999999997  0.74936  1.0000
  C   C162      1.0  0.1140000000000001  0.98461  0.7305899999999997  1.0000
  C   C163      1.0  0.13413  0.9807  0.69409  1.0000
  C   C164      1.0  0.2115700000000001  0.97111  0.5485  1.0000
  C   C165      1.0  0.23117000000000013  0.96883  0.51165  1.0000
  C   C166      1.0  0.18982000000000007  0.7492899999999999  0.9886999999999999  1.0000
  C   C167      1.0  0.17092000000000002  0.73055  0.9846199999999999  1.0000
  C   C168      1.0  0.19126  0.6940500000000001  0.9806999999999999  1.0000
  C   C169      1.0  0.2688400000000001  0.5484299999999998  0.9710999999999999  1.0000
  C   C170      1.0  0.2884300000000001  0.5115800000000001  0.9688099999999998  1.0000
  C   C171      1.0  0.74931  0.18983  0.0722  1.0000
  C   C172      1.0  0.73056  0.17088999999999996  0.11394999999999998  1.0000
  C   C173      1.0  0.69405  0.19121  0.13405  1.0000
  C   C174      1.0  0.5484799999999999  0.26886000000000004  0.21155  1.0000
  C   C175      1.0  0.5116300000000001  0.28842999999999996  0.23113  1.0000
  C   C176      1.0  0.9886399999999999  0.07226  0.1899  1.0000
  C   C177      1.0  0.98458  0.11401999999999998  0.17097  1.0000
  C   C178      1.0  0.9806799999999998  0.13409  0.19126  1.0000
  C   C179      1.0  0.9711  0.21158999999999997  0.26886  1.0000
  C   C180      1.0  0.96882  0.23113999999999998  0.28839  1.0000
  C   C181      1.0  0.8101099999999999  0.92775  0.01136  1.0000
  C   C182      1.0  0.8290399999999999  0.88599  0.015419999999999998  1.0000
  C   C183      1.0  0.80875  0.86592  0.01931  1.0000
  C   C184      1.0  0.7311399999999999  0.78841  0.028900000000000002  1.0000
  C   C185      1.0  0.7116  0.7688599999999999  0.03118  1.0000
  C   C186      1.0  0.9278100000000002  0.8101799999999999  0.25067  1.0000
  C   C187      1.0  0.8860699999999998  0.8291200000000001  0.26941  1.0000
  C   C188      1.0  0.8659599999999998  0.8087999999999999  0.30592  1.0000
  C   C189      1.0  0.78845  0.7311399999999999  0.45152  1.0000
  C   C190      1.0  0.7688600000000001  0.71157  0.4883799999999999  1.0000
  C   C191      1.0  0.011310000000000025  0.25069999999999987  0.81018  1.0000
  C   C192      1.0  0.015380000000000013  0.26943000000000006  0.82909  1.0000
  C   C193      1.0  0.019300000000000154  0.30594  0.8087499999999997  1.0000
  C   C194      1.0  0.028900000000000082  0.45157  0.7311599999999998  1.0000
  C   C195      1.0  0.03118999999999999  0.48843000000000003  0.71157  1.0000
  C   C196      1.0  0.25063  0.011359999999999978  0.92775  1.0000
  C   C197      1.0  0.26939999999999986  0.015399999999999999  0.886  1.0000
  C   C198      1.0  0.30589999999999995  0.019300000000000022  0.86587  1.0000
  C   C199      1.0  0.4515  0.02888999999999999  0.78843  1.0000
  C   C200      1.0  0.48836  0.031180000000000017  0.76882  1.0000
  C   C201      1.0  0.011360000000000004  0.8101  0.92774  1.0000
  C   C202      1.0  0.015420000000000038  0.82904  0.88598  1.0000
  C   C203      1.0  0.01932000000000006  0.80874  0.86591  1.0000
  C   C204      1.0  0.0289100000000001  0.7311499999999999  0.78841  1.0000
  C   C205      1.0  0.031180000000000055  0.71161  0.7688499999999998  1.0000
  C   C206      1.0  0.25069999999999976  0.9277999999999998  0.81017  1.0000
  C   C207      1.0  0.26944  0.8860500000000001  0.8290999999999997  1.0000
  C   C208      1.0  0.30595  0.86595  0.80879  1.0000
  C   C209      1.0  0.45152  0.7884499999999999  0.73114  1.0000
  C   C210      1.0  0.48838  0.76887  0.71157  1.0000
  C   C211      1.0  0.8101799999999999  0.011299999999999996  0.25071  1.0000
  C   C212      1.0  0.8290899999999999  0.015379999999999998  0.26945  1.0000
  C   C213      1.0  0.80875  0.019300000000000008  0.30595  1.0000
  C   C214      1.0  0.73117  0.028899999999999995  0.45157  1.0000
  C   C215      1.0  0.7115799999999998  0.031180000000000017  0.48841999999999997  1.0000
  C   C216      1.0  0.92775  0.2506399999999999  0.011349999999999997  1.0000
  C   C217      1.0  0.8859999999999999  0.26941  0.0154  1.0000
  C   C218      1.0  0.8658699999999999  0.30590999999999996  0.0193  1.0000
  C   C219      1.0  0.78843  0.4515  0.028900000000000002  1.0000
  C   C220      1.0  0.7688299999999999  0.48835  0.03118  1.0000
  C   C221      1.0  0.9277500000000001  0.011350000000000067  0.8101199999999998  1.0000
  C   C222      1.0  0.88599  0.015410000000000005  0.82905  1.0000
  C   C223      1.0  0.8659100000000001  0.019310000000000077  0.8087499999999997  1.0000
  C   C224      1.0  0.78841  0.028899999999999995  0.73114  1.0000
  C   C225      1.0  0.7688499999999999  0.03117000000000001  0.7116  1.0000
  C   C226      1.0  0.8101999999999998  0.25066  0.9277999999999998  1.0000
  C   C227      1.0  0.8291299999999999  0.26941  0.88605  1.0000
  C   C228      1.0  0.8088200000000002  0.30591999999999997  0.86594  1.0000
  C   C229      1.0  0.73114  0.45152000000000003  0.7884499999999999  1.0000
  C   C230      1.0  0.71158  0.4883799999999998  0.76887  1.0000
  C   C231      1.0  0.25070000000000003  0.8102  0.0113  1.0000
  C   C232      1.0  0.26943999999999996  0.8291  0.01537  1.0000
  C   C233      1.0  0.30593999999999993  0.80876  0.0193  1.0000
  C   C234      1.0  0.45157  0.7311699999999999  0.028900000000000002  1.0000
  C   C235      1.0  0.48842000000000013  0.71158  0.03118  1.0000
  C   C236      1.0  0.011349999999999987  0.92775  0.25062  1.0000
  C   C237      1.0  0.015400000000000172  0.8859999999999999  0.26939  1.0000
  C   C238      1.0  0.019309999999999876  0.86587  0.30589  1.0000
  C   C239      1.0  0.028899999999999957  0.78843  0.45148999999999995  1.0000
  C   C240      1.0  0.03117999999999997  0.76883  0.48835  1.0000
  C   C241      1.0  0.86768  0.8676699999999999  0.25090999999999997  1.0000
  C   C242      1.0  0.8270100000000001  0.8269999999999996  0.32463999999999993  1.0000
  C   C243      1.0  0.8068499999999998  0.80683  0.36201  1.0000
  C   C244      1.0  0.78972  0.7897099999999998  0.39464999999999995  1.0000
  C   C245      1.0  0.7698900000000002  0.7698899999999999  0.43232  1.0000
  C   C246      1.0  0.7300300000000001  0.7300299999999998  0.50749  1.0000
  C   C247      1.0  0.7101900000000001  0.7102099999999997  0.54517  1.0000
  C   C248      1.0  0.6932099999999997  0.6932299999999998  0.57796  1.0000
  C   C249      1.0  0.6737799999999999  0.67381  0.61624  1.0000
  C   C250      1.0  0.86759  0.8675899999999999  0.01375  1.0000
  C   C251      1.0  0.82696  0.82697  0.02133  1.0000
  C   C252      1.0  0.8068100000000001  0.8068199999999998  0.02428  1.0000
  C   C253      1.0  0.7896999999999998  0.7897  0.02592  1.0000
  C   C254      1.0  0.76989  0.76989  0.027899999999999994  1.0000
  C   C255      1.0  0.73003  0.73003  0.03244  1.0000
  C   C256      1.0  0.71022  0.71022  0.0344  1.0000
  C   C257      1.0  0.6932599999999999  0.6932499999999999  0.03557  1.0000
  C   C258      1.0  0.67384  0.6738299999999998  0.03617  1.0000
  C   C259      1.0  0.013720000000000086  0.2509199999999999  0.8676399999999997  1.0000
  C   C260      1.0  0.021339999999999956  0.32464  0.82692  1.0000
  C   C261      1.0  0.02430000000000003  0.36201  0.80676  1.0000
  C   C262      1.0  0.02592000000000004  0.39463000000000004  0.7897199999999999  1.0000
  C   C263      1.0  0.027899999999999973  0.43231  0.76991  1.0000
  C   C264      1.0  0.032449999999999944  0.50753  0.72999  1.0000
  C   C265      1.0  0.034419999999999985  0.54522  0.71018  1.0000
  C   C266      1.0  0.03559999999999994  0.57801  0.69329  1.0000
  C   C267      1.0  0.03618000000000002  0.61629  0.6738699999999999  1.0000
  C   C268      1.0  0.25093000000000004  0.013709999999999996  0.8676499999999999  1.0000
  C   C269      1.0  0.3246399999999999  0.021329999999999967  0.82693  1.0000
  C   C270      1.0  0.36202000000000006  0.024300000000000075  0.8067699999999998  1.0000
  C   C271      1.0  0.3946399999999999  0.025920000000000075  0.7897199999999999  1.0000
  C   C272      1.0  0.43230999999999997  0.027899999999999987  0.76991  1.0000
  C   C273      1.0  0.50753  0.03244000000000001  0.73  1.0000
  C   C274      1.0  0.54522  0.03441999999999997  0.71018  1.0000
  C   C275      1.0  0.57801  0.035590000000000004  0.69327  1.0000
  C   C276      1.0  0.61629  0.036179999999999976  0.67385  1.0000
  C   C277      1.0  0.013719999999999982  0.86765  0.25092  1.0000
  C   C278      1.0  0.021339999999999977  0.82693  0.32463999999999993  1.0000
  C   C279      1.0  0.02430000000000003  0.8067599999999998  0.36201  1.0000
  C   C280      1.0  0.025919999999999953  0.7897200000000001  0.39463  1.0000
  C   C281      1.0  0.027899999999999973  0.76991  0.43231  1.0000
  C   C282      1.0  0.03245000000000007  0.73  0.50753  1.0000
  C   C283      1.0  0.03442000000000003  0.7101899999999999  0.54522  1.0000
  C   C284      1.0  0.03560000000000002  0.6932899999999999  0.578  1.0000
  C   C285      1.0  0.03618000000000006  0.6738799999999999  0.61629  1.0000
  C   C286      1.0  0.25093  0.86765  0.01372  1.0000
  C   C287      1.0  0.32463999999999993  0.82693  0.02133  1.0000
  C   C288      1.0  0.36201  0.80677  0.0243  1.0000
  C   C289      1.0  0.39463000000000004  0.7897299999999998  0.02592  1.0000
  C   C290      1.0  0.43230999999999997  0.76991  0.027899999999999994  1.0000
  C   C291      1.0  0.50753  0.73  0.03244999999999999  1.0000
  C   C292      1.0  0.54522  0.71018  0.03441999999999999  1.0000
  C   C293      1.0  0.578  0.69328  0.03559  1.0000
  C   C294      1.0  0.6162899999999999  0.67386  0.03618  1.0000
  C   C295      1.0  0.86759  0.013749999999999976  0.86759  1.0000
  C   C296      1.0  0.82696  0.021330000000000016  0.82696  1.0000
  C   C297      1.0  0.8068099999999999  0.02428000000000001  0.80681  1.0000
  C   C298      1.0  0.78971  0.02590999999999997  0.7897  1.0000
  C   C299      1.0  0.76989  0.027899999999999987  0.76988  1.0000
  C   C300      1.0  0.73003  0.032430000000000056  0.7300299999999998  1.0000
  C   C301      1.0  0.7102199999999999  0.03440000000000001  0.71022  1.0000
  C   C302      1.0  0.6932599999999999  0.03556999999999999  0.69324  1.0000
  C   C303      1.0  0.67384  0.03616000000000005  0.6738199999999998  1.0000
  C   C304      1.0  0.86769  0.2509099999999999  0.86767  1.0000
  C   C305      1.0  0.8270100000000001  0.3246399999999999  0.8269899999999999  1.0000
  C   C306      1.0  0.8068499999999998  0.36200999999999994  0.80683  1.0000
  C   C307      1.0  0.78972  0.39465  0.78971  1.0000
  C   C308      1.0  0.7699000000000005  0.43232  0.76989  1.0000
  C   C309      1.0  0.73003  0.50749  0.7300299999999998  1.0000
  C   C310      1.0  0.7101900000000001  0.54517  0.7101999999999999  1.0000
  C   C311      1.0  0.6932100000000001  0.5779599999999999  0.69323  1.0000
  C   C312      1.0  0.6737800000000002  0.6162399999999997  0.6738  1.0000
  C   C313      1.0  0.86764  0.013719999999999993  0.25094  1.0000
  C   C314      1.0  0.82693  0.021330000000000002  0.32465  1.0000
  C   C315      1.0  0.8067699999999999  0.024299999999999978  0.36202  1.0000
  C   C316      1.0  0.78972  0.025920000000000002  0.39463  1.0000
  C   C317      1.0  0.7699099999999999  0.027899999999999987  0.43231  1.0000
  C   C318      1.0  0.7299999999999999  0.03243999999999999  0.50752  1.0000
  C   C319      1.0  0.71018  0.03442  0.54521  1.0000
  C   C320      1.0  0.69329  0.035590000000000004  0.57799  1.0000
  C   C321      1.0  0.67387  0.036170000000000015  0.61628  1.0000
  C   C322      1.0  0.86764  0.25094  0.01372  1.0000
  C   C323      1.0  0.8269199999999999  0.32464999999999994  0.02133  1.0000
  C   C324      1.0  0.8067599999999999  0.36201999999999995  0.0243  1.0000
  C   C325      1.0  0.78972  0.39464  0.02592  1.0000
  C   C326      1.0  0.7699099999999999  0.43230999999999997  0.027899999999999994  1.0000
  C   C327      1.0  0.7299999999999999  0.50753  0.03244  1.0000
  C   C328      1.0  0.71018  0.54521  0.03441999999999999  1.0000
  C   C329      1.0  0.69328  0.578  0.03559  1.0000
  C   C330      1.0  0.67387  0.61628  0.03618  1.0000
  C   C331      1.0  0.25093999999999994  0.8676599999999999  0.86766  1.0000
  C   C332      1.0  0.32466  0.827  0.8269899999999999  1.0000
  C   C333      1.0  0.3620300000000001  0.80683  0.80683  1.0000
  C   C334      1.0  0.39466  0.7897099999999999  0.78971  1.0000
  C   C335      1.0  0.4323300000000001  0.76989  0.76989  1.0000
  C   C336      1.0  0.50748  0.73004  0.7300299999999998  1.0000
  C   C337      1.0  0.5451500000000001  0.71021  0.71021  1.0000
  C   C338      1.0  0.5779400000000002  0.69323  0.69323  1.0000
  C   C339      1.0  0.6162200000000001  0.6738000000000001  0.6738  1.0000
  C   C340      1.0  0.013759999999999965  0.86758  0.86757  1.0000
  C   C341      1.0  0.02134000000000006  0.8269599999999997  0.82695  1.0000
  C   C342      1.0  0.024279999999999913  0.8068100000000001  0.80681  1.0000
  C   C343      1.0  0.025920000000000123  0.7896999999999998  0.7897  1.0000
  C   C344      1.0  0.027910000000000074  0.76989  0.76989  1.0000
  C   C345      1.0  0.032440000000000094  0.73004  0.7300299999999998  1.0000
  C   C346      1.0  0.03439999999999991  0.7102300000000001  0.71022  1.0000
  C   C347      1.0  0.03557000000000005  0.6932599999999999  0.69326  1.0000
  C   C348      1.0  0.03617  0.67384  0.67384  1.0000
  C   C349      1.0  0.13242  0.13241  0.98625  1.0000
  C   C350      1.0  0.17304000000000003  0.17303000000000002  0.9786699999999999  1.0000
  C   C351      1.0  0.19319000000000003  0.19318  0.9757199999999999  1.0000
  C   C352      1.0  0.21029999999999996  0.21029999999999996  0.9740800000000001  1.0000
  C   C353      1.0  0.23011999999999988  0.23011  0.9721  1.0000
  C   C354      1.0  0.26998  0.26997  0.9675599999999999  1.0000
  C   C355      1.0  0.28979000000000005  0.2897799999999999  0.9656  1.0000
  C   C356      1.0  0.3067500000000001  0.30675  0.96442  1.0000
  C   C357      1.0  0.3261600000000001  0.32617  0.9638299999999999  1.0000
  C   C358      1.0  0.13231999999999994  0.13233000000000003  0.74908  1.0000
  C   C359      1.0  0.17299000000000003  0.17301  0.67536  1.0000
  C   C360      1.0  0.1931600000000001  0.19317  0.63799  1.0000
  C   C361      1.0  0.21028000000000005  0.21029000000000003  0.60535  1.0000
  C   C362      1.0  0.23011000000000004  0.23011  0.5676799999999999  1.0000
  C   C363      1.0  0.26996999999999993  0.26997000000000004  0.49251  1.0000
  C   C364      1.0  0.28981  0.28979000000000005  0.45483  1.0000
  C   C365      1.0  0.30678999999999995  0.3067699999999999  0.42204  1.0000
  C   C366      1.0  0.32622999999999996  0.32619999999999993  0.38376  1.0000
  C   C367      1.0  0.9862799999999999  0.74908  0.13236  1.0000
  C   C368      1.0  0.9786600000000001  0.6753699999999998  0.17308  1.0000
  C   C369      1.0  0.9756999999999999  0.6379899999999998  0.19324  1.0000
  C   C370      1.0  0.9740800000000001  0.6053699999999997  0.21027999999999997  1.0000
  C   C371      1.0  0.9720999999999997  0.56769  0.23008999999999993  1.0000
  C   C372      1.0  0.96755  0.49247  0.27  1.0000
  C   C373      1.0  0.96558  0.45478  0.28982  1.0000
  C   C374      1.0  0.9644  0.4219899999999999  0.30671  1.0000
  C   C375      1.0  0.9638199999999999  0.38371  0.32612  1.0000
  C   C376      1.0  0.74907  0.98629  0.13235  1.0000
  C   C377      1.0  0.67536  0.97867  0.17307  1.0000
  C   C378      1.0  0.6379900000000001  0.9757099999999999  0.19323  1.0000
  C   C379      1.0  0.60537  0.97408  0.21027999999999997  1.0000
  C   C380      1.0  0.56769  0.9721099999999999  0.23008999999999993  1.0000
  C   C381      1.0  0.4924700000000001  0.9675599999999999  0.27  1.0000
  C   C382      1.0  0.45478  0.9655799999999999  0.28982  1.0000
  C   C383      1.0  0.422  0.9644099999999999  0.30673  1.0000
  C   C384      1.0  0.38371  0.9638299999999999  0.32614  1.0000
  C   C385      1.0  0.9862399999999999  0.13241999999999998  0.13242  1.0000
  C   C386      1.0  0.97867  0.17303999999999997  0.17304  1.0000
  C   C387      1.0  0.97572  0.19319  0.19318999999999997  1.0000
  C   C388      1.0  0.9740799999999998  0.2102999999999999  0.2103  1.0000
  C   C389      1.0  0.9720999999999997  0.23011  0.23011  1.0000
  C   C390      1.0  0.9675599999999999  0.26997  0.26997  1.0000
  C   C391      1.0  0.9656  0.28977  0.28977  1.0000
  C   C392      1.0  0.96443  0.3067399999999999  0.30674  1.0000
  C   C393      1.0  0.96383  0.32616  0.32616  1.0000
  C   C394      1.0  0.7490599999999998  0.13234  0.13234  1.0000
  C   C395      1.0  0.67534  0.17301  0.17301  1.0000
  C   C396      1.0  0.63797  0.19317  0.19317  1.0000
  C   C397      1.0  0.60534  0.21029  0.21029  1.0000
  C   C398      1.0  0.56768  0.23011  0.23011  1.0000
  C   C399      1.0  0.49251999999999996  0.26996  0.26996  1.0000
  C   C400      1.0  0.45484999999999987  0.28979  0.28979  1.0000
  C   C401      1.0  0.42206000000000016  0.3067699999999999  0.30677  1.0000
  C   C402      1.0  0.3837900000000001  0.3262  0.3262  1.0000
  C   C403      1.0  0.1323600000000001  0.98628  0.7490599999999997  1.0000
  C   C404      1.0  0.1730799999999998  0.97867  0.67535  1.0000
  C   C405      1.0  0.19324000000000008  0.9757099999999999  0.63798  1.0000
  C   C406      1.0  0.21028000000000013  0.97408  0.60536  1.0000
  C   C407      1.0  0.23009  0.9721  0.56769  1.0000
  C   C408      1.0  0.2700000000000001  0.9675599999999999  0.49246999999999996  1.0000
  C   C409      1.0  0.2898200000000001  0.9655899999999997  0.45478999999999997  1.0000
  C   C410      1.0  0.3067200000000001  0.9644099999999997  0.422  1.0000
  C   C411      1.0  0.32613  0.9638299999999999  0.38371999999999995  1.0000
  C   C412      1.0  0.13235999999999992  0.74906  0.98628  1.0000
  C   C413      1.0  0.17308000000000004  0.6753499999999999  0.97866  1.0000
  C   C414      1.0  0.19323999999999997  0.63798  0.9757  1.0000
  C   C415      1.0  0.21027999999999988  0.60536  0.9740800000000001  1.0000
  C   C416      1.0  0.23008999999999996  0.5676899999999999  0.9721  1.0000
  C   C417      1.0  0.2700100000000001  0.4924799999999999  0.9675499999999999  1.0000
  C   C418      1.0  0.2898199999999999  0.45479000000000014  0.96558  1.0000
  C   C419      1.0  0.3067200000000001  0.42200000000000004  0.9644099999999999  1.0000
  C   C420      1.0  0.32613999999999993  0.38372000000000006  0.9638199999999999  1.0000
  C   C421      1.0  0.13241  0.98625  0.13241  1.0000
  C   C422      1.0  0.17304  0.97867  0.17303  1.0000
  C   C423      1.0  0.19318999999999992  0.9757199999999999  0.19318  1.0000
  C   C424      1.0  0.21030000000000007  0.9740899999999999  0.2103  1.0000
  C   C425      1.0  0.23010999999999995  0.9721  0.23011  1.0000
  C   C426      1.0  0.26996999999999993  0.96757  0.26997  1.0000
  C   C427      1.0  0.28978000000000004  0.9655999999999999  0.28978  1.0000
  C   C428      1.0  0.30674  0.96443  0.30675  1.0000
  C   C429      1.0  0.32616000000000017  0.96384  0.3261699999999999  1.0000
  C   C430      1.0  0.13232000000000005  0.7490899999999999  0.13233  1.0000
  C   C431      1.0  0.17299000000000003  0.67536  0.17301  1.0000
  C   C432      1.0  0.19316000000000003  0.6379899999999998  0.19317  1.0000
  C   C433      1.0  0.21027999999999997  0.60536  0.21029  1.0000
  C   C434      1.0  0.23011000000000012  0.5676799999999999  0.23011  1.0000
  C   C435      1.0  0.26996999999999993  0.49250999999999995  0.26997  1.0000
  C   C436      1.0  0.28981000000000007  0.45482999999999996  0.28979  1.0000
  C   C437      1.0  0.30679  0.42204  0.30677  1.0000
  C   C438      1.0  0.32623  0.38376000000000005  0.32619  1.0000
  C   C439      1.0  0.7490799999999997  0.13235  0.98628  1.0000
  C   C440      1.0  0.67536  0.17306999999999995  0.97866  1.0000
  C   C441      1.0  0.6379899999999997  0.19323  0.9757  1.0000
  C   C442      1.0  0.60537  0.21027999999999994  0.9740800000000001  1.0000
  C   C443      1.0  0.56769  0.23009  0.9721  1.0000
  C   C444      1.0  0.4924800000000001  0.27  0.9675499999999999  1.0000
  C   C445      1.0  0.4547899999999999  0.28982  0.96558  1.0000
  C   C446      1.0  0.4219999999999999  0.3067299999999999  0.9643999999999999  1.0000
  C   C447      1.0  0.3837200000000003  0.32614000000000004  0.9638199999999999  1.0000
  C   C448      1.0  0.9862899999999999  0.13236  0.74908  1.0000
  C   C449      1.0  0.9786699999999998  0.17308  0.67536  1.0000
  C   C450      1.0  0.9757  0.19324  0.63799  1.0000
  C   C451      1.0  0.9740800000000001  0.21028000000000002  0.6053699999999999  1.0000
  C   C452      1.0  0.9720999999999999  0.23009  0.56769  1.0000
  C   C453      1.0  0.96755  0.2700000000000001  0.49246999999999996  1.0000
  C   C454      1.0  0.96558  0.28981999999999997  0.45478  1.0000
  C   C455      1.0  0.9644  0.30671  0.42199  1.0000
  C   C456      1.0  0.9638199999999999  0.32612  0.38371  1.0000
  C   C457      1.0  0.6354899999999999  0.69278  0.63551  1.0000
  C   C458      1.0  0.6928199999999999  0.63553  0.03622  1.0000
  C   C459      1.0  0.03622  0.63555  0.69282  1.0000
  C   C460      1.0  0.63559  0.03622000000000002  0.6355699999999999  1.0000
  C   C461      1.0  0.036229999999999936  0.63559  0.63559  1.0000
  C   C462      1.0  0.63554  0.69281  0.03622  1.0000
  C   C463      1.0  0.63554  0.03622  0.6928  1.0000
  C   C464      1.0  0.69274  0.63551  0.63551  1.0000
  C   C465      1.0  0.69282  0.03622  0.63553  1.0000
  C   C466      1.0  0.63558  0.6355799999999999  0.03623  1.0000
  C   C467      1.0  0.6354899999999999  0.63551  0.69278  1.0000
  C   C468      1.0  0.03622000000000017  0.6928299999999996  0.63554  1.0000
  C   C469      1.0  0.3644600000000001  0.30718999999999996  0.96378  1.0000
  C   C470      1.0  0.30726000000000003  0.3644899999999998  0.36449  1.0000
  C   C471      1.0  0.9637699999999999  0.36440999999999996  0.36441  1.0000
  C   C472      1.0  0.36446  0.96378  0.30719  1.0000
  C   C473      1.0  0.96378  0.36446  0.30717  1.0000
  C   C474      1.0  0.36452  0.30722  0.36449  1.0000
  C   C475      1.0  0.3644200000000001  0.96378  0.36442  1.0000
  C   C476      1.0  0.3071800000000001  0.36446999999999985  0.96378  1.0000
  C   C477      1.0  0.30718000000000006  0.96378  0.36447  1.0000
  C   C478      1.0  0.36452  0.36449  0.30722  1.0000
  C   C479      1.0  0.3644200000000001  0.36441999999999986  0.96377  1.0000
  C   C480      1.0  0.9637800000000002  0.30718  0.36444999999999994  1.0000
  O   O1        1.0  0.8298400000000002  0.9441399999999999  0.21663999999999994  1.0000
  O   O2        1.0  0.7761  0.94407  0.27033  1.0000
  O   O3        1.0  0.9440400000000001  0.8297899999999998  0.00936  1.0000
  O   O4        1.0  0.9440599999999998  0.77602  0.00956  1.0000
  O   O5        1.0  0.009430000000000004  0.21659999999999993  0.94413  1.0000
  O   O6        1.0  0.009520000000000028  0.27030000000000004  0.9439599999999999  1.0000
  O   O7        1.0  0.21669999999999995  0.009330000000000033  0.82984  1.0000
  O   O8        1.0  0.27037  0.009489999999999997  0.77609  1.0000
  O   O9        1.0  0.009350000000000101  0.8298399999999999  0.21669  1.0000
  O   O10       1.0  0.009490000000000083  0.7760899999999997  0.27036  1.0000
  O   O11       1.0  0.21660000000000007  0.9441399999999999  0.00943  1.0000
  O   O12       1.0  0.2703  0.9439799999999999  0.009519999999999997  1.0000
  O   O13       1.0  0.8297799999999999  0.009380000000000019  0.94403  1.0000
  O   O14       1.0  0.77601  0.009559999999999997  0.94407  1.0000
  O   O15       1.0  0.9441400000000001  0.21664000000000003  0.82982  1.0000
  O   O16       1.0  0.94408  0.27033  0.77608  1.0000
  O   O17       1.0  0.94413  0.009430000000000004  0.21662  1.0000
  O   O18       1.0  0.9439799999999998  0.00951  0.27031  1.0000
  O   O19       1.0  0.82983  0.21669999999999998  0.009349999999999999  1.0000
  O   O20       1.0  0.77608  0.27037999999999995  0.00948  1.0000
  O   O21       1.0  0.21667  0.82982  0.94413  1.0000
  O   O22       1.0  0.27036000000000016  0.7760699999999997  0.94407  1.0000
  O   O23       1.0  0.009380000000000067  0.94402  0.8297699999999999  1.0000
  O   O24       1.0  0.009559999999999949  0.94407  0.776  1.0000
  O   O25       1.0  0.17023  0.05596999999999999  0.99062  1.0000
  O   O26       1.0  0.22399999999999995  0.055929999999999966  0.9904300000000001  1.0000
  O   O27       1.0  0.055860000000000014  0.17017  0.78335  1.0000
  O   O28       1.0  0.05592999999999997  0.22392  0.72966  1.0000
  O   O29       1.0  0.9906499999999999  0.78332  0.17016  1.0000
  O   O30       1.0  0.9905099999999999  0.72964  0.22391  1.0000
  O   O31       1.0  0.7833899999999999  0.9905699999999998  0.05587  1.0000
  O   O32       1.0  0.7297000000000001  0.99048  0.056029999999999996  1.0000
  O   O33       1.0  0.99062  0.17022999999999996  0.055979999999999995  1.0000
  O   O34       1.0  0.99044  0.224  0.055929999999999994  1.0000
  O   O35       1.0  0.7833299999999997  0.055869999999999996  0.17018  1.0000
  O   O36       1.0  0.72964  0.05593000000000003  0.22392999999999993  1.0000
  O   O37       1.0  0.17017  0.9906499999999999  0.7833  1.0000
  O   O38       1.0  0.22392000000000006  0.9905299999999998  0.72962  1.0000
  O   O39       1.0  0.05588  0.7833799999999999  0.9905700000000001  1.0000
  O   O40       1.0  0.056030000000000205  0.7296899999999996  0.99049  1.0000
  O   O41       1.0  0.055960000000000044  0.9906399999999999  0.17022  1.0000
  O   O42       1.0  0.055929999999999994  0.99044  0.22398999999999997  1.0000
  O   O43       1.0  0.17016000000000006  0.78336  0.05586  1.0000
  O   O44       1.0  0.22390000000000013  0.7296699999999998  0.05594  1.0000
  O   O45       1.0  0.78331  0.17015000000000002  0.99066  1.0000
  O   O46       1.0  0.7296399999999998  0.22391000000000003  0.9905099999999999  1.0000
  O   O47       1.0  0.9905799999999999  0.055860000000000014  0.7834  1.0000
  O   O48       1.0  0.9904799999999999  0.05603000000000003  0.7296999999999999  1.0000
  O   O49       1.0  0.17017000000000007  0.055860000000000014  0.7833599999999998  1.0000
  O   O50       1.0  0.22391000000000005  0.05593999999999997  0.72966  1.0000
  O   O51       1.0  0.055970000000000054  0.17022  0.9906399999999999  1.0000
  O   O52       1.0  0.05593999999999999  0.22399000000000005  0.9904399999999999  1.0000
  O   O53       1.0  0.99057  0.7834  0.05586  1.0000
  O   O54       1.0  0.9904799999999999  0.7297099999999997  0.05604  1.0000
  O   O55       1.0  0.7833000000000001  0.9906699999999999  0.17015  1.0000
  O   O56       1.0  0.7296399999999993  0.99051  0.22391  1.0000
  O   O57       1.0  0.9906500000000001  0.17016000000000006  0.7833099999999997  1.0000
  O   O58       1.0  0.9905099999999999  0.22391000000000003  0.72964  1.0000
  O   O59       1.0  0.7833999999999999  0.05587000000000002  0.99056  1.0000
  O   O60       1.0  0.7297000000000001  0.05602999999999998  0.99047  1.0000
  O   O61       1.0  0.1702200000000001  0.9906199999999997  0.05597  1.0000
  O   O62       1.0  0.22398999999999994  0.99044  0.055929999999999994  1.0000
  O   O63       1.0  0.05586000000000005  0.78336  0.17017  1.0000
  O   O64       1.0  0.05592000000000014  0.7296699999999998  0.22391999999999998  1.0000
  O   O65       1.0  0.055879999999999916  0.9905699999999998  0.78338  1.0000
  O   O66       1.0  0.056029999999999996  0.99049  0.72969  1.0000
  O   O67       1.0  0.17017  0.7832999999999999  0.99065  1.0000
  O   O68       1.0  0.22391999999999976  0.7296299999999999  0.99052  1.0000
  O   O69       1.0  0.7833299999999999  0.17018  0.05587  1.0000
  O   O70       1.0  0.72964  0.22393  0.055929999999999994  1.0000
  O   O71       1.0  0.99062  0.05598  0.17023  1.0000
  O   O72       1.0  0.99044  0.05593  0.224  1.0000
  O   O73       1.0  0.82978  0.9440299999999999  0.00938  1.0000
  O   O74       1.0  0.77601  0.94407  0.00956  1.0000
  O   O75       1.0  0.9441400000000001  0.8298299999999998  0.21663999999999994  1.0000
  O   O76       1.0  0.9440800000000001  0.77608  0.27033  1.0000
  O   O77       1.0  0.009350000000000039  0.21668999999999997  0.82984  1.0000
  O   O78       1.0  0.00948999999999998  0.27035999999999993  0.77609  1.0000
  O   O79       1.0  0.21660999999999994  0.009430000000000004  0.94413  1.0000
  O   O80       1.0  0.27030000000000004  0.009520000000000018  0.9439699999999999  1.0000
  O   O81       1.0  0.009379999999999984  0.8297699999999999  0.94402  1.0000
  O   O82       1.0  0.009560000000000115  0.7759999999999999  0.94407  1.0000
  O   O83       1.0  0.21667000000000008  0.94413  0.82982  1.0000
  O   O84       1.0  0.2703599999999997  0.94407  0.77607  1.0000
  O   O85       1.0  0.82983  0.00935000000000001  0.21669999999999998  1.0000
  O   O86       1.0  0.77609  0.009480000000000002  0.27037  1.0000
  O   O87       1.0  0.9441299999999998  0.21662000000000003  0.00943  1.0000
  O   O88       1.0  0.9439799999999998  0.27031  0.00951  1.0000
  O   O89       1.0  0.9440399999999999  0.009360000000000004  0.82978  1.0000
  O   O90       1.0  0.9440699999999999  0.009560000000000044  0.7760099999999999  1.0000
  O   O91       1.0  0.8298399999999999  0.21663999999999997  0.94414  1.0000
  O   O92       1.0  0.7761000000000002  0.27032999999999996  0.9440599999999999  1.0000
  O   O93       1.0  0.21668999999999997  0.82985  0.00933  1.0000
  O   O94       1.0  0.27036  0.7761  0.00949  1.0000
  O   O95       1.0  0.009419999999999883  0.94414  0.2166  1.0000
  O   O96       1.0  0.009520000000000133  0.9439699999999998  0.2703  1.0000
