data_image0
_chemical_formula_structural       Cd8H224C296N32O48
_chemical_formula_sum              "Cd8 H224 C296 N32 O48"
_cell_length_a       10.70496
_cell_length_b       28.50652
_cell_length_c       31.70015
_cell_angle_alpha    89.89209
_cell_angle_beta     89.98301
_cell_angle_gamma    96.68954000000001

_symmetry_space_group_name_H-M    'P 1'
_symmetry_Int_Tables_number       1

loop_
  _symmetry_equiv_pos_as_xyz
  'x,y,z'

loop_
  _atom_site_type_symbol
  _atom_site_label
  _atom_site_symmetry_multiplicity
  _atom_site_fract_x
  _atom_site_fract_y
  _atom_site_fract_z
  _atom_site_occupancy
  Cd  Cd1       1.0  0.9150499999999999  0.8012000000000002  0.58809  1.0000
  Cd  Cd2       1.0  0.10329  0.32439  0.65905  1.0000
  Cd  Cd3       1.0  0.08580000000000006  0.6996800000000002  0.08865  1.0000
  Cd  Cd4       1.0  0.90023  0.17626  0.15912  1.0000
  Cd  Cd5       1.0  0.08496  0.19881  0.4119100000000001  1.0000
  Cd  Cd6       1.0  0.8967199999999999  0.6756200000000002  0.3409500000000001  1.0000
  Cd  Cd7       1.0  0.9142099999999999  0.30033  0.91135  1.0000
  Cd  Cd8       1.0  0.09978000000000008  0.8237400000000002  0.84088  1.0000
  H   H1        1.0  0.8052899999999998  0.65486  0.60263  1.0000
  H   H2        1.0  0.2565  0.45900000000000013  0.61014  1.0000
  H   H3        1.0  0.8303099999999999  0.9299300000000003  0.64071  1.0000
  H   H4        1.0  0.9101000000000001  0.19771  0.64433  1.0000
  H   H5        1.0  0.5142500000000001  0.7430000000000002  0.64132  1.0000
  H   H6        1.0  0.28994  0.72718  0.66081  1.0000
  H   H7        1.0  0.09280000000000009  0.6718000000000002  0.66442  1.0000
  H   H8        1.0  0.09636000000000008  0.5870500000000002  0.64617  1.0000
  H   H9        1.0  0.2927100000000001  0.5568100000000001  0.62609  1.0000
  H   H10       1.0  0.62675  0.55414  0.59532  1.0000
  H   H11       1.0  0.46536  0.5472  0.58285  1.0000
  H   H12       1.0  0.45035  0.4133000000000001  0.72265  1.0000
  H   H13       1.0  0.6315599999999999  0.4457300000000001  0.76429  1.0000
  H   H14       1.0  0.8197400000000002  0.5048700000000002  0.77338  1.0000
  H   H15       1.0  0.8653199999999999  0.5695400000000002  0.72098  1.0000
  H   H16       1.0  0.7252700000000001  0.5765900000000003  0.66054  1.0000
  H   H17       1.0  0.09111000000000001  0.94807  0.53363  1.0000
  H   H18       1.0  0.20745  0.015830000000000004  0.49801  1.0000
  H   H19       1.0  0.25773  0.10267000000000003  0.48905  1.0000
  H   H20       1.0  0.15487  0.15703  0.5359300000000002  1.0000
  H   H21       1.0  0.009230000000000009  0.12625000000000003  0.59162  1.0000
  H   H22       1.0  0.8236999999999999  0.04128000000000001  0.66439  1.0000
  H   H23       1.0  0.82668  0.08674000000000003  0.6269700000000002  1.0000
  H   H24       1.0  0.21938999999999997  0.18363  0.73397  1.0000
  H   H25       1.0  0.00533  0.0035200000000000014  0.68769  1.0000
  H   H26       1.0  0.15598000000000004  0.9745300000000002  0.73676  1.0000
  H   H27       1.0  0.30683  0.030540000000000008  0.77757  1.0000
  H   H28       1.0  0.30278  0.11688000000000003  0.76878  1.0000
  H   H29       1.0  0.9803500000000002  0.6971400000000002  0.54245  1.0000
  H   H30       1.0  0.18348000000000006  0.7744000000000002  0.44498  1.0000
  H   H31       1.0  0.07710000000000003  0.8363900000000002  0.49871  1.0000
  H   H32       1.0  0.10614000000000004  0.67747  0.43746  1.0000
  H   H33       1.0  0.06985  0.64985  0.4867300000000001  1.0000
  H   H34       1.0  0.24775000000000003  0.6662100000000001  0.54631  1.0000
  H   H35       1.0  0.47339000000000003  0.6625500000000002  0.55827  1.0000
  H   H36       1.0  0.5446900000000001  0.6799500000000003  0.4250800000000001  1.0000
  H   H37       1.0  0.3179400000000001  0.6838300000000003  0.4129000000000001  1.0000
  H   H38       1.0  0.6909999999999998  0.6843000000000002  0.53147  1.0000
  H   H39       1.0  0.6781000000000001  0.6295600000000002  0.50528  1.0000
  H   H40       1.0  0.7749500000000001  0.62532  0.43179  1.0000
  H   H41       1.0  0.8909999999999999  0.7695400000000002  0.40826  1.0000
  H   H42       1.0  0.7547  0.7613400000000002  0.48334  1.0000
  H   H43       1.0  0.87864  0.28089  0.72527  1.0000
  H   H44       1.0  0.0068599999999999954  0.42511  0.70633  1.0000
  H   H45       1.0  0.8651499999999999  0.41571000000000013  0.78011  1.0000
  H   H46       1.0  0.8114899999999999  0.33296000000000003  0.82691  1.0000
  H   H47       1.0  0.77727  0.28185000000000004  0.79549  1.0000
  H   H48       1.0  0.6456  0.373  0.8496900000000002  1.0000
  H   H49       1.0  0.42729  0.3937900000000001  0.8424  1.0000
  H   H50       1.0  0.37794  0.30919  0.72998  1.0000
  H   H51       1.0  0.59642  0.2891100000000001  0.7369200000000002  1.0000
  H   H52       1.0  0.24818999999999997  0.4006100000000001  0.79468  1.0000
  H   H53       1.0  0.22984  0.3664300000000001  0.7479  1.0000
  H   H54       1.0  0.12607  0.37334  0.85787  1.0000
  H   H55       1.0  0.99249  0.23294000000000006  0.82614  1.0000
  H   H56       1.0  0.15361  0.2714600000000001  0.76206  1.0000
  H   H57       1.0  0.19794999999999996  0.84778  0.10217  1.0000
  H   H58       1.0  0.751  0.04233000000000001  0.11193  1.0000
  H   H59       1.0  0.17023  0.57024  0.14055  1.0000
  H   H60       1.0  0.09081  0.30252  0.14444  1.0000
  H   H61       1.0  0.4867  0.7584400000000002  0.14075  1.0000
  H   H62       1.0  0.7105800000000001  0.7735600000000002  0.1603  1.0000
  H   H63       1.0  0.9082099999999999  0.8285900000000003  0.16465  1.0000
  H   H64       1.0  0.9063599999999999  0.91358  0.14678  1.0000
  H   H65       1.0  0.71109  0.9443  0.12603  1.0000
  H   H66       1.0  0.37976000000000004  0.9482600000000001  0.09397  1.0000
  H   H67       1.0  0.5418200000000001  0.9549500000000002  0.08265  1.0000
  H   H68       1.0  0.54942  0.08749000000000003  0.22296  1.0000
  H   H69       1.0  0.3678  0.053960000000000015  0.26401  1.0000
  H   H70       1.0  0.18107  0.9939700000000002  0.27256  1.0000
  H   H71       1.0  0.13768000000000005  0.9300900000000002  0.21947  1.0000
  H   H72       1.0  0.27867000000000003  0.9246200000000001  0.15899  1.0000
  H   H73       1.0  0.9073299999999999  0.55228  0.03407  1.0000
  H   H74       1.0  0.7927  0.48427000000000003  0.9981200000000002  1.0000
  H   H75       1.0  0.7454700000000001  0.3974300000000001  0.9888200000000003  1.0000
  H   H76       1.0  0.85052  0.34318000000000004  0.03534  1.0000
  H   H77       1.0  0.995  0.3741100000000001  0.09115000000000002  1.0000
  H   H78       1.0  0.17783  0.4589  0.16417  1.0000
  H   H79       1.0  0.17466  0.41353000000000006  0.12682000000000004  1.0000
  H   H80       1.0  0.7808299999999999  0.3163600000000001  0.2338  1.0000
  H   H81       1.0  0.99669  0.49660000000000004  0.18776000000000007  1.0000
  H   H82       1.0  0.84591  0.5255600000000001  0.2368  1.0000
  H   H83       1.0  0.69335  0.4694200000000001  0.27716  1.0000
  H   H84       1.0  0.697  0.3830400000000001  0.26819  1.0000
  H   H85       1.0  0.02121000000000007  0.8038300000000003  0.04234  1.0000
  H   H86       1.0  0.8173000000000002  0.7259900000000002  0.94566  1.0000
  H   H87       1.0  0.9234800000000001  0.6642800000000002  0.9999200000000001  1.0000
  H   H88       1.0  0.8953099999999999  0.8228800000000002  0.93722  1.0000
  H   H89       1.0  0.93084  0.8507900000000003  0.9863100000000002  1.0000
  H   H90       1.0  0.75271  0.8340300000000002  0.0459  1.0000
  H   H91       1.0  0.5269400000000001  0.8374200000000003  0.05774  1.0000
  H   H92       1.0  0.45647  0.8199200000000002  0.92459  1.0000
  H   H93       1.0  0.68344  0.8163200000000003  0.91253  1.0000
  H   H94       1.0  0.30992  0.81542  0.03098  1.0000
  H   H95       1.0  0.32248000000000004  0.8702600000000003  0.00482  1.0000
  H   H96       1.0  0.22400000000000003  0.8746500000000001  0.93157  1.0000
  H   H97       1.0  0.10770999999999999  0.73038  0.90856  1.0000
  H   H98       1.0  0.24670000000000006  0.7386000000000003  0.98307  1.0000
  H   H99       1.0  0.12351999999999999  0.21911000000000005  0.22552  1.0000
  H   H100      1.0  0.99455  0.07507  0.20657  1.0000
  H   H101      1.0  0.13403  0.0841  0.2808  1.0000
  H   H102      1.0  0.18875  0.16655  0.32743  1.0000
  H   H103      1.0  0.22281  0.21784000000000006  0.2961  1.0000
  H   H104      1.0  0.35496  0.12639  0.34999  1.0000
  H   H105      1.0  0.57327  0.10564000000000003  0.34239  1.0000
  H   H106      1.0  0.6221899999999999  0.19121  0.23024000000000006  1.0000
  H   H107      1.0  0.40364  0.21120000000000003  0.23747  1.0000
  H   H108      1.0  0.75203  0.09913  0.29425  1.0000
  H   H109      1.0  0.77041  0.13404000000000005  0.24776000000000006  1.0000
  H   H110      1.0  0.87361  0.12571000000000004  0.35775  1.0000
  H   H111      1.0  0.007139999999999995  0.26651  0.3268  1.0000
  H   H112      1.0  0.84722  0.22852  0.26238  1.0000
  H   H113      1.0  0.19472000000000003  0.3451500000000001  0.39737  1.0000
  H   H114      1.0  0.7435199999999998  0.541  0.3898600000000001  1.0000
  H   H115      1.0  0.1697  0.07008  0.35929  1.0000
  H   H116      1.0  0.08991000000000003  0.80229  0.35567  1.0000
  H   H117      1.0  0.48576  0.25701  0.3586800000000001  1.0000
  H   H118      1.0  0.71007  0.2728300000000001  0.3391900000000001  1.0000
  H   H119      1.0  0.9072099999999998  0.3282  0.3355800000000001  1.0000
  H   H120      1.0  0.9036500000000001  0.41295  0.35383  1.0000
  H   H121      1.0  0.7073  0.4432000000000001  0.37392  1.0000
  H   H122      1.0  0.37326000000000004  0.4458600000000001  0.40468  1.0000
  H   H123      1.0  0.53465  0.45281  0.4171500000000001  1.0000
  H   H124      1.0  0.54966  0.5867  0.27735  1.0000
  H   H125      1.0  0.36845  0.5542800000000001  0.23571  1.0000
  H   H126      1.0  0.18027000000000007  0.49514000000000014  0.22662  1.0000
  H   H127      1.0  0.13469  0.43047  0.27902000000000005  1.0000
  H   H128      1.0  0.27474  0.42342  0.33946  1.0000
  H   H129      1.0  0.9089  0.05193  0.4663700000000001  1.0000
  H   H130      1.0  0.79256  0.9841700000000002  0.50199  1.0000
  H   H131      1.0  0.74228  0.8973300000000002  0.51096  1.0000
  H   H132      1.0  0.84514  0.8429800000000002  0.46407  1.0000
  H   H133      1.0  0.9907899999999998  0.8737600000000002  0.40838  1.0000
  H   H134      1.0  0.17631000000000005  0.9587300000000002  0.33561  1.0000
  H   H135      1.0  0.17333  0.91327  0.37303  1.0000
  H   H136      1.0  0.78062  0.8163700000000003  0.26603  1.0000
  H   H137      1.0  0.99469  0.9964900000000002  0.31231  1.0000
  H   H138      1.0  0.84403  0.025480000000000006  0.26324  1.0000
  H   H139      1.0  0.6931900000000001  0.9694700000000003  0.22243  1.0000
  H   H140      1.0  0.6972300000000001  0.8831200000000002  0.23122  1.0000
  H   H141      1.0  0.019660000000000004  0.30287  0.4575500000000001  1.0000
  H   H142      1.0  0.8165299999999999  0.22560000000000002  0.5550200000000002  1.0000
  H   H143      1.0  0.92291  0.16362000000000004  0.50129  1.0000
  H   H144      1.0  0.89388  0.32254  0.56254  1.0000
  H   H145      1.0  0.93016  0.35016  0.51327  1.0000
  H   H146      1.0  0.7522599999999999  0.3337900000000001  0.45369  1.0000
  H   H147      1.0  0.5266300000000002  0.3374600000000001  0.4417300000000001  1.0000
  H   H148      1.0  0.45532  0.3200600000000001  0.57492  1.0000
  H   H149      1.0  0.68207  0.3161800000000001  0.5871  1.0000
  H   H150      1.0  0.30901  0.3157100000000001  0.4685300000000001  1.0000
  H   H151      1.0  0.32191000000000003  0.3704500000000001  0.49472  1.0000
  H   H152      1.0  0.22506  0.37469  0.56821  1.0000
  H   H153      1.0  0.10901  0.23046  0.59174  1.0000
  H   H154      1.0  0.24530999999999997  0.23866000000000007  0.5166600000000002  1.0000
  H   H155      1.0  0.12137  0.71911  0.27474  1.0000
  H   H156      1.0  0.9931499999999999  0.5749  0.2936700000000001  1.0000
  H   H157      1.0  0.13487000000000002  0.5843000000000003  0.21989  1.0000
  H   H158      1.0  0.18852999999999998  0.66704  0.17309  1.0000
  H   H159      1.0  0.22274000000000002  0.7181500000000002  0.20451  1.0000
  H   H160      1.0  0.35441  0.6270100000000002  0.15031  1.0000
  H   H161      1.0  0.57272  0.60622  0.1576  1.0000
  H   H162      1.0  0.62207  0.69081  0.27002  1.0000
  H   H163      1.0  0.4035900000000001  0.7109000000000002  0.2630800000000001  1.0000
  H   H164      1.0  0.7518199999999999  0.5993900000000002  0.20533  1.0000
  H   H165      1.0  0.7701699999999999  0.63357  0.2521  1.0000
  H   H166      1.0  0.87394  0.62666  0.14213  1.0000
  H   H167      1.0  0.007530000000000021  0.76707  0.17386  1.0000
  H   H168      1.0  0.8464  0.72855  0.23794  1.0000
  H   H169      1.0  0.80206  0.15223  0.89783  1.0000
  H   H170      1.0  0.24901000000000006  0.9576800000000002  0.88808  1.0000
  H   H171      1.0  0.82979  0.42976  0.85945  1.0000
  H   H172      1.0  0.9092100000000001  0.6974800000000002  0.85556  1.0000
  H   H173      1.0  0.51332  0.24157000000000006  0.8592500000000002  1.0000
  H   H174      1.0  0.28943  0.22645  0.8397  1.0000
  H   H175      1.0  0.09180000000000002  0.17142000000000002  0.83535  1.0000
  H   H176      1.0  0.09364999999999998  0.08643  0.85322  1.0000
  H   H177      1.0  0.28892  0.05570000000000001  0.87397  1.0000
  H   H178      1.0  0.62025  0.051750000000000004  0.90603  1.0000
  H   H179      1.0  0.45818999999999993  0.045050000000000014  0.91736  1.0000
  H   H180      1.0  0.45059  0.91251  0.77704  1.0000
  H   H181      1.0  0.63222  0.94605  0.73599  1.0000
  H   H182      1.0  0.81894  0.00603  0.72744  1.0000
  H   H183      1.0  0.86234  0.06992  0.78053  1.0000
  H   H184      1.0  0.7213400000000001  0.07538000000000003  0.84101  1.0000
  H   H185      1.0  0.09268  0.44773000000000013  0.96593  1.0000
  H   H186      1.0  0.20731  0.51574  0.00189  1.0000
  H   H187      1.0  0.25454  0.6025700000000003  0.01118  1.0000
  H   H188      1.0  0.1495  0.65682  0.9646700000000002  1.0000
  H   H189      1.0  0.00500999999999999  0.6259  0.9088500000000003  1.0000
  H   H190      1.0  0.82218  0.5411000000000001  0.83583  1.0000
  H   H191      1.0  0.82535  0.58648  0.87318  1.0000
  H   H192      1.0  0.21918000000000007  0.6836400000000002  0.7662  1.0000
  H   H193      1.0  0.0033200000000000343  0.5034000000000001  0.8122500000000001  1.0000
  H   H194      1.0  0.15410000000000001  0.4744500000000001  0.7632  1.0000
  H   H195      1.0  0.30666000000000004  0.5305900000000001  0.72284  1.0000
  H   H196      1.0  0.30301000000000006  0.6169700000000001  0.73181  1.0000
  H   H197      1.0  0.9788000000000001  0.19618000000000005  0.9576600000000002  1.0000
  H   H198      1.0  0.18272000000000002  0.27402  0.05434  1.0000
  H   H199      1.0  0.07652999999999997  0.33572  8e-05  1.0000
  H   H200      1.0  0.1047  0.17713000000000007  0.06278  1.0000
  H   H201      1.0  0.06918  0.14922000000000005  0.01369  1.0000
  H   H202      1.0  0.2473  0.16597000000000006  0.9541  1.0000
  H   H203      1.0  0.47306999999999994  0.16258  0.94226  1.0000
  H   H204      1.0  0.54354  0.18009000000000006  0.07541  1.0000
  H   H205      1.0  0.31657  0.18369  0.08747  1.0000
  H   H206      1.0  0.69009  0.18459000000000006  0.9690200000000002  1.0000
  H   H207      1.0  0.67753  0.12974  0.99518  1.0000
  H   H208      1.0  0.77601  0.12536  0.06844  1.0000
  H   H209      1.0  0.8923  0.2696200000000001  0.09144  1.0000
  H   H210      1.0  0.75331  0.2614  0.016930000000000008  1.0000
  H   H211      1.0  0.87649  0.7808900000000002  0.7744800000000002  1.0000
  H   H212      1.0  0.005460000000000047  0.9249400000000002  0.79343  1.0000
  H   H213      1.0  0.8659799999999999  0.9159000000000003  0.71921  1.0000
  H   H214      1.0  0.8112599999999999  0.8334600000000002  0.67257  1.0000
  H   H215      1.0  0.7772  0.78216  0.7039  1.0000
  H   H216      1.0  0.64505  0.87362  0.65002  1.0000
  H   H217      1.0  0.42675  0.8943700000000002  0.65761  1.0000
  H   H218      1.0  0.3778300000000001  0.8088000000000002  0.76976  1.0000
  H   H219      1.0  0.59637  0.7888100000000002  0.76253  1.0000
  H   H220      1.0  0.24798  0.90087  0.70575  1.0000
  H   H221      1.0  0.22960000000000008  0.8659600000000002  0.75224  1.0000
  H   H222      1.0  0.12641  0.8742900000000002  0.64225  1.0000
  H   H223      1.0  0.99287  0.7334900000000002  0.6732000000000002  1.0000
  H   H224      1.0  0.15279000000000006  0.7714800000000003  0.73763  1.0000
  C   C1        1.0  0.07212  0.22862000000000002  0.683  1.0000
  C   C2        1.0  0.06663  0.17703000000000005  0.6901300000000002  1.0000
  C   C3        1.0  0.97744  0.14484  0.66759  1.0000
  C   C4        1.0  0.9787199999999999  0.09605  0.67052  1.0000
  C   C5        1.0  0.73835  0.7242600000000002  0.61244  1.0000
  C   C6        1.0  0.27912  0.4074800000000001  0.66095  1.0000
  C   C7        1.0  0.5167000000000002  0.7053100000000002  0.63648  1.0000
  C   C8        1.0  0.62823  0.68968  0.62322  1.0000
  C   C9        1.0  0.63314  0.6400700000000002  0.61648  1.0000
  C   C10       1.0  0.52586  0.60742  0.62079  1.0000
  C   C11       1.0  0.41003000000000006  0.6241100000000003  0.6326800000000002  1.0000
  C   C12       1.0  0.40644  0.67351  0.64186  1.0000
  C   C13       1.0  0.2906100000000001  0.6898500000000002  0.65364  1.0000
  C   C14       1.0  0.18105999999999997  0.65921  0.65543  1.0000
  C   C15       1.0  0.18334  0.6110200000000001  0.6451700000000002  1.0000
  C   C16       1.0  0.29435  0.5938600000000003  0.63421  1.0000
  C   C17       1.0  0.53279  0.55629  0.60849  1.0000
  C   C18       1.0  0.46562999999999993  0.4430300000000001  0.70101  1.0000
  C   C19       1.0  0.38442  0.4454100000000001  0.66726  1.0000
  C   C20       1.0  0.40584  0.4839000000000001  0.6379200000000003  1.0000
  C   C21       1.0  0.50832  0.51861  0.64243  1.0000
  C   C22       1.0  0.59253  0.51562  0.67713  1.0000
  C   C23       1.0  0.56916  0.4776200000000001  0.70719  1.0000
  C   C24       1.0  0.65224  0.4746  0.74186  1.0000
  C   C25       1.0  0.75641  0.50735  0.74689  1.0000
  C   C26       1.0  0.78167  0.5442300000000001  0.71705  1.0000
  C   C27       1.0  0.7022300000000001  0.5483300000000001  0.68318  1.0000
  C   C28       1.0  0.93469  0.90153  0.58893  1.0000
  C   C29       1.0  0.05189000000000009  0.9720300000000002  0.5553  1.0000
  C   C30       1.0  0.9687699999999998  0.9532400000000002  0.58613  1.0000
  C   C31       1.0  0.9161299999999999  0.9842400000000001  0.6150700000000002  1.0000
  C   C32       1.0  0.94505  0.03313000000000001  0.6122900000000002  1.0000
  C   C33       1.0  0.02677  0.05229000000000002  0.57933  1.0000
  C   C34       1.0  0.08344  0.021190000000000004  0.55119  1.0000
  C   C35       1.0  0.16727  0.040250000000000015  0.51904  1.0000
  C   C36       1.0  0.19456  0.08835000000000001  0.51397  1.0000
  C   C37       1.0  0.13622  0.11904  0.54068  1.0000
  C   C38       1.0  0.05456  0.10178  0.5723  1.0000
  C   C39       1.0  0.8867299999999999  0.06421  0.64379  1.0000
  C   C40       1.0  0.15165  0.15915000000000004  0.7171  1.0000
  C   C41       1.0  0.15238  0.11006000000000003  0.72267  1.0000
  C   C42       1.0  0.06533000000000001  0.07796000000000003  0.69878  1.0000
  C   C43       1.0  0.06999  0.028680000000000008  0.7049300000000002  1.0000
  C   C44       1.0  0.15498  0.012420000000000002  0.73264  1.0000
  C   C45       1.0  0.2406  0.044030000000000014  0.75589  1.0000
  C   C46       1.0  0.23867  0.09199000000000003  0.7508600000000002  1.0000
  C   C47       1.0  0.02005  0.72674  0.52343  1.0000
  C   C48       1.0  0.12584000000000006  0.7681000000000002  0.4729  1.0000
  C   C49       1.0  0.07343000000000001  0.79828  0.49961  1.0000
  C   C50       1.0  0.12898000000000007  0.6788700000000002  0.4712  1.0000
  C   C51       1.0  0.26689  0.67514  0.47853  1.0000
  C   C52       1.0  0.31184000000000006  0.6690400000000001  0.51947  1.0000
  C   C53       1.0  0.43958  0.66709  0.52639  1.0000
  C   C54       1.0  0.52464  0.6707700000000001  0.4925900000000001  1.0000
  C   C55       1.0  0.48006  0.67674  0.45171  1.0000
  C   C56       1.0  0.35186  0.67902  0.44482  1.0000
  C   C57       1.0  0.66214  0.6667400000000002  0.50168  1.0000
  C   C58       1.0  0.79034  0.66329  0.43564  1.0000
  C   C59       1.0  0.84647  0.7385000000000003  0.42433  1.0000
  C   C60       1.0  0.7798700000000001  0.7350100000000003  0.46142  1.0000
  C   C61       1.0  0.89443  0.31877000000000005  0.72955  1.0000
  C   C62       1.0  0.95954  0.39377000000000006  0.72127  1.0000
  C   C63       1.0  0.88997  0.38963000000000003  0.75781  1.0000
  C   C64       1.0  0.7705499999999998  0.31988  0.79695  1.0000
  C   C65       1.0  0.6358  0.3302500000000001  0.79353  1.0000
  C   C66       1.0  0.58701  0.3593000000000001  0.82341  1.0000
  C   C67       1.0  0.46408999999999995  0.3706200000000001  0.8194  1.0000
  C   C68       1.0  0.38842  0.3529  0.78574  1.0000
  C   C69       1.0  0.43636  0.3229800000000001  0.7562800000000002  1.0000
  C   C70       1.0  0.55928  0.31185  0.76022  1.0000
  C   C71       1.0  0.25614  0.36565  0.78127  1.0000
  C   C72       1.0  0.11097  0.3400500000000001  0.84121  1.0000
  C   C73       1.0  0.045230000000000034  0.2675500000000001  0.8232000000000003  1.0000
  C   C74       1.0  0.12439000000000001  0.28599000000000013  0.7916200000000002  1.0000
  C   C75       1.0  0.9287899999999999  0.27168  0.18311  1.0000
  C   C76       1.0  0.9341799999999999  0.32321  0.19014  1.0000
  C   C77       1.0  0.023409999999999997  0.3554  0.16745  1.0000
  C   C78       1.0  0.02260000000000004  0.4041800000000001  0.17045  1.0000
  C   C79       1.0  0.26235  0.778  0.11213000000000002  1.0000
  C   C80       1.0  0.72398  0.09371000000000003  0.16197  1.0000
  C   C81       1.0  0.48501000000000005  0.7961500000000002  0.13567  1.0000
  C   C82       1.0  0.37409  0.8121300000000002  0.12227  1.0000
  C   C83       1.0  0.37066000000000004  0.8618200000000003  0.11517  1.0000
  C   C84       1.0  0.47819000000000006  0.8942300000000002  0.11976  1.0000
  C   C85       1.0  0.59316  0.87713  0.13199  1.0000
  C   C86       1.0  0.5956600000000001  0.8276600000000001  0.14114  1.0000
  C   C87       1.0  0.71078  0.8109700000000002  0.1532  1.0000
  C   C88       1.0  0.82055  0.84141  0.15538  1.0000
  C   C89       1.0  0.81928  0.8897400000000001  0.14531000000000005  1.0000
  C   C90       1.0  0.70896  0.9071800000000002  0.13401  1.0000
  C   C91       1.0  0.47269999999999995  0.9456200000000002  0.10778  1.0000
  C   C92       1.0  0.53535  0.05794000000000001  0.20119000000000006  1.0000
  C   C93       1.0  0.61822  0.05585000000000001  0.16787  1.0000
  C   C94       1.0  0.5987099999999999  0.01752  0.13846  1.0000
  C   C95       1.0  0.49578  0.9828300000000002  0.14211  1.0000
  C   C96       1.0  0.41023  0.9854000000000003  0.1765  1.0000
  C   C97       1.0  0.4321999999999999  0.02302  0.20686  1.0000
  C   C98       1.0  0.34833  0.025290000000000007  0.24143  1.0000
  C   C99       1.0  0.24489000000000002  0.9921000000000001  0.24612  1.0000
  C   C100      1.0  0.22087000000000007  0.9556900000000003  0.21590000000000006  1.0000
  C   C101      1.0  0.30083000000000004  0.9524100000000002  0.18203  1.0000
  C   C102      1.0  0.06317000000000005  0.5989700000000002  0.08964000000000003  1.0000
  C   C103      1.0  0.94727  0.52832  0.05562  1.0000
  C   C104      1.0  0.030020000000000078  0.5471800000000002  0.08648  1.0000
  C   C105      1.0  0.08401  0.51605  0.11508  1.0000
  C   C106      1.0  0.05608000000000002  0.4671600000000001  0.11216000000000002  1.0000
  C   C107      1.0  0.97492  0.44799000000000005  0.07915  1.0000
  C   C108      1.0  0.91736  0.47910000000000014  0.05118  1.0000
  C   C109      1.0  0.83412  0.45994000000000007  0.01897  1.0000
  C   C110      1.0  0.80842  0.41181  0.01371  1.0000
  C   C111      1.0  0.86778  0.3811700000000001  0.04026  1.0000
  C   C112      1.0  0.9488099999999999  0.3985  0.07195  1.0000
  C   C113      1.0  0.11471000000000002  0.43604000000000004  0.14364  1.0000
  C   C114      1.0  0.84879  0.3409700000000001  0.21699  1.0000
  C   C115      1.0  0.8482  0.39005000000000006  0.22246  1.0000
  C   C116      1.0  0.93588  0.4221800000000001  0.1987  1.0000
  C   C117      1.0  0.93156  0.4714500000000001  0.20492  1.0000
  C   C118      1.0  0.84642  0.4876700000000001  0.23258  1.0000
  C   C119      1.0  0.7599799999999999  0.45601000000000014  0.25561  1.0000
  C   C120      1.0  0.76157  0.4080600000000001  0.2505  1.0000
  C   C121      1.0  0.98153  0.77412  0.02354  1.0000
  C   C122      1.0  0.8752099999999999  0.73245  0.97347  1.0000
  C   C123      1.0  0.9275399999999999  0.7024100000000002  0.00042  1.0000
  C   C124      1.0  0.87214  0.8216100000000002  0.97094  1.0000
  C   C125      1.0  0.7340600000000003  0.8251300000000003  0.9781400000000002  1.0000
  C   C126      1.0  0.6888  0.8311600000000002  0.01904  1.0000
  C   C127      1.0  0.56097  0.83295  0.02589  1.0000
  C   C128      1.0  0.47609999999999997  0.82918  0.99207  1.0000
  C   C129      1.0  0.5209500000000001  0.8232200000000002  0.95124  1.0000
  C   C130      1.0  0.64929  0.8211000000000003  0.94441  1.0000
  C   C131      1.0  0.33856  0.83311  0.00116  1.0000
  C   C132      1.0  0.20889000000000005  0.8366500000000001  0.93538  1.0000
  C   C133      1.0  0.15265000000000006  0.7614400000000001  0.92441  1.0000
  C   C134      1.0  0.22054  0.76492  0.9612100000000002  1.0000
  C   C135      1.0  0.10734000000000003  0.18123000000000006  0.22987000000000005  1.0000
  C   C136      1.0  0.04173  0.10631  0.2216  1.0000
  C   C137      1.0  0.11022999999999998  0.11028  0.25834  1.0000
  C   C138      1.0  0.2297  0.17982000000000006  0.29749  1.0000
  C   C139      1.0  0.36452  0.16956000000000004  0.29396  1.0000
  C   C140      1.0  0.41345  0.14028000000000004  0.32369  1.0000
  C   C141      1.0  0.53637  0.12901  0.31951  1.0000
  C   C142      1.0  0.6119  0.14704  0.28585  1.0000
  C   C143      1.0  0.56386  0.17723  0.25656  1.0000
  C   C144      1.0  0.44090999999999997  0.18827000000000002  0.26066  1.0000
  C   C145      1.0  0.74414  0.13429  0.28116  1.0000
  C   C146      1.0  0.8888  0.15922  0.34133  1.0000
  C   C147      1.0  0.9546399999999999  0.23190000000000005  0.32368000000000013  1.0000
  C   C148      1.0  0.8761  0.21373000000000006  0.29191  1.0000
  C   C149      1.0  0.92789  0.77139  0.317  1.0000
  C   C150      1.0  0.93338  0.8229800000000003  0.30987  1.0000
  C   C151      1.0  0.02258000000000007  0.8551600000000003  0.33242  1.0000
  C   C152      1.0  0.021300000000000038  0.9039600000000002  0.32948  1.0000
  C   C153      1.0  0.26166  0.27574  0.38756  1.0000
  C   C154      1.0  0.7208900000000001  0.5925200000000002  0.33905  1.0000
  C   C155      1.0  0.48331  0.2947  0.36352  1.0000
  C   C156      1.0  0.37178  0.3103200000000001  0.37678  1.0000
  C   C157      1.0  0.36688  0.3599400000000001  0.38352  1.0000
  C   C158      1.0  0.47415  0.39259  0.37921  1.0000
  C   C159      1.0  0.58998  0.3759000000000001  0.36732  1.0000
  C   C160      1.0  0.59357  0.3265  0.35814  1.0000
  C   C161      1.0  0.7094  0.3101500000000001  0.34636  1.0000
  C   C162      1.0  0.8189499999999998  0.34079  0.34457  1.0000
  C   C163      1.0  0.81668  0.3889900000000001  0.35483  1.0000
  C   C164      1.0  0.70566  0.40615  0.36579  1.0000
  C   C165      1.0  0.46722  0.4437200000000001  0.39151  1.0000
  C   C166      1.0  0.53438  0.55697  0.29899  1.0000
  C   C167      1.0  0.61559  0.5546  0.33275  1.0000
  C   C168      1.0  0.59417  0.5161000000000002  0.36208  1.0000
  C   C169      1.0  0.49168999999999996  0.4814  0.3575700000000001  1.0000
  C   C170      1.0  0.4074800000000001  0.4843900000000001  0.32287  1.0000
  C   C171      1.0  0.43085  0.5223900000000002  0.29281  1.0000
  C   C172      1.0  0.34777  0.52541  0.25814  1.0000
  C   C173      1.0  0.24360000000000004  0.4926500000000001  0.25311  1.0000
  C   C174      1.0  0.21834  0.45577  0.28296  1.0000
  C   C175      1.0  0.29778  0.45167  0.31682  1.0000
  C   C176      1.0  0.06532000000000002  0.09848000000000003  0.41107  1.0000
  C   C177      1.0  0.94812  0.02798000000000001  0.44471  1.0000
  C   C178      1.0  0.031240000000000004  0.04677000000000001  0.41387  1.0000
  C   C179      1.0  0.08388000000000001  0.01577  0.38493  1.0000
  C   C180      1.0  0.05497000000000006  0.9668800000000002  0.38771  1.0000
  C   C181      1.0  0.9732399999999999  0.9477200000000002  0.4206700000000001  1.0000
  C   C182      1.0  0.9165699999999999  0.97881  0.44881  1.0000
  C   C183      1.0  0.83274  0.95976  0.4809600000000001  1.0000
  C   C184      1.0  0.80545  0.9116600000000002  0.48603  1.0000
  C   C185      1.0  0.8637899999999998  0.8809700000000003  0.45932  1.0000
  C   C186      1.0  0.9454499999999999  0.8982200000000002  0.42770000000000014  1.0000
  C   C187      1.0  0.11328000000000009  0.9357900000000002  0.35621  1.0000
  C   C188      1.0  0.84836  0.8408600000000003  0.2829  1.0000
  C   C189      1.0  0.8476299999999999  0.88995  0.27733  1.0000
  C   C190      1.0  0.93468  0.92205  0.30122  1.0000
  C   C191      1.0  0.93002  0.9713300000000002  0.29507  1.0000
  C   C192      1.0  0.84503  0.98759  0.26736  1.0000
  C   C193      1.0  0.75941  0.9559800000000003  0.24411  1.0000
  C   C194      1.0  0.7613399999999999  0.9080200000000003  0.24914  1.0000
  C   C195      1.0  0.9799700000000002  0.2732700000000001  0.47657  1.0000
  C   C196      1.0  0.8741700000000001  0.23191000000000006  0.5271  1.0000
  C   C197      1.0  0.92658  0.20172  0.50039  1.0000
  C   C198      1.0  0.87103  0.3211300000000001  0.5288  1.0000
  C   C199      1.0  0.73312  0.32486  0.52148  1.0000
  C   C200      1.0  0.6881700000000001  0.3309700000000001  0.48054  1.0000
  C   C201      1.0  0.56043  0.33292  0.47361  1.0000
  C   C202      1.0  0.47537  0.3292400000000001  0.50741  1.0000
  C   C203      1.0  0.5199500000000001  0.3232700000000001  0.54829  1.0000
  C   C204      1.0  0.64816  0.32098  0.55519  1.0000
  C   C205      1.0  0.33787000000000006  0.33327  0.49833  1.0000
  C   C206      1.0  0.20967  0.33672  0.56436  1.0000
  C   C207      1.0  0.15354  0.2615  0.57567  1.0000
  C   C208      1.0  0.22013999999999997  0.26500000000000007  0.53859  1.0000
  C   C209      1.0  0.10558  0.68124  0.27045000000000013  1.0000
  C   C210      1.0  0.04047  0.60624  0.27873  1.0000
  C   C211      1.0  0.11004  0.61038  0.24219000000000004  1.0000
  C   C212      1.0  0.22946  0.68012  0.20305  1.0000
  C   C213      1.0  0.36422  0.6697500000000002  0.20647  1.0000
  C   C214      1.0  0.4129999999999999  0.64071  0.17659  1.0000
  C   C215      1.0  0.53593  0.6293900000000001  0.18061  1.0000
  C   C216      1.0  0.6116000000000001  0.6471100000000002  0.21426  1.0000
  C   C217      1.0  0.56365  0.67703  0.24372000000000005  1.0000
  C   C218      1.0  0.44073999999999997  0.68816  0.23978  1.0000
  C   C219      1.0  0.74387  0.6343500000000002  0.21873  1.0000
  C   C220      1.0  0.88904  0.65996  0.15879  1.0000
  C   C221      1.0  0.9547799999999999  0.7324600000000002  0.1768  1.0000
  C   C222      1.0  0.87563  0.7140200000000002  0.20838  1.0000
  C   C223      1.0  0.07122000000000006  0.7283300000000003  0.81689  1.0000
  C   C224      1.0  0.06584000000000002  0.67679  0.80986  1.0000
  C   C225      1.0  0.9765999999999999  0.64461  0.8325500000000002  1.0000
  C   C226      1.0  0.9774099999999999  0.59582  0.82955  1.0000
  C   C227      1.0  0.73766  0.22201000000000004  0.8878700000000003  1.0000
  C   C228      1.0  0.27603  0.9063  0.83803  1.0000
  C   C229      1.0  0.515  0.20386000000000007  0.86433  1.0000
  C   C230      1.0  0.62592  0.18787  0.87773  1.0000
  C   C231      1.0  0.62935  0.13819000000000004  0.88483  1.0000
  C   C232      1.0  0.52183  0.10578000000000001  0.88024  1.0000
  C   C233      1.0  0.40684999999999993  0.12287000000000002  0.86802  1.0000
  C   C234      1.0  0.40434999999999993  0.17235  0.8588600000000002  1.0000
  C   C235      1.0  0.28923  0.18904000000000007  0.8468  1.0000
  C   C236      1.0  0.17947  0.15859  0.84462  1.0000
  C   C237      1.0  0.18073  0.11027000000000003  0.8546900000000002  1.0000
  C   C238      1.0  0.29105  0.09282000000000003  0.86599  1.0000
  C   C239      1.0  0.52731  0.05439  0.89223  1.0000
  C   C240      1.0  0.46465999999999996  0.94207  0.7988100000000002  1.0000
  C   C241      1.0  0.38179  0.9441500000000003  0.83213  1.0000
  C   C242      1.0  0.40130000000000005  0.98248  0.86154  1.0000
  C   C243      1.0  0.50423  0.01717  0.85789  1.0000
  C   C244      1.0  0.58978  0.014600000000000004  0.82351  1.0000
  C   C245      1.0  0.56781  0.9769800000000001  0.79314  1.0000
  C   C246      1.0  0.65168  0.9747100000000002  0.75858  1.0000
  C   C247      1.0  0.7551199999999999  0.0079  0.75389  1.0000
  C   C248      1.0  0.7791399999999999  0.04432000000000001  0.78411  1.0000
  C   C249      1.0  0.69918  0.04759000000000001  0.81797  1.0000
  C   C250      1.0  0.9368399999999999  0.40104  0.9103600000000002  1.0000
  C   C251      1.0  0.05274000000000004  0.4716800000000001  0.94439  1.0000
  C   C252      1.0  0.96999  0.4528300000000001  0.91352  1.0000
  C   C253      1.0  0.916  0.4839500000000001  0.88492  1.0000
  C   C254      1.0  0.9439299999999999  0.53285  0.8878400000000002  1.0000
  C   C255      1.0  0.025099999999999994  0.55202  0.92085  1.0000
  C   C256      1.0  0.08266000000000007  0.5209100000000002  0.94882  1.0000
  C   C257      1.0  0.16589  0.54006  0.98103  1.0000
  C   C258      1.0  0.19159  0.58819  0.98629  1.0000
  C   C259      1.0  0.13223  0.6188400000000002  0.95974  1.0000
  C   C260      1.0  0.05120000000000007  0.6015100000000002  0.9280600000000002  1.0000
  C   C261      1.0  0.8853  0.56397  0.85636  1.0000
  C   C262      1.0  0.15123000000000006  0.6590400000000002  0.78301  1.0000
  C   C263      1.0  0.1518100000000001  0.6099500000000002  0.77754  1.0000
  C   C264      1.0  0.06413000000000003  0.5778200000000001  0.8013  1.0000
  C   C265      1.0  0.06845000000000002  0.5285600000000001  0.7950800000000002  1.0000
  C   C266      1.0  0.15359000000000006  0.5123400000000002  0.76742  1.0000
  C   C267      1.0  0.24004  0.54399  0.74439  1.0000
  C   C268      1.0  0.23843999999999999  0.59194  0.7495000000000003  1.0000
  C   C269      1.0  0.018480000000000003  0.22588  0.97647  1.0000
  C   C270      1.0  0.12480000000000004  0.2675500000000001  0.02653  1.0000
  C   C271      1.0  0.07247000000000003  0.2976000000000001  0.99958  1.0000
  C   C272      1.0  0.12787000000000004  0.17840000000000006  0.02906  1.0000
  C   C273      1.0  0.26595  0.17488000000000006  0.02186  1.0000
  C   C274      1.0  0.31121  0.16885  0.98097  1.0000
  C   C275      1.0  0.43904  0.16706  0.9741100000000003  1.0000
  C   C276      1.0  0.52391  0.17083  0.00793  1.0000
  C   C277      1.0  0.47906  0.17678000000000005  0.04876  1.0000
  C   C278      1.0  0.35072  0.17891000000000007  0.05559  1.0000
  C   C279      1.0  0.66146  0.16689000000000007  0.99884  1.0000
  C   C280      1.0  0.7911299999999999  0.16335000000000005  0.06462  1.0000
  C   C281      1.0  0.84737  0.23857  0.07559  1.0000
  C   C282      1.0  0.7794699999999999  0.23508000000000004  0.03879  1.0000
  C   C283      1.0  0.89268  0.81877  0.7701300000000002  1.0000
  C   C284      1.0  0.9582799999999999  0.8937000000000002  0.77841  1.0000
  C   C285      1.0  0.8897799999999999  0.8897300000000002  0.74167  1.0000
  C   C286      1.0  0.7703099999999999  0.82019  0.70251  1.0000
  C   C287      1.0  0.63549  0.8304500000000002  0.70604  1.0000
  C   C288      1.0  0.58656  0.85973  0.6763100000000002  1.0000
  C   C289      1.0  0.46364  0.871  0.68049  1.0000
  C   C290      1.0  0.38810999999999996  0.85297  0.71415  1.0000
  C   C291      1.0  0.43615  0.82278  0.74344  1.0000
  C   C292      1.0  0.5591000000000002  0.8117400000000002  0.73934  1.0000
  C   C293      1.0  0.25587000000000004  0.8657100000000001  0.7188400000000003  1.0000
  C   C294      1.0  0.11121  0.8407900000000001  0.65868  1.0000
  C   C295      1.0  0.04537000000000006  0.7681100000000002  0.67632  1.0000
  C   C296      1.0  0.12391000000000008  0.7862700000000002  0.70809  1.0000
  N   N1        1.0  0.00741000000000002  0.772  0.53091  1.0000
  N   N2        1.0  0.09086000000000001  0.72294  0.4883300000000001  1.0000
  N   N3        1.0  0.74595  0.6872100000000002  0.46837  1.0000
  N   N4        1.0  0.85253  0.6935000000000002  0.40853  1.0000
  N   N5        1.0  0.9614999999999999  0.3492800000000001  0.70383  1.0000
  N   N6        1.0  0.84982  0.34188  0.76265  1.0000
  N   N7        1.0  0.16432  0.33206000000000013  0.80351  1.0000
  N   N8        1.0  0.038050000000000014  0.30150000000000005  0.85393  1.0000
  N   N9        1.0  0.99392  0.7289000000000002  0.03142  1.0000
  N   N10       1.0  0.91057  0.77771  0.9884400000000002  1.0000
  N   N11       1.0  0.25457  0.81272  0.96795  1.0000
  N   N12       1.0  0.14578000000000008  0.8064400000000003  0.90858  1.0000
  N   N13       1.0  0.04077  0.15086  0.20403  1.0000
  N   N14       1.0  0.15069  0.15799000000000005  0.2631700000000001  1.0000
  N   N15       1.0  0.83604  0.16755000000000006  0.3035700000000001  1.0000
  N   N16       1.0  0.9614  0.19766000000000006  0.3543000000000001  1.0000
  N   N17       1.0  0.9925999999999999  0.22801  0.4690900000000001  1.0000
  N   N18       1.0  0.90915  0.27707  0.51167  1.0000
  N   N19       1.0  0.25406000000000006  0.31280000000000013  0.53163  1.0000
  N   N20       1.0  0.14748  0.3065100000000001  0.59147  1.0000
  N   N21       1.0  0.03852000000000007  0.6507300000000003  0.2961700000000001  1.0000
  N   N22       1.0  0.15019000000000007  0.6581200000000003  0.23735000000000006  1.0000
  N   N23       1.0  0.83569  0.6679500000000003  0.19649  1.0000
  N   N24       1.0  0.96196  0.69851  0.14607  1.0000
  N   N25       1.0  0.006090000000000003  0.27111  0.9685800000000002  1.0000
  N   N26       1.0  0.08944  0.22230000000000005  0.01156  1.0000
  N   N27       1.0  0.74544  0.18728  0.03205  1.0000
  N   N28       1.0  0.8542399999999999  0.19357000000000002  0.09142000000000003  1.0000
  N   N29       1.0  0.95924  0.8491500000000001  0.7959700000000002  1.0000
  N   N30       1.0  0.8493299999999999  0.84202  0.73683  1.0000
  N   N31       1.0  0.16398000000000004  0.83245  0.69643  1.0000
  N   N32       1.0  0.038610000000000075  0.8023500000000002  0.6457  1.0000
  O   O1        1.0  0.16206000000000004  0.2571200000000001  0.69771  1.0000
  O   O2        1.0  0.98439  0.24424000000000007  0.66028  1.0000
  O   O3        1.0  0.7255700000000002  0.7684200000000002  0.61202  1.0000
  O   O4        1.0  0.84309  0.7089600000000003  0.60222  1.0000
  O   O5        1.0  0.19453  0.41238000000000014  0.6329200000000003  1.0000
  O   O6        1.0  0.27535  0.36997000000000013  0.68351  1.0000
  O   O7        1.0  0.7433800000000002  0.6248400000000002  0.60401  1.0000
  O   O8        1.0  0.32549  0.48598000000000013  0.60468  1.0000
  O   O9        1.0  0.98197  0.87459  0.5626  1.0000
  O   O10       1.0  0.8588799999999999  0.8843800000000003  0.61832  1.0000
  O   O11       1.0  0.8374099999999999  0.96542  0.64617  1.0000
  O   O12       1.0  0.89262  0.16205  0.64146  1.0000
  O   O13       1.0  0.83854  0.24309000000000006  0.19761  1.0000
  O   O14       1.0  0.01737  0.25624  0.1606  1.0000
  O   O15       1.0  0.27488999999999997  0.7338200000000001  0.11036  1.0000
  O   O16       1.0  0.15689  0.79377  0.104  1.0000
  O   O17       1.0  0.8119499999999998  0.08801000000000003  0.1353  1.0000
  O   O18       1.0  0.72494  0.13188  0.18333  1.0000
  O   O19       1.0  0.26153  0.8773800000000003  0.10204  1.0000
  O   O20       1.0  0.68136  0.01575  0.10593000000000002  1.0000
  O   O21       1.0  0.012279999999999973  0.62632  0.06452000000000001  1.0000
  O   O22       1.0  0.14232999999999996  0.61576  0.11816  1.0000
  O   O23       1.0  0.16280000000000006  0.5347200000000002  0.14611000000000005  1.0000
  O   O24       1.0  0.10735000000000004  0.3381800000000001  0.14102  1.0000
  O   O25       1.0  0.83795  0.74288  0.30229  1.0000
  O   O26       1.0  0.01563000000000006  0.7557700000000003  0.33972  1.0000
  O   O27       1.0  0.27444  0.23159000000000005  0.3879800000000001  1.0000
  O   O28       1.0  0.15692000000000003  0.2910500000000001  0.39779  1.0000
  O   O29       1.0  0.8054899999999999  0.5876300000000002  0.36708  1.0000
  O   O30       1.0  0.72466  0.63004  0.31649000000000005  1.0000
  O   O31       1.0  0.2566300000000001  0.3751700000000001  0.39599  1.0000
  O   O32       1.0  0.6745200000000001  0.5140300000000002  0.3953200000000001  1.0000
  O   O33       1.0  0.018039999999999994  0.12542  0.43741  1.0000
  O   O34       1.0  0.14113  0.11562  0.38168  1.0000
  O   O35       1.0  0.1626  0.03458  0.35383  1.0000
  O   O36       1.0  0.10739000000000008  0.8379500000000002  0.35854  1.0000
  O   O37       1.0  0.16147000000000003  0.7569100000000002  0.8023900000000003  1.0000
  O   O38       1.0  0.98264  0.74377  0.8394  1.0000
  O   O39       1.0  0.72512  0.26619  0.88964  1.0000
  O   O40       1.0  0.84312  0.20624  0.896  1.0000
  O   O41       1.0  0.1880600000000001  0.9120000000000003  0.8647  1.0000
  O   O42       1.0  0.27507  0.86812  0.81667  1.0000
  O   O43       1.0  0.73848  0.12262  0.8979600000000002  1.0000
  O   O44       1.0  0.31865999999999994  0.98426  0.89407  1.0000
  O   O45       1.0  0.98773  0.37368  0.93548  1.0000
  O   O46       1.0  0.8576799999999999  0.38424000000000014  0.88184  1.0000
  O   O47       1.0  0.83721  0.4652900000000001  0.8538900000000003  1.0000
  O   O48       1.0  0.89266  0.66183  0.8589800000000002  1.0000
