data_image0
_chemical_formula_structural       Mn24H312C336N64O72
_chemical_formula_sum              "Mn24 H312 C336 N64 O72"
_cell_length_a       17.61932
_cell_length_b       30.17802
_cell_length_c       30.17626
_cell_angle_alpha    85.08090000000001
_cell_angle_beta     73.00344
_cell_angle_gamma    72.9894

_symmetry_space_group_name_H-M    'P 1'
_symmetry_Int_Tables_number       1

loop_
  _symmetry_equiv_pos_as_xyz
  'x,y,z'

loop_
  _atom_site_type_symbol
  _atom_site_label
  _atom_site_symmetry_multiplicity
  _atom_site_fract_x
  _atom_site_fract_y
  _atom_site_fract_z
  _atom_site_occupancy
  Mn  Mn1       1.0  0.20892000000000002  0.8846699999999997  0.53094  1.0000
  Mn  Mn2       1.0  0.28312000000000004  0.00137  0.42017  1.0000
  Mn  Mn3       1.0  0.9428500000000002  0.9163199999999999  0.6428999999999999  1.0000
  Mn  Mn4       1.0  0.6241999999999999  0.61531  0.96901  1.0000
  Mn  Mn5       1.0  0.70442  0.49863  0.07992  1.0000
  Mn  Mn6       1.0  0.50192  0.58359  0.85695  1.0000
  Mn  Mn7       1.0  0.5929500000000002  0.53106  0.61537  1.0000
  Mn  Mn8       1.0  0.78365  0.4203199999999999  0.4985899999999999  1.0000
  Mn  Mn9       1.0  0.35845000000000005  0.64312  0.5838399999999999  1.0000
  Mn  Mn10      1.0  0.7395  0.9691  0.88461  1.0000
  Mn  Mn11      1.0  0.7033700000000003  0.0799  0.0012099999999999997  1.0000
  Mn  Mn12      1.0  0.5854200000000002  0.8572399999999998  0.9163899999999999  1.0000
  Mn  Mn13      1.0  0.79108  0.11533999999999997  0.4690599999999999  1.0000
  Mn  Mn14      1.0  0.7168800000000001  0.99863  0.57983  1.0000
  Mn  Mn15      1.0  0.05714999999999999  0.08368  0.3571  1.0000
  Mn  Mn16      1.0  0.37579999999999997  0.3847  0.03099  1.0000
  Mn  Mn17      1.0  0.29557  0.50137  0.92008  1.0000
  Mn  Mn18      1.0  0.49808  0.41641  0.14304999999999998  1.0000
  Mn  Mn19      1.0  0.40704000000000007  0.46894  0.38463  1.0000
  Mn  Mn20      1.0  0.21635  0.57969  0.50141  1.0000
  Mn  Mn21      1.0  0.6415500000000002  0.35688  0.41616  1.0000
  Mn  Mn22      1.0  0.2605  0.030909999999999993  0.11539  1.0000
  Mn  Mn23      1.0  0.2966300000000002  0.9201  0.99879  1.0000
  Mn  Mn24      1.0  0.41458000000000006  0.14277  0.08361  1.0000
  H   H1        1.0  0.3158499999999999  0.8839  0.64522  1.0000
  H   H2        1.0  0.4081800000000004  0.9287699999999998  0.6557  1.0000
  H   H3        1.0  0.46069000000000043  0.9804299999999998  0.59246  1.0000
  H   H4        1.0  0.41599  0.98839  0.52013  1.0000
  H   H5        1.0  0.21822000000000003  0.92418  0.37194  1.0000
  H   H6        1.0  0.12195000000000027  0.9571399999999998  0.40457  1.0000
  H   H7        1.0  0.16832000000000003  0.85106  0.39047  1.0000
  H   H8        1.0  0.10523000000000002  0.89441  0.36264  1.0000
  H   H9        1.0  0.07118000000000008  0.8853099999999999  0.42327  1.0000
  H   H10       1.0  0.4890700000000002  0.9251099999999998  0.30851  1.0000
  H   H11       1.0  0.5028400000000002  0.9206799999999998  0.2242  1.0000
  H   H12       1.0  0.38483000000000017  0.9644999999999999  0.19265  1.0000
  H   H13       1.0  0.25619  0.011469999999999996  0.24608  1.0000
  H   H14       1.0  0.026789999999999994  0.12482  0.45608  1.0000
  H   H15       1.0  0.019820000000000018  0.08317  0.50035  1.0000
  H   H16       1.0  0.1222900000000001  0.10759999999999997  0.53008  1.0000
  H   H17       1.0  0.03364000000000003  0.15484999999999993  0.52994  1.0000
  H   H18       1.0  0.12798  0.15043  0.48611  1.0000
  H   H19       1.0  0.31699  0.06635  0.48386  1.0000
  H   H20       1.0  0.3752700000000002  0.13287  0.48057  1.0000
  H   H21       1.0  0.42865  0.12979  0.33157  1.0000
  H   H22       1.0  0.3691300000000002  0.06293  0.34121  1.0000
  H   H23       1.0  0.4974700000000002  0.1717  0.36961  1.0000
  H   H24       1.0  0.39871000000000006  0.2093  0.39275  1.0000
  H   H25       1.0  0.8966800000000001  0.7862  0.7010799999999999  1.0000
  H   H26       1.0  0.9906000000000001  0.70545  0.68998  1.0000
  H   H27       1.0  0.13260000000000005  0.69028  0.63383  1.0000
  H   H28       1.0  0.17523000000000008  0.7553299999999997  0.58867  1.0000
  H   H29       1.0  0.1262000000000003  0.99217  0.53142  1.0000
  H   H30       1.0  0.028750000000000036  0.03104  0.5575699999999999  1.0000
  H   H31       1.0  0.16852000000000003  0.99301  0.60504  1.0000
  H   H32       1.0  0.14206000000000002  0.04933  0.58114  1.0000
  H   H33       1.0  0.07065000000000003  0.03285  0.63023  1.0000
  H   H34       1.0  0.69513  0.24758999999999995  0.40948999999999997  1.0000
  H   H35       1.0  0.6350800000000001  0.18096  0.4238  1.0000
  H   H36       1.0  0.39430000000000026  0.27968  0.4423  1.0000
  H   H37       1.0  0.46468000000000037  0.3422399999999999  0.42609  1.0000
  H   H38       1.0  0.51214  0.15359  0.45073  1.0000
  H   H39       1.0  0.41461  0.19425  0.47303  1.0000
  H   H40       1.0  0.84442  0.61634  0.8548899999999999  1.0000
  H   H41       1.0  0.9923400000000001  0.57138  0.8442599999999998  1.0000
  H   H42       1.0  0.03336999999999996  0.51973  0.9075  1.0000
  H   H43       1.0  0.9242100000000001  0.51172  0.97987  1.0000
  H   H44       1.0  0.51425  0.57569  0.12793  1.0000
  H   H45       1.0  0.48345000000000005  0.54284  0.0953  1.0000
  H   H46       1.0  0.40951000000000026  0.6488899999999997  0.10964  1.0000
  H   H47       1.0  0.36207000000000017  0.60554  0.13761  1.0000
  H   H48       1.0  0.37904  0.61473  0.07702  1.0000
  H   H49       1.0  0.7224800000000003  0.57488  0.19161  1.0000
  H   H50       1.0  0.64754  0.5792799999999998  0.27591  1.0000
  H   H51       1.0  0.5418299999999999  0.53549  0.3075  1.0000
  H   H52       1.0  0.5133900000000001  0.48867  0.25415  1.0000
  H   H53       1.0  0.6079400000000001  0.37495  0.04378999999999999  1.0000
  H   H54       1.0  0.6036500000000002  0.4167999999999999  0.99968  1.0000
  H   H55       1.0  0.7600800000000001  0.3925099999999999  0.96996  1.0000
  H   H56       1.0  0.7189300000000001  0.34516  0.9699299999999997  1.0000
  H   H57       1.0  0.76497  0.3495  0.013769999999999996  1.0000
  H   H58       1.0  0.8674200000000001  0.43375  0.01611  1.0000
  H   H59       1.0  0.9888600000000002  0.36713  0.01941  1.0000
  H   H60       1.0  0.8899700000000004  0.3703099999999999  0.16839999999999997  1.0000
  H   H61       1.0  0.7732100000000001  0.43721  0.15875  1.0000
  H   H62       1.0  0.03876000000000005  0.32823999999999987  0.13036  1.0000
  H   H63       1.0  0.0008300000000000144  0.2907  0.10717999999999998  1.0000
  H   H64       1.0  0.3838700000000001  0.71383  0.79869  1.0000
  H   H65       1.0  0.38621000000000016  0.79449  0.8097  1.0000
  H   H66       1.0  0.4562499999999999  0.80965  0.8661  1.0000
  H   H67       1.0  0.5189700000000003  0.7444799999999998  0.91115  1.0000
  H   H68       1.0  0.6492600000000002  0.50743  0.96857  1.0000
  H   H69       1.0  0.6169400000000005  0.46881  0.94204  1.0000
  H   H70       1.0  0.7659299999999999  0.5071  0.89483  1.0000
  H   H71       1.0  0.7724300000000002  0.45075  0.91869  1.0000
  H   H72       1.0  0.7334900000000002  0.46716999999999986  0.8696399999999997  1.0000
  H   H73       1.0  0.35213999999999995  0.25224  0.09074  1.0000
  H   H74       1.0  0.24004  0.31894  0.07609  1.0000
  H   H75       1.0  0.11633  0.2204  0.05764  1.0000
  H   H76       1.0  0.23274000000000003  0.15777  0.0742  1.0000
  H   H77       1.0  0.11650000000000002  0.34642999999999996  0.04925  1.0000
  H   H78       1.0  0.08201000000000006  0.3057799999999999  0.026919999999999993  1.0000
  H   H79       1.0  0.69951  0.6451  0.6161899999999999  1.0000
  H   H80       1.0  0.83686  0.65553  0.5711999999999999  1.0000
  H   H81       1.0  0.94105  0.5921499999999997  0.51971  1.0000
  H   H82       1.0  0.9038799999999999  0.51998  0.51161  1.0000
  H   H83       1.0  0.64207  0.37221  0.57585  1.0000
  H   H84       1.0  0.5784900000000002  0.40469  0.54294  1.0000
  H   H85       1.0  0.5188999999999999  0.3903  0.64902  1.0000
  H   H86       1.0  0.49953000000000014  0.36241999999999996  0.60559  1.0000
  H   H87       1.0  0.4558300000000001  0.4230099999999999  0.61484  1.0000
  H   H88       1.0  0.91377  0.30859  0.57492  1.0000
  H   H89       1.0  0.92346  0.22428  0.57923  1.0000
  H   H90       1.0  0.84941  0.19263999999999995  0.53546  1.0000
  H   H91       1.0  0.76765  0.24600999999999995  0.48855999999999994  1.0000
  H   H92       1.0  0.6514300000000002  0.4561199999999999  0.37471  1.0000
  H   H93       1.0  0.6025700000000004  0.50033  0.41644  1.0000
  H   H94       1.0  0.7296499999999998  0.52981  0.39253  1.0000
  H   H95       1.0  0.68883  0.53004  0.3449999999999999  1.0000
  H   H96       1.0  0.7784199999999999  0.486  0.34956  1.0000
  H   H97       1.0  0.8831800000000001  0.4839  0.43369  1.0000
  H   H98       1.0  0.008100000000000046  0.48060999999999987  0.36723  1.0000
  H   H99       1.0  0.058370000000000116  0.3315999999999999  0.37037999999999993  1.0000
  H   H100      1.0  0.9317600000000001  0.34125  0.43712  1.0000
  H   H101      1.0  0.16911000000000004  0.36961  0.32831999999999995  1.0000
  H   H102      1.0  0.10799000000000002  0.39279  0.29074  1.0000
  H   H103      1.0  0.18222000000000002  0.70131  0.71406  1.0000
  H   H104      1.0  0.19597000000000003  0.69034  0.79463  1.0000
  H   H105      1.0  0.32258000000000026  0.6339299999999999  0.80969  1.0000
  H   H106      1.0  0.43018000000000006  0.58883  0.74448  1.0000
  H   H107      1.0  0.61778  0.53156  0.50752  1.0000
  H   H108      1.0  0.55888  0.5580999999999998  0.46896  1.0000
  H   H109      1.0  0.66121  0.60517  0.50693  1.0000
  H   H110      1.0  0.6911200000000001  0.58116  0.45069  1.0000
  H   H111      1.0  0.6034  0.63039  0.46704  1.0000
  H   H112      1.0  0.4428799999999999  0.40967999999999993  0.25227  1.0000
  H   H113      1.0  0.31614999999999993  0.42381  0.31895  1.0000
  H   H114      1.0  0.17409  0.44229  0.22028999999999996  1.0000
  H   H115      1.0  0.30709  0.42627999999999994  0.15771  1.0000
  H   H116      1.0  0.16582999999999998  0.45071  0.34636  1.0000
  H   H117      1.0  0.10894999999999996  0.47305  0.30574  1.0000
  H   H118      1.0  0.96063  0.8548499999999999  0.88389  1.0000
  H   H119      1.0  0.06352999999999995  0.84416  0.92885  1.0000
  H   H120      1.0  0.053249999999999915  0.90742  0.98026  1.0000
  H   H121      1.0  0.9362100000000001  0.97979  0.98837  1.0000
  H   H122      1.0  0.58964  0.12803  0.92424  1.0000
  H   H123      1.0  0.5257699999999998  0.09552  0.95712  1.0000
  H   H124      1.0  0.55814  0.10977  0.85106  1.0000
  H   H125      1.0  0.4673800000000001  0.13769  0.89438  1.0000
  H   H126      1.0  0.4935800000000001  0.07711  0.88525  1.0000
  H   H127      1.0  0.7974799999999996  0.19188  0.92487  1.0000
  H   H128      1.0  0.72635  0.27613  0.92067  1.0000
  H   H129      1.0  0.5769000000000001  0.3074099999999999  0.96493  1.0000
  H   H130      1.0  0.50208  0.25363  0.01142  1.0000
  H   H131      1.0  0.48315  0.04404  0.12467  1.0000
  H   H132      1.0  0.5200900000000003  0.99965  0.08318  1.0000
  H   H133      1.0  0.6525600000000001  0.96989  0.10757  1.0000
  H   H134      1.0  0.5637000000000001  0.97007  0.15479  1.0000
  H   H135      1.0  0.6141500000000002  0.0139  0.15035  1.0000
  H   H136      1.0  0.80091  0.01615  0.06634  1.0000
  H   H137      1.0  0.8559900000000001  0.0194  0.13286  1.0000
  H   H138      1.0  0.7601900000000001  0.16839999999999997  0.12972  1.0000
  H   H139      1.0  0.7102700000000001  0.15879999999999997  0.06287  1.0000
  H   H140      1.0  0.8669799999999999  0.13038  0.17164  1.0000
  H   H141      1.0  0.79147  0.10717999999999997  0.20922  1.0000
  H   H142      1.0  0.5973200000000001  0.79907  0.7860799999999999  1.0000
  H   H143      1.0  0.6809100000000001  0.8099099999999998  0.70549  1.0000
  H   H144      1.0  0.76661  0.86611  0.69039  1.0000
  H   H145      1.0  0.7636300000000004  0.91134  0.75547  1.0000
  H   H146      1.0  0.65759  0.96858  0.99237  1.0000
  H   H147      1.0  0.5863900000000002  0.9422299999999998  0.031  1.0000
  H   H148      1.0  0.7738000000000005  0.8948699999999998  0.99317  1.0000
  H   H149      1.0  0.72329  0.91887  0.04939  1.0000
  H   H150      1.0  0.7010200000000002  0.8697599999999998  0.03302  1.0000
  H   H151      1.0  0.10459000000000003  0.09048  0.24765999999999996  1.0000
  H   H152      1.0  0.05895000000000006  0.07618999999999997  0.181  1.0000
  H   H153      1.0  0.8365800000000003  0.05775  0.27961  1.0000
  H   H154      1.0  0.89067  0.07392  0.34222  1.0000
  H   H155      1.0  0.9630600000000001  0.049279999999999984  0.15357  1.0000
  H   H156      1.0  0.88791  0.02692  0.19421  1.0000
  H   H157      1.0  0.6841400000000002  0.11611  0.35478  1.0000
  H   H158      1.0  0.59181  0.07123  0.3443  1.0000
  H   H159      1.0  0.5393100000000001  0.01958  0.40754  1.0000
  H   H160      1.0  0.5840000000000002  0.01161  0.47987  1.0000
  H   H161      1.0  0.7817800000000001  0.07582  0.6280599999999998  1.0000
  H   H162      1.0  0.87804  0.042869999999999985  0.59543  1.0000
  H   H163      1.0  0.83168  0.14894  0.60953  1.0000
  H   H164      1.0  0.8947700000000001  0.10559999999999997  0.6373599999999999  1.0000
  H   H165      1.0  0.92882  0.11468999999999997  0.57673  1.0000
  H   H166      1.0  0.5109200000000002  0.07489  0.69149  1.0000
  H   H167      1.0  0.49715999999999994  0.07933  0.7758  1.0000
  H   H168      1.0  0.61517  0.03551  0.8073499999999999  1.0000
  H   H169      1.0  0.74381  0.98853  0.75392  1.0000
  H   H170      1.0  0.97321  0.87518  0.54392  1.0000
  H   H171      1.0  0.9801800000000002  0.91683  0.49964999999999987  1.0000
  H   H172      1.0  0.8777100000000001  0.8924099999999998  0.46992  1.0000
  H   H173      1.0  0.9663500000000003  0.8451499999999997  0.47005999999999987  1.0000
  H   H174      1.0  0.8720100000000001  0.8495799999999998  0.51389  1.0000
  H   H175      1.0  0.6830100000000001  0.93365  0.51614  1.0000
  H   H176      1.0  0.62473  0.86713  0.51943  1.0000
  H   H177      1.0  0.5713500000000002  0.8702099999999998  0.66843  1.0000
  H   H178      1.0  0.6308699999999999  0.93707  0.65879  1.0000
  H   H179      1.0  0.5025300000000003  0.8282999999999998  0.63039  1.0000
  H   H180      1.0  0.6012900000000001  0.7907  0.60725  1.0000
  H   H181      1.0  0.10331  0.21381  0.29892  1.0000
  H   H182      1.0  0.009389999999999987  0.29456  0.31002  1.0000
  H   H183      1.0  0.8674  0.30972  0.36617  1.0000
  H   H184      1.0  0.8247600000000005  0.24468  0.41132999999999986  1.0000
  H   H185      1.0  0.8738  0.00783  0.46858  1.0000
  H   H186      1.0  0.9712500000000006  0.9689599999999998  0.44243  1.0000
  H   H187      1.0  0.8314799999999999  0.006989999999999998  0.39496  1.0000
  H   H188      1.0  0.8579400000000006  0.9506699999999998  0.4188599999999999  1.0000
  H   H189      1.0  0.9293400000000004  0.96716  0.36976999999999993  1.0000
  H   H190      1.0  0.3048699999999999  0.75241  0.59051  1.0000
  H   H191      1.0  0.36492000000000013  0.8190399999999998  0.5762  1.0000
  H   H192      1.0  0.6056900000000001  0.72032  0.5577  1.0000
  H   H193      1.0  0.5353200000000001  0.65777  0.57391  1.0000
  H   H194      1.0  0.4878600000000002  0.8464199999999997  0.54927  1.0000
  H   H195      1.0  0.5853800000000002  0.8057499999999997  0.52697  1.0000
  H   H196      1.0  0.15556999999999999  0.38367  0.14511  1.0000
  H   H197      1.0  0.00766000000000004  0.42863  0.15573999999999996  1.0000
  H   H198      1.0  0.9666300000000002  0.48027  0.0925  1.0000
  H   H199      1.0  0.07579000000000002  0.48828  0.02013  1.0000
  H   H200      1.0  0.48574  0.42431  0.8720699999999999  1.0000
  H   H201      1.0  0.51654  0.45716  0.9047  1.0000
  H   H202      1.0  0.5904900000000001  0.3511099999999999  0.8903599999999998  1.0000
  H   H203      1.0  0.6379199999999999  0.39446  0.86239  1.0000
  H   H204      1.0  0.6209600000000001  0.38527  0.92298  1.0000
  H   H205      1.0  0.27752  0.42513  0.80839  1.0000
  H   H206      1.0  0.35245000000000015  0.42071999999999987  0.72409  1.0000
  H   H207      1.0  0.4581600000000002  0.46450999999999987  0.6925  1.0000
  H   H208      1.0  0.48660999999999976  0.51133  0.7458499999999999  1.0000
  H   H209      1.0  0.39206000000000013  0.6250499999999998  0.95621  1.0000
  H   H210      1.0  0.3963400000000001  0.5832099999999999  0.00032  1.0000
  H   H211      1.0  0.2399200000000002  0.6074999999999998  0.030039999999999994  1.0000
  H   H212      1.0  0.2810700000000001  0.6548399999999998  0.03007  1.0000
  H   H213      1.0  0.23503000000000002  0.65051  0.98623  1.0000
  H   H214      1.0  0.13258000000000003  0.56625  0.98389  1.0000
  H   H215      1.0  0.011139999999999978  0.63288  0.98059  1.0000
  H   H216      1.0  0.11002000000000013  0.6296999999999998  0.8316  1.0000
  H   H217      1.0  0.22678999999999988  0.56279  0.84125  1.0000
  H   H218      1.0  0.9612300000000003  0.6717599999999998  0.8696399999999997  1.0000
  H   H219      1.0  0.99917  0.7093  0.89282  1.0000
  H   H220      1.0  0.61612  0.28617999999999993  0.20131  1.0000
  H   H221      1.0  0.61379  0.20551  0.1903  1.0000
  H   H222      1.0  0.5437500000000001  0.19034999999999996  0.1339  1.0000
  H   H223      1.0  0.48102000000000017  0.25552  0.08885  1.0000
  H   H224      1.0  0.35074000000000016  0.4925799999999999  0.03143  1.0000
  H   H225      1.0  0.38305  0.53119  0.05796  1.0000
  H   H226      1.0  0.23407000000000006  0.4929  0.10517  1.0000
  H   H227      1.0  0.22757  0.54925  0.08131  1.0000
  H   H228      1.0  0.26650999999999997  0.53283  0.13036  1.0000
  H   H229      1.0  0.64786  0.74776  0.90926  1.0000
  H   H230      1.0  0.7599599999999999  0.68106  0.92391  1.0000
  H   H231      1.0  0.8836700000000003  0.7796  0.94236  1.0000
  H   H232      1.0  0.7672599999999999  0.84224  0.9258  1.0000
  H   H233      1.0  0.8835000000000001  0.6535699999999998  0.9507499999999999  1.0000
  H   H234      1.0  0.91798  0.69422  0.97308  1.0000
  H   H235      1.0  0.30049  0.3549  0.38381  1.0000
  H   H236      1.0  0.16312999999999997  0.34447  0.4288  1.0000
  H   H237      1.0  0.058950000000000086  0.40785  0.48029  1.0000
  H   H238      1.0  0.09611999999999996  0.48002  0.48839  1.0000
  H   H239      1.0  0.3579300000000003  0.6278  0.42415  1.0000
  H   H240      1.0  0.42151000000000005  0.5953099999999998  0.45706  1.0000
  H   H241      1.0  0.4811  0.6097  0.35097999999999996  1.0000
  H   H242      1.0  0.5004600000000005  0.63758  0.39441  1.0000
  H   H243      1.0  0.5441699999999999  0.577  0.38516  1.0000
  H   H244      1.0  0.08623000000000001  0.69141  0.42508  1.0000
  H   H245      1.0  0.07654  0.77572  0.42077  1.0000
  H   H246      1.0  0.15059000000000017  0.8073699999999998  0.46454  1.0000
  H   H247      1.0  0.2323500000000001  0.75399  0.51144  1.0000
  H   H248      1.0  0.3485699999999999  0.54388  0.62529  1.0000
  H   H249      1.0  0.39742999999999995  0.49968  0.58356  1.0000
  H   H250      1.0  0.27034  0.47019  0.60747  1.0000
  H   H251      1.0  0.31117000000000006  0.4699699999999999  0.655  1.0000
  H   H252      1.0  0.22158000000000014  0.51401  0.6504399999999999  1.0000
  H   H253      1.0  0.11681999999999995  0.51611  0.56631  1.0000
  H   H254      1.0  0.9919  0.5194  0.63277  1.0000
  H   H255      1.0  0.9416300000000002  0.6683999999999998  0.62962  1.0000
  H   H256      1.0  0.06824  0.65875  0.56288  1.0000
  H   H257      1.0  0.83089  0.63039  0.67168  1.0000
  H   H258      1.0  0.8920099999999997  0.60721  0.70926  1.0000
  H   H259      1.0  0.8177800000000005  0.2987  0.28594  1.0000
  H   H260      1.0  0.8040299999999999  0.30966  0.20537  1.0000
  H   H261      1.0  0.6774100000000003  0.36607  0.19031  1.0000
  H   H262      1.0  0.5698200000000003  0.41117  0.25552  1.0000
  H   H263      1.0  0.38222  0.4684399999999999  0.49248  1.0000
  H   H264      1.0  0.4411100000000002  0.4419099999999999  0.53104  1.0000
  H   H265      1.0  0.33879000000000004  0.39483  0.49307  1.0000
  H   H266      1.0  0.30887000000000003  0.4188399999999999  0.54931  1.0000
  H   H267      1.0  0.39660000000000006  0.36961  0.53296  1.0000
  H   H268      1.0  0.55712  0.59032  0.7477299999999999  1.0000
  H   H269      1.0  0.68385  0.57619  0.68105  1.0000
  H   H270      1.0  0.8259000000000002  0.55772  0.77971  1.0000
  H   H271      1.0  0.6929100000000004  0.57372  0.84229  1.0000
  H   H272      1.0  0.8341700000000003  0.54929  0.65364  1.0000
  H   H273      1.0  0.8910400000000002  0.52696  0.69426  1.0000
  H   H274      1.0  0.03936000000000004  0.14514999999999995  0.11611  1.0000
  H   H275      1.0  0.93646  0.15584  0.07115  1.0000
  H   H276      1.0  0.9467400000000001  0.09258  0.01974  1.0000
  H   H277      1.0  0.06378  0.02022  0.01163  1.0000
  H   H278      1.0  0.41036000000000006  0.8719699999999999  0.07576  1.0000
  H   H279      1.0  0.4742300000000001  0.9044799999999997  0.04288  1.0000
  H   H280      1.0  0.4418599999999999  0.89023  0.14894  1.0000
  H   H281      1.0  0.5326200000000001  0.8623199999999998  0.10562  1.0000
  H   H282      1.0  0.5064100000000001  0.9228899999999999  0.11475  1.0000
  H   H283      1.0  0.20252000000000003  0.80813  0.07513  1.0000
  H   H284      1.0  0.2736500000000001  0.7238699999999999  0.07933  1.0000
  H   H285      1.0  0.42310000000000025  0.6925899999999998  0.03506999999999999  1.0000
  H   H286      1.0  0.4979099999999999  0.74638  0.98858  1.0000
  H   H287      1.0  0.5168500000000005  0.9559699999999998  0.87533  1.0000
  H   H288      1.0  0.47991000000000034  0.00035000000000000005  0.91682  1.0000
  H   H289      1.0  0.34744  0.03011  0.89243  1.0000
  H   H290      1.0  0.4362900000000002  0.029939999999999994  0.84521  1.0000
  H   H291      1.0  0.3858500000000003  0.98611  0.84965  1.0000
  H   H292      1.0  0.1990900000000001  0.98386  0.93366  1.0000
  H   H293      1.0  0.14399999999999988  0.9806  0.86714  1.0000
  H   H294      1.0  0.23981  0.8316  0.87028  1.0000
  H   H295      1.0  0.2897199999999999  0.8412  0.93713  1.0000
  H   H296      1.0  0.13301999999999994  0.86962  0.82836  1.0000
  H   H297      1.0  0.20852000000000007  0.89282  0.79078  1.0000
  H   H298      1.0  0.40268000000000004  0.20093  0.21392  1.0000
  H   H299      1.0  0.3190900000000001  0.1901  0.29451  1.0000
  H   H300      1.0  0.23337999999999995  0.13389  0.30961  1.0000
  H   H301      1.0  0.23637000000000002  0.08866  0.24452999999999997  1.0000
  H   H302      1.0  0.34240000000000004  0.03142  0.00763  1.0000
  H   H303      1.0  0.41361000000000003  0.05777  0.969  1.0000
  H   H304      1.0  0.22620000000000004  0.10512999999999997  0.00683  1.0000
  H   H305      1.0  0.27671000000000007  0.08112999999999997  0.95061  1.0000
  H   H306      1.0  0.29897999999999997  0.13024  0.96698  1.0000
  H   H307      1.0  0.8954  0.90952  0.75234  1.0000
  H   H308      1.0  0.94105  0.9238099999999999  0.8189999999999997  1.0000
  H   H309      1.0  0.16341  0.9422499999999999  0.72039  1.0000
  H   H310      1.0  0.10933000000000014  0.9260799999999998  0.65778  1.0000
  H   H311      1.0  0.036930000000000004  0.9507199999999998  0.84643  1.0000
  H   H312      1.0  0.11208999999999984  0.97308  0.80579  1.0000
  C   C1        1.0  0.31378999999999996  0.9106199999999999  0.57727  1.0000
  C   C2        1.0  0.33832  0.90716  0.61836  1.0000
  C   C3        1.0  0.3898499999999999  0.93224  0.62384  1.0000
  C   C4        1.0  0.4191299999999999  0.96153  0.58845  1.0000
  C   C5        1.0  0.3946900000000001  0.9657999999999998  0.54812  1.0000
  C   C6        1.0  0.34165999999999996  0.94117  0.54181  1.0000
  C   C7        1.0  0.3159700000000001  0.94909  0.49911  1.0000
  C   C8        1.0  0.1963200000000001  0.9143099999999997  0.44450999999999996  1.0000
  C   C9        1.0  0.16585000000000008  0.92224  0.40194  1.0000
  C   C10       1.0  0.12549999999999997  0.8861  0.39422  1.0000
  C   C11       1.0  0.3659900000000001  0.9706999999999998  0.32493  1.0000
  C   C12       1.0  0.43897000000000025  0.9438499999999997  0.294  1.0000
  C   C13       1.0  0.4457700000000002  0.9416599999999998  0.24714  1.0000
  C   C14       1.0  0.37992000000000004  0.96596  0.2293  1.0000
  C   C15       1.0  0.3077200000000002  0.9923299999999998  0.25923  1.0000
  C   C16       1.0  0.29905999999999994  0.99572  0.30696  1.0000
  C   C17       1.0  0.22265000000000001  0.02614  0.33568  1.0000
  C   C18       1.0  0.13399  0.06737  0.44771  1.0000
  C   C19       1.0  0.06162000000000003  0.10211  0.47802  1.0000
  C   C20       1.0  0.08800000000000001  0.13035  0.50784  1.0000
  C   C21       1.0  0.34254000000000007  0.08161  0.4509  1.0000
  C   C22       1.0  0.37463000000000013  0.11901999999999997  0.44864  1.0000
  C   C23       1.0  0.40696000000000027  0.13746  0.4054499999999999  1.0000
  C   C24       1.0  0.40441000000000005  0.11696999999999998  0.36610999999999994  1.0000
  C   C25       1.0  0.3715  0.07957  0.37122  1.0000
  C   C26       1.0  0.44347  0.1776  0.40031  1.0000
  C   C27       1.0  0.9825300000000001  0.8163799999999998  0.65186  1.0000
  C   C28       1.0  0.9580500000000001  0.7785499999999997  0.67663  1.0000
  C   C29       1.0  0.010899999999999993  0.73382  0.67012  1.0000
  C   C30       1.0  0.09000999999999998  0.72495  0.63849  1.0000
  C   C31       1.0  0.11465  0.76162  0.61359  1.0000
  C   C32       1.0  0.06282000000000018  0.8075399999999998  0.61953  1.0000
  C   C33       1.0  0.09455000000000004  0.84412  0.59256  1.0000
  C   C34       1.0  0.04593000000000003  0.9637  0.58606  1.0000
  C   C35       1.0  0.07990999999999997  0.0030099999999999992  0.56461  1.0000
  C   C36       1.0  0.11741000000000001  0.02059  0.5974  1.0000
  C   C37       1.0  0.6287799999999999  0.25318  0.41662  1.0000
  C   C38       1.0  0.5946100000000002  0.21606999999999998  0.42464  1.0000
  C   C39       1.0  0.50896  0.22464  0.43431999999999993  1.0000
  C   C40       1.0  0.46132000000000006  0.27093  0.4348  1.0000
  C   C41       1.0  0.50022  0.3060399999999999  0.42614  1.0000
  C   C42       1.0  0.46923  0.18573  0.44276  1.0000
  C   C43       1.0  0.80136  0.58952  0.9228199999999999  1.0000
  C   C44       1.0  0.8634499999999999  0.59303  0.8817  1.0000
  C   C45       1.0  0.94561  0.56796  0.8761699999999999  1.0000
  C   C46       1.0  0.9688600000000002  0.53865  0.91154  1.0000
  C   C47       1.0  0.9083600000000001  0.53432  0.95189  1.0000
  C   C48       1.0  0.8243399999999999  0.55892  0.95825  1.0000
  C   C49       1.0  0.7638700000000004  0.55093  0.00093  1.0000
  C   C50       1.0  0.55483  0.58571  0.055459999999999995  1.0000
  C   C51       1.0  0.48975  0.57772  0.098  1.0000
  C   C52       1.0  0.40543000000000007  0.61388  0.10593  1.0000
  C   C53       1.0  0.66146  0.52932  0.17518  1.0000
  C   C54       1.0  0.67664  0.55613  0.20612  1.0000
  C   C55       1.0  0.63443  0.5582999999999998  0.25299  1.0000
  C   C56       1.0  0.57502  0.53403  0.27084  1.0000
  C   C57       1.0  0.5590500000000004  0.50771  0.24092999999999995  1.0000
  C   C58       1.0  0.60159  0.5043  0.19319  1.0000
  C   C59       1.0  0.58451  0.47381  0.16448  1.0000
  C   C60       1.0  0.6492800000000001  0.43242999999999987  0.05245  1.0000
  C   C61       1.0  0.64197  0.39777  0.022029999999999998  1.0000
  C   C62       1.0  0.72651  0.36963  0.99212  1.0000
  C   C63       1.0  0.87516  0.41847  0.04907  1.0000
  C   C64       1.0  0.9423900000000001  0.3809999999999999  0.05133  1.0000
  C   C65       1.0  0.9498800000000002  0.3625599999999999  0.09453  1.0000
  C   C66       1.0  0.88747  0.3831  0.13385  1.0000
  C   C67       1.0  0.82228  0.42054  0.12874  1.0000
  C   C68       1.0  0.021420000000000064  0.32238999999999995  0.09965  1.0000
  C   C69       1.0  0.45059000000000005  0.6836  0.84796  1.0000
  C   C70       1.0  0.4129900000000001  0.72144  0.8231999999999999  1.0000
  C   C71       1.0  0.41464  0.76614  0.82972  1.0000
  C   C72       1.0  0.45311  0.77498  0.8614  1.0000
  C   C73       1.0  0.48945000000000005  0.73827  0.88631  1.0000
  C   C74       1.0  0.48951000000000006  0.69238  0.88035  1.0000
  C   C75       1.0  0.5308400000000002  0.6557099999999998  0.90727  1.0000
  C   C76       1.0  0.5953600000000001  0.53618  0.91387  1.0000
  C   C77       1.0  0.6471200000000003  0.4968099999999999  0.93527  1.0000
  C   C78       1.0  0.7350700000000003  0.47942  0.90247  1.0000
  C   C79       1.0  0.29856  0.24669999999999995  0.08349  1.0000
  C   C80       1.0  0.23549  0.28385  0.0753  1.0000
  C   C81       1.0  0.16802  0.27534  0.06563  1.0000
  C   C82       1.0  0.16711000000000004  0.22909  0.06518  1.0000
  C   C83       1.0  0.23228  0.19393999999999997  0.074  1.0000
  C   C84       1.0  0.09783  0.31428  0.05718  1.0000
  C   C85       1.0  0.7242  0.57715  0.5895  1.0000
  C   C86       1.0  0.7452700000000001  0.61824  0.5929299999999998  1.0000
  C   C87       1.0  0.82195  0.62366  0.56784  1.0000
  C   C88       1.0  0.8805  0.58822  0.53858  1.0000
  C   C89       1.0  0.86015  0.54798  0.53423  1.0000
  C   C90       1.0  0.7824499999999999  0.54173  0.55886  1.0000
  C   C91       1.0  0.7644199999999999  0.49912  0.55094  1.0000
  C   C92       1.0  0.6097100000000002  0.4446999999999999  0.5857299999999998  1.0000
  C   C93       1.0  0.5874800000000001  0.40205  0.57782  1.0000
  C   C94       1.0  0.5111400000000003  0.39408  0.6139799999999999  1.0000
  C   C95       1.0  0.83625  0.32503999999999994  0.52936  1.0000
  C   C96       1.0  0.8824300000000004  0.2941  0.55619  1.0000
  C   C97       1.0  0.8872600000000002  0.24722  0.55831  1.0000
  C   C98       1.0  0.84584  0.22930999999999999  0.53402  1.0000
  C   C99       1.0  0.8000000000000004  0.25922  0.50765  1.0000
  C   C100      1.0  0.7946400000000003  0.30697  0.50427  1.0000
  C   C101      1.0  0.7488800000000001  0.33564  0.47375  1.0000
  C   C102      1.0  0.7007599999999999  0.44764  0.43241  1.0000
  C   C103      1.0  0.6633500000000001  0.4779599999999999  0.39757999999999993  1.0000
  C   C104      1.0  0.71828  0.50776  0.36956  1.0000
  C   C105      1.0  0.92395  0.45092999999999994  0.41842  1.0000
  C   C106      1.0  0.9935400000000003  0.4486799999999999  0.38103  1.0000
  C   C107      1.0  0.04433999999999998  0.40549  0.3626  1.0000
  C   C108      1.0  0.021230000000000054  0.36616  0.38311999999999996  1.0000
  C   C109      1.0  0.9508000000000002  0.3712699999999999  0.42048  1.0000
  C   C110      1.0  0.12104000000000005  0.40033  0.32243  1.0000
  C   C111      1.0  0.2979800000000001  0.65193  0.68376  1.0000
  C   C112      1.0  0.23589000000000004  0.67675  0.72164  1.0000
  C   C113      1.0  0.24430999999999992  0.67027  0.76628  1.0000
  C   C114      1.0  0.3145500000000002  0.6385599999999998  0.77506  1.0000
  C   C115      1.0  0.37567  0.61364  0.73834  1.0000
  C   C116      1.0  0.36951000000000006  0.61958  0.69249  1.0000
  C   C117      1.0  0.4379400000000001  0.59276  0.65585  1.0000
  C   C118      1.0  0.509  0.58627  0.5363  1.0000
  C   C119      1.0  0.5823000000000002  0.56489  0.4969299999999999  1.0000
  C   C120      1.0  0.6376700000000001  0.59754  0.47937  1.0000
  C   C121      1.0  0.38208000000000003  0.4167499999999999  0.24673  1.0000
  C   C122      1.0  0.3108100000000001  0.4246899999999999  0.28386  1.0000
  C   C123      1.0  0.23369000000000004  0.43433  0.27531  1.0000
  C   C124      1.0  0.23235999999999984  0.43484  0.22903  1.0000
  C   C125      1.0  0.3063699999999999  0.42629  0.19391  1.0000
  C   C126      1.0  0.15503000000000014  0.44276  0.3142499999999999  1.0000
  C   C127      1.0  0.8911300000000001  0.9229699999999997  0.9104099999999999  1.0000
  C   C128      1.0  0.9565800000000002  0.88176  0.9069799999999999  1.0000
  C   C129      1.0  0.013610000000000027  0.8761799999999997  0.93209  1.0000
  C   C130      1.0  0.00765000000000008  0.9115399999999999  0.96134  1.0000
  C   C131      1.0  0.9428500000000002  0.95192  0.96567  1.0000
  C   C132      1.0  0.8834500000000001  0.95835  0.94103  1.0000
  C   C133      1.0  0.8148600000000001  0.0009899999999999996  0.94895  1.0000
  C   C134      1.0  0.6401600000000003  0.05544  0.9142999999999998  1.0000
  C   C135      1.0  0.56718  0.09808999999999998  0.92226  1.0000
  C   C136      1.0  0.5191000000000001  0.10601999999999998  0.88609  1.0000
  C   C137      1.0  0.6912  0.17516  0.97068  1.0000
  C   C138      1.0  0.7329099999999998  0.20623  0.9438  1.0000
  C   C139      1.0  0.69257  0.25309  0.94173  1.0000
  C   C140      1.0  0.6089000000000001  0.27077  0.9661599999999998  1.0000
  C   C141      1.0  0.56684  0.2407  0.99236  1.0000
  C   C142      1.0  0.6061800000000003  0.19299999999999998  0.9956399999999997  1.0000
  C   C143      1.0  0.55836  0.16428  0.02596  1.0000
  C   C144      1.0  0.5817800000000001  0.05223999999999999  0.06718  1.0000
  C   C145      1.0  0.5397800000000003  0.021959999999999993  0.10198  1.0000
  C   C146      1.0  0.5959700000000001  0.9921499999999999  0.13027  1.0000
  C   C147      1.0  0.7934800000000004  0.0491  0.08159  1.0000
  C   C148      1.0  0.82337  0.05132  0.11898  1.0000
  C   C149      1.0  0.81241  0.09452  0.13742  1.0000
  C   C150      1.0  0.77051  0.13386  0.11691  1.0000
  C   C151      1.0  0.74269  0.12877  0.07952  1.0000
  C   C152      1.0  0.84381  0.09965  0.17754  1.0000
  C   C153      1.0  0.6338399999999998  0.84829  0.81638  1.0000
  C   C154      1.0  0.6342800000000001  0.8234899999999999  0.7785299999999999  1.0000
  C   C155      1.0  0.681  0.82988  0.73385  1.0000
  C   C156      1.0  0.7284500000000005  0.86151  0.725  1.0000
  C   C157      1.0  0.7279800000000003  0.88644  0.76168  1.0000
  C   C158      1.0  0.6819100000000001  0.88053  0.80755  1.0000
  C   C159      1.0  0.6867600000000001  0.9073899999999998  0.84417  1.0000
  C   C160      1.0  0.6320200000000002  0.91394  0.96373  1.0000
  C   C161      1.0  0.6446500000000002  0.93533  0.00304  1.0000
  C   C162      1.0  0.7149699999999999  0.90255  0.02068  1.0000
  C   C163      1.0  0.04539000000000001  0.08333  0.25322  1.0000
  C   C164      1.0  0.01931  0.07533  0.2161  1.0000
  C   C165      1.0  0.9433100000000001  0.0657  0.22463  1.0000
  C   C166      1.0  0.8961400000000004  0.0652  0.2709  1.0000
  C   C167      1.0  0.9263200000000001  0.07382  0.30603  1.0000
  C   C168      1.0  0.91213  0.05722  0.18569  1.0000
  C   C169      1.0  0.6862000000000004  0.08937999999999997  0.42273  1.0000
  C   C170      1.0  0.66168  0.09285  0.38164  1.0000
  C   C171      1.0  0.61015  0.06776  0.37616  1.0000
  C   C172      1.0  0.58087  0.03847  0.41155  1.0000
  C   C173      1.0  0.6053  0.0342  0.45187999999999995  1.0000
  C   C174      1.0  0.6583300000000001  0.05882999999999999  0.45819  1.0000
  C   C175      1.0  0.68403  0.05092  0.50089  1.0000
  C   C176      1.0  0.8036700000000004  0.08569999999999997  0.55549  1.0000
  C   C177      1.0  0.8341500000000001  0.07776  0.59806  1.0000
  C   C178      1.0  0.8744999999999999  0.11391  0.6057799999999999  1.0000
  C   C179      1.0  0.6340100000000001  0.029299999999999993  0.67507  1.0000
  C   C180      1.0  0.5610200000000003  0.05615  0.706  1.0000
  C   C181      1.0  0.55422  0.05835  0.75286  1.0000
  C   C182      1.0  0.6200800000000002  0.03405  0.7707  1.0000
  C   C183      1.0  0.6922800000000002  0.00767  0.74077  1.0000
  C   C184      1.0  0.70094  0.00428  0.69304  1.0000
  C   C185      1.0  0.77735  0.97387  0.66432  1.0000
  C   C186      1.0  0.86601  0.93263  0.55229  1.0000
  C   C187      1.0  0.9383800000000002  0.8979  0.52198  1.0000
  C   C188      1.0  0.9120000000000004  0.8696599999999998  0.49216  1.0000
  C   C189      1.0  0.6574600000000003  0.9183899999999998  0.5491  1.0000
  C   C190      1.0  0.6253700000000002  0.8809799999999999  0.55136  1.0000
  C   C191      1.0  0.5930399999999999  0.86255  0.59455  1.0000
  C   C192      1.0  0.59558  0.88304  0.63389  1.0000
  C   C193      1.0  0.6285000000000001  0.9204299999999997  0.62878  1.0000
  C   C194      1.0  0.5565300000000001  0.8223999999999998  0.5996899999999998  1.0000
  C   C195      1.0  0.017460000000000017  0.18362  0.34814  1.0000
  C   C196      1.0  0.041949999999999966  0.22145  0.32337  1.0000
  C   C197      1.0  0.9891  0.26618  0.32988  1.0000
  C   C198      1.0  0.90998  0.27505  0.36150999999999994  1.0000
  C   C199      1.0  0.8853499999999999  0.23838  0.38641  1.0000
  C   C200      1.0  0.9371800000000001  0.19247  0.38047  1.0000
  C   C201      1.0  0.9054500000000001  0.15588  0.40743999999999997  1.0000
  C   C202      1.0  0.9540700000000001  0.036299999999999985  0.41394  1.0000
  C   C203      1.0  0.92009  0.99699  0.43539  1.0000
  C   C204      1.0  0.8825800000000001  0.97942  0.4026  1.0000
  C   C205      1.0  0.3712200000000003  0.74683  0.58338  1.0000
  C   C206      1.0  0.4053900000000001  0.78393  0.57536  1.0000
  C   C207      1.0  0.49103999999999975  0.7753599999999999  0.56568  1.0000
  C   C208      1.0  0.5386800000000004  0.72907  0.5652  1.0000
  C   C209      1.0  0.49977  0.69397  0.5738599999999999  1.0000
  C   C210      1.0  0.5307699999999999  0.81427  0.55724  1.0000
  C   C211      1.0  0.19864  0.41048  0.07718  1.0000
  C   C212      1.0  0.13654000000000002  0.4069699999999999  0.1183  1.0000
  C   C213      1.0  0.054380000000000074  0.43204  0.12382999999999998  1.0000
  C   C214      1.0  0.03114000000000005  0.4613599999999999  0.08846  1.0000
  C   C215      1.0  0.09164  0.46568  0.04811  1.0000
  C   C216      1.0  0.1756500000000001  0.44108999999999987  0.04175  1.0000
  C   C217      1.0  0.23613000000000034  0.44907999999999987  0.9990699999999999  1.0000
  C   C218      1.0  0.44516000000000006  0.41429  0.9445399999999999  1.0000
  C   C219      1.0  0.5102500000000001  0.42228  0.902  1.0000
  C   C220      1.0  0.5945600000000001  0.38613  0.89407  1.0000
  C   C221      1.0  0.3385400000000001  0.47068999999999994  0.82482  1.0000
  C   C222      1.0  0.32335000000000014  0.44387  0.79388  1.0000
  C   C223      1.0  0.3655700000000001  0.44169999999999987  0.74701  1.0000
  C   C224      1.0  0.42497999999999997  0.46597  0.72916  1.0000
  C   C225      1.0  0.44095000000000006  0.49229  0.75907  1.0000
  C   C226      1.0  0.39841  0.4957  0.80681  1.0000
  C   C227      1.0  0.41548000000000007  0.52619  0.83552  1.0000
  C   C228      1.0  0.35071000000000013  0.56758  0.94755  1.0000
  C   C229      1.0  0.3580299999999999  0.60223  0.97797  1.0000
  C   C230      1.0  0.27349  0.63038  0.00788  1.0000
  C   C231      1.0  0.12484000000000002  0.58154  0.95093  1.0000
  C   C232      1.0  0.05761000000000009  0.6189999999999998  0.94867  1.0000
  C   C233      1.0  0.05012000000000012  0.6374399999999998  0.90547  1.0000
  C   C234      1.0  0.11252  0.6169  0.86615  1.0000
  C   C235      1.0  0.1777200000000001  0.57946  0.87126  1.0000
  C   C236      1.0  0.97858  0.6776099999999998  0.90035  1.0000
  C   C237      1.0  0.54941  0.31641  0.15204  1.0000
  C   C238      1.0  0.58701  0.27856  0.1768  1.0000
  C   C239      1.0  0.58536  0.23386  0.17028  1.0000
  C   C240      1.0  0.5468799999999999  0.22502  0.1386  1.0000
  C   C241      1.0  0.5105500000000001  0.26173  0.11368999999999999  1.0000
  C   C242      1.0  0.51049  0.30761999999999995  0.11965  1.0000
  C   C243      1.0  0.4691600000000001  0.34429  0.09273  1.0000
  C   C244      1.0  0.40463000000000016  0.46382  0.08613  1.0000
  C   C245      1.0  0.3528800000000001  0.5032  0.06473  1.0000
  C   C246      1.0  0.26493000000000017  0.52059  0.09753  1.0000
  C   C247      1.0  0.7014400000000001  0.7533  0.9165099999999998  1.0000
  C   C248      1.0  0.7645099999999999  0.71615  0.9247  1.0000
  C   C249      1.0  0.8319799999999998  0.72466  0.93437  1.0000
  C   C250      1.0  0.83289  0.77092  0.93482  1.0000
  C   C251      1.0  0.76771  0.80607  0.926  1.0000
  C   C252      1.0  0.9021700000000008  0.6857199999999999  0.94282  1.0000
  C   C253      1.0  0.2758  0.42285  0.4105  1.0000
  C   C254      1.0  0.25473000000000007  0.3817599999999999  0.40707  1.0000
  C   C255      1.0  0.1780400000000001  0.37635  0.4321599999999999  1.0000
  C   C256      1.0  0.11950000000000006  0.41178  0.46142  1.0000
  C   C257      1.0  0.13985000000000014  0.45203  0.46577  1.0000
  C   C258      1.0  0.21754999999999997  0.45828  0.44114  1.0000
  C   C259      1.0  0.23556999999999995  0.50088  0.44906  1.0000
  C   C260      1.0  0.3902900000000001  0.5553  0.41427  1.0000
  C   C261      1.0  0.41252000000000005  0.59795  0.42217999999999994  1.0000
  C   C262      1.0  0.4888500000000002  0.60593  0.38602  1.0000
  C   C263      1.0  0.16374000000000005  0.67496  0.47064  1.0000
  C   C264      1.0  0.11755999999999998  0.7059  0.44381  1.0000
  C   C265      1.0  0.11274  0.7527899999999998  0.44169  1.0000
  C   C266      1.0  0.15416  0.7707  0.46598  1.0000
  C   C267      1.0  0.2  0.74079  0.49235  1.0000
  C   C268      1.0  0.20534999999999998  0.69303  0.49573  1.0000
  C   C269      1.0  0.2511200000000001  0.6643699999999998  0.52625  1.0000
  C   C270      1.0  0.2992399999999999  0.55236  0.56759  1.0000
  C   C271      1.0  0.33664  0.52204  0.60242  1.0000
  C   C272      1.0  0.28171000000000007  0.49225  0.63044  1.0000
  C   C273      1.0  0.07605000000000003  0.54907  0.58158  1.0000
  C   C274      1.0  0.006460000000000088  0.55133  0.6189699999999998  1.0000
  C   C275      1.0  0.95566  0.59452  0.6374  1.0000
  C   C276      1.0  0.9787699999999998  0.63384  0.61688  1.0000
  C   C277      1.0  0.04920000000000007  0.6287299999999998  0.57952  1.0000
  C   C278      1.0  0.8789600000000001  0.59967  0.67757  1.0000
  C   C279      1.0  0.7020100000000001  0.34807  0.31623999999999997  1.0000
  C   C280      1.0  0.7641000000000002  0.32324999999999987  0.27836  1.0000
  C   C281      1.0  0.7556900000000005  0.32973  0.23372  1.0000
  C   C282      1.0  0.6854499999999999  0.36144999999999994  0.22494  1.0000
  C   C283      1.0  0.6243299999999999  0.38636  0.26166  1.0000
  C   C284      1.0  0.6304900000000001  0.38042  0.30751  1.0000
  C   C285      1.0  0.5620500000000002  0.40724  0.34415  1.0000
  C   C286      1.0  0.491  0.41373  0.4637  1.0000
  C   C287      1.0  0.4177  0.43511  0.50307  1.0000
  C   C288      1.0  0.36232000000000003  0.40246  0.52063  1.0000
  C   C289      1.0  0.6179100000000001  0.58325  0.7532699999999999  1.0000
  C   C290      1.0  0.6891899999999999  0.5753199999999999  0.71614  1.0000
  C   C291      1.0  0.7663100000000002  0.56567  0.7246899999999998  1.0000
  C   C292      1.0  0.7676400000000004  0.5651699999999997  0.77097  1.0000
  C   C293      1.0  0.6936300000000001  0.57372  0.80609  1.0000
  C   C294      1.0  0.8449599999999999  0.55725  0.68575  1.0000
  C   C295      1.0  0.10887000000000004  0.07703  0.08959  1.0000
  C   C296      1.0  0.04342  0.11824  0.09302  1.0000
  C   C297      1.0  0.98639  0.12382999999999997  0.06791  1.0000
  C   C298      1.0  0.9923400000000001  0.08846  0.03866  1.0000
  C   C299      1.0  0.057150000000000006  0.04808  0.03433  1.0000
  C   C300      1.0  0.11655000000000001  0.04165  0.05897  1.0000
  C   C301      1.0  0.18513999999999997  0.99901  0.05105  1.0000
  C   C302      1.0  0.35984000000000005  0.94456  0.0857  1.0000
  C   C303      1.0  0.4328200000000002  0.9019099999999999  0.07774  1.0000
  C   C304      1.0  0.48090000000000005  0.89398  0.11391  1.0000
  C   C305      1.0  0.3087900000000002  0.8248399999999998  0.029319999999999992  1.0000
  C   C306      1.0  0.26708000000000004  0.79377  0.0562  1.0000
  C   C307      1.0  0.30743000000000004  0.7469199999999998  0.05827  1.0000
  C   C308      1.0  0.39110000000000006  0.72923  0.03384  1.0000
  C   C309      1.0  0.43315  0.7593  0.00764  1.0000
  C   C310      1.0  0.39382  0.80701  0.00436  1.0000
  C   C311      1.0  0.4416400000000003  0.83572  0.97404  1.0000
  C   C312      1.0  0.41821000000000014  0.94777  0.93282  1.0000
  C   C313      1.0  0.4602100000000003  0.9780399999999998  0.89802  1.0000
  C   C314      1.0  0.40402  0.00785  0.86973  1.0000
  C   C315      1.0  0.20652  0.95091  0.91841  1.0000
  C   C316      1.0  0.17663000000000012  0.9486799999999997  0.88102  1.0000
  C   C317      1.0  0.18757999999999997  0.90549  0.86258  1.0000
  C   C318      1.0  0.22949000000000003  0.86614  0.88309  1.0000
  C   C319      1.0  0.25731000000000015  0.8712299999999997  0.92048  1.0000
  C   C320      1.0  0.15619000000000005  0.9003499999999998  0.82246  1.0000
  C   C321      1.0  0.36616000000000015  0.15171  0.18362  1.0000
  C   C322      1.0  0.36572  0.17651999999999995  0.22147  1.0000
  C   C323      1.0  0.319  0.17012999999999995  0.26615  1.0000
  C   C324      1.0  0.27155  0.13849  0.275  1.0000
  C   C325      1.0  0.2720200000000001  0.11355999999999998  0.23832  1.0000
  C   C326      1.0  0.31809  0.11947  0.19245  1.0000
  C   C327      1.0  0.31324000000000013  0.09261  0.15583  1.0000
  C   C328      1.0  0.36797  0.08606  0.03627  1.0000
  C   C329      1.0  0.35535000000000017  0.06468  0.9969599999999998  1.0000
  C   C330      1.0  0.28502999999999995  0.09745  0.97932  1.0000
  C   C331      1.0  0.9546100000000003  0.9166699999999998  0.74678  1.0000
  C   C332      1.0  0.9806899999999995  0.92467  0.7839  1.0000
  C   C333      1.0  0.056690000000000094  0.93431  0.77537  1.0000
  C   C334      1.0  0.10386000000000005  0.9348099999999999  0.7291  1.0000
  C   C335      1.0  0.07367000000000021  0.9261799999999998  0.69397  1.0000
  C   C336      1.0  0.08786000000000024  0.9427799999999997  0.81431  1.0000
  N   N1        1.0  0.26355000000000006  0.92728  0.49235  1.0000
  N   N2        1.0  0.2437900000000001  0.93853  0.45032999999999995  1.0000
  N   N3        1.0  0.21300000000000008  0.03138  0.38089999999999996  1.0000
  N   N4        1.0  0.1407400000000001  0.06496  0.40332  1.0000
  N   N5        1.0  0.34144  0.061769999999999985  0.41295  1.0000
  N   N6        1.0  0.05017000000000005  0.88858  0.6  1.0000
  N   N7        1.0  0.08876000000000007  0.92061  0.57335  1.0000
  N   N8        1.0  0.5827000000000001  0.2975799999999999  0.41754  1.0000
  N   N9        1.0  0.68284  0.57258  0.00756  1.0000
  N   N10       1.0  0.63231  0.56132  0.04957  1.0000
  N   N11       1.0  0.6257  0.46833999999999987  0.11929999999999999  1.0000
  N   N12       1.0  0.60974  0.43461  0.09692999999999999  1.0000
  N   N13       1.0  0.8161800000000005  0.4383399999999999  0.087  1.0000
  N   N14       1.0  0.5384900000000004  0.6112599999999998  0.89983  1.0000
  N   N15       1.0  0.5825900000000002  0.57927  0.9264799999999999  1.0000
  N   N16       1.0  0.29773  0.20233  0.08263  1.0000
  N   N17       1.0  0.6901400000000003  0.49242999999999987  0.57276  1.0000
  N   N18       1.0  0.6815199999999999  0.45045  0.56155  1.0000
  N   N19       1.0  0.74448  0.38086  0.46835  1.0000
  N   N20       1.0  0.70615  0.40312  0.43457  1.0000
  N   N21       1.0  0.9028500000000004  0.41301  0.43825  1.0000
  N   N22       1.0  0.43805999999999995  0.60018  0.61142  1.0000
  N   N23       1.0  0.5089500000000001  0.5737  0.5793999999999999  1.0000
  N   N24       1.0  0.3803800000000001  0.41776  0.20236  1.0000
  N   N25       1.0  0.7556000000000002  0.00772  0.92717  1.0000
  N   N26       1.0  0.6937900000000001  0.04976  0.9383  1.0000
  N   N27       1.0  0.59391  0.11904  0.03113  1.0000
  N   N28       1.0  0.54415  0.09663999999999999  0.06475  1.0000
  N   N29       1.0  0.7543300000000002  0.08704999999999997  0.06175  1.0000
  N   N30       1.0  0.6499200000000003  0.8999999999999998  0.88865  1.0000
  N   N31       1.0  0.6623800000000002  0.9264799999999997  0.9206099999999998  1.0000
  N   N32       1.0  0.00023000000000001326  0.08237  0.2976  1.0000
  N   N33       1.0  0.73644  0.07272  0.50765  1.0000
  N   N34       1.0  0.7562000000000003  0.06146999999999998  0.54967  1.0000
  N   N35       1.0  0.7870000000000003  0.96863  0.6191  1.0000
  N   N36       1.0  0.85926  0.93505  0.59668  1.0000
  N   N37       1.0  0.6585600000000001  0.93824  0.5870499999999998  1.0000
  N   N38       1.0  0.9498200000000001  0.11142999999999997  0.4  1.0000
  N   N39       1.0  0.91123  0.07939  0.42665  1.0000
  N   N40       1.0  0.4172900000000001  0.70243  0.58246  1.0000
  N   N41       1.0  0.31716  0.42742  0.99244  1.0000
  N   N42       1.0  0.36768  0.43868  0.95043  1.0000
  N   N43       1.0  0.37429000000000007  0.53166  0.8807  1.0000
  N   N44       1.0  0.39025999999999994  0.56539  0.90307  1.0000
  N   N45       1.0  0.18381999999999998  0.56167  0.913  1.0000
  N   N46       1.0  0.4615100000000002  0.38873999999999986  0.10017  1.0000
  N   N47       1.0  0.4174100000000001  0.42074  0.07351999999999999  1.0000
  N   N48       1.0  0.70227  0.79767  0.91737  1.0000
  N   N49       1.0  0.30985999999999997  0.50757  0.42724  1.0000
  N   N50       1.0  0.31848000000000004  0.54955  0.43845  1.0000
  N   N51       1.0  0.2555200000000001  0.61914  0.53165  1.0000
  N   N52       1.0  0.29385000000000006  0.59688  0.56543  1.0000
  N   N53       1.0  0.09715000000000004  0.58699  0.56175  1.0000
  N   N54       1.0  0.56194  0.39983  0.38858  1.0000
  N   N55       1.0  0.4910500000000001  0.4263  0.4206  1.0000
  N   N56       1.0  0.6196200000000005  0.5822399999999999  0.79764  1.0000
  N   N57       1.0  0.24440000000000017  0.9922799999999998  0.07283  1.0000
  N   N58       1.0  0.3062100000000002  0.9502399999999999  0.0617  1.0000
  N   N59       1.0  0.40608  0.8809599999999997  0.96887  1.0000
  N   N60       1.0  0.45585  0.90337  0.93525  1.0000
  N   N61       1.0  0.24566999999999994  0.9129599999999999  0.93825  1.0000
  N   N62       1.0  0.35008000000000017  0.09999999999999998  0.11134999999999998  1.0000
  N   N63       1.0  0.33762  0.07352999999999997  0.07939  1.0000
  N   N64       1.0  0.9997699999999999  0.91763  0.7024  1.0000
  O   O1        1.0  0.26650000000000007  0.88413  0.57424  1.0000
  O   O2        1.0  0.3426700000000001  0.9777899999999998  0.46871  1.0000
  O   O3        1.0  0.17417999999999997  0.88379  0.4757  1.0000
  O   O4        1.0  0.3649800000000003  0.9708999999999998  0.36924  1.0000
  O   O5        1.0  0.16508  0.04887999999999999  0.31678  1.0000
  O   O6        1.0  0.18954  0.040239999999999984  0.46643  1.0000
  O   O7        1.0  0.9277699999999999  0.85798  0.66033  1.0000
  O   O8        1.0  0.16651000000000019  0.8334499999999998  0.56171  1.0000
  O   O9        1.0  0.9761200000000001  0.9728899999999998  0.61865  1.0000
  O   O10       1.0  0.7245300000000003  0.61607  0.9259299999999998  1.0000
  O   O11       1.0  0.7887500000000001  0.52231  0.03141  1.0000
  O   O12       1.0  0.53357  0.61638  0.024349999999999997  1.0000
  O   O13       1.0  0.70497  0.52911  0.13087  1.0000
  O   O14       1.0  0.53057  0.45121  0.18333  1.0000
  O   O15       1.0  0.69609  0.45971  0.03363  1.0000
  O   O16       1.0  0.4464200000000001  0.6419699999999998  0.83933  1.0000
  O   O17       1.0  0.5611899999999999  0.6663  0.93815  1.0000
  O   O18       1.0  0.56731  0.52699  0.88131  1.0000
  O   O19       1.0  0.6506500000000001  0.5739799999999998  0.61612  1.0000
  O   O20       1.0  0.8197100000000002  0.46872  0.52218  1.0000
  O   O21       1.0  0.5568700000000001  0.4759199999999999  0.61616  1.0000
  O   O22       1.0  0.8351600000000001  0.3694  0.52917  1.0000
  O   O23       1.0  0.71421  0.31666  0.45102  1.0000
  O   O24       1.0  0.7281500000000001  0.46653  0.4599  1.0000
  O   O25       1.0  0.2846400000000003  0.66048  0.64222  1.0000
  O   O26       1.0  0.4994899999999999  0.5620799999999999  0.66645  1.0000
  O   O27       1.0  0.448  0.61863  0.52714  1.0000
  O   O28       1.0  0.8408400000000004  0.92614  0.88388  1.0000
  O   O29       1.0  0.8110600000000001  0.03138  0.9776899999999997  1.0000
  O   O30       1.0  0.6488000000000002  0.024149999999999994  0.88398  1.0000
  O   O31       1.0  0.7348200000000001  0.1309  0.97095  1.0000
  O   O32       1.0  0.48182000000000014  0.18316999999999997  0.04869999999999999  1.0000
  O   O33       1.0  0.6560500000000002  0.03355  0.04009  1.0000
  O   O34       1.0  0.5875100000000001  0.83994  0.85801  1.0000
  O   O35       1.0  0.72797  0.9381499999999998  0.83348  1.0000
  O   O36       1.0  0.5943399999999999  0.88157  0.97299  1.0000
  O   O37       1.0  0.7334900000000003  0.11587  0.42576  1.0000
  O   O38       1.0  0.65732  0.02221  0.53129  1.0000
  O   O39       1.0  0.82581  0.11621999999999998  0.5243  1.0000
  O   O40       1.0  0.63502  0.02911  0.63076  1.0000
  O   O41       1.0  0.83492  0.95112  0.68322  1.0000
  O   O42       1.0  0.81046  0.95976  0.53357  1.0000
  O   O43       1.0  0.07222000000000002  0.14203  0.33967  1.0000
  O   O44       1.0  0.83348  0.16655  0.43829  1.0000
  O   O45       1.0  0.023880000000000002  0.027109999999999992  0.38135  1.0000
  O   O46       1.0  0.27546  0.38393  0.07407  1.0000
  O   O47       1.0  0.21124999999999997  0.47769  0.9685899999999998  1.0000
  O   O48       1.0  0.46643  0.38362  0.97565  1.0000
  O   O49       1.0  0.29503  0.4708899999999999  0.86913  1.0000
  O   O50       1.0  0.4694200000000003  0.54879  0.8166699999999998  1.0000
  O   O51       1.0  0.30391  0.54029  0.96637  1.0000
  O   O52       1.0  0.55358  0.3580299999999999  0.16066999999999998  1.0000
  O   O53       1.0  0.4388100000000002  0.3337  0.06185  1.0000
  O   O54       1.0  0.4326800000000001  0.4730199999999999  0.11869  1.0000
  O   O55       1.0  0.34934000000000026  0.4260199999999999  0.38388  1.0000
  O   O56       1.0  0.18029000000000014  0.53128  0.47782  1.0000
  O   O57       1.0  0.44312  0.52408  0.38383999999999996  1.0000
  O   O58       1.0  0.16483000000000003  0.6306  0.47082999999999997  1.0000
  O   O59       1.0  0.28578  0.68335  0.54898  1.0000
  O   O60       1.0  0.27185000000000015  0.53347  0.5401  1.0000
  O   O61       1.0  0.7153599999999999  0.33952  0.35778  1.0000
  O   O62       1.0  0.5005  0.43792  0.33355  1.0000
  O   O63       1.0  0.5519999999999999  0.38137  0.47286  1.0000
  O   O64       1.0  0.15915  0.07387  0.11612  1.0000
  O   O65       1.0  0.18893000000000001  0.96862  0.02231  1.0000
  O   O66       1.0  0.35119000000000006  0.97586  0.11602  1.0000
  O   O67       1.0  0.26518  0.8691  0.02905  1.0000
  O   O68       1.0  0.5181799999999999  0.81684  0.9512999999999999  1.0000
  O   O69       1.0  0.34395000000000003  0.96645  0.95991  1.0000
  O   O70       1.0  0.41249000000000013  0.16006  0.14199  1.0000
  O   O71       1.0  0.2720200000000001  0.06185  0.16652  1.0000
  O   O72       1.0  0.40565000000000007  0.11844  0.027009999999999992  1.0000
