data_image0
_chemical_formula_structural       Ag18P18H270Au18C309N36
_chemical_formula_sum              "Ag18 P18 H270 Au18 C309 N36"
_cell_length_a       15.18099
_cell_length_b       29.76481
_cell_length_c       29.764609999999998
_cell_angle_alpha    117.21565000000001
_cell_angle_beta     99.78291999999999
_cell_angle_gamma    99.78012

_space_group_name_H-M_alt    "P 1"
_space_group_IT_number       1

loop_
  _space_group_symop_operation_xyz
  'x, y, z'

loop_
  _atom_site_type_symbol
  _atom_site_label
  _atom_site_symmetry_multiplicity
  _atom_site_fract_x
  _atom_site_fract_y
  _atom_site_fract_z
  _atom_site_occupancy
  Ag  Ag1       1.0  0.41112  0.38829000000000014  0.00753  1.0000
  Ag  Ag2       1.0  0.13926000000000002  0.3981800000000001  0.18566999999999997  1.0000
  Ag  Ag3       1.0  0.8885400000000001  0.3479800000000001  0.02746  1.0000
  Ag  Ag4       1.0  0.40366  0.99245  0.38070000000000004  1.0000
  Ag  Ag5       1.0  0.95356  0.81423  0.21244000000000002  1.0000
  Ag  Ag6       1.0  0.86096  0.97269  0.32036  1.0000
  Ag  Ag7       1.0  0.022870000000000102  0.6193100000000002  0.61185  1.0000
  Ag  Ag8       1.0  0.7412900000000002  0.7875700000000002  0.60167  1.0000
  Ag  Ag9       1.0  0.54046  0.6796200000000002  0.65239  1.0000
  Ag  Ag10      1.0  0.5888800000000001  0.6117100000000001  0.99248  1.0000
  Ag  Ag11      1.0  0.8607300000000002  0.60182  0.81433  1.0000
  Ag  Ag12      1.0  0.11147  0.6520300000000002  0.97256  1.0000
  Ag  Ag13      1.0  0.59634  0.007550000000000038  0.61931  1.0000
  Ag  Ag14      1.0  0.04644000000000004  0.18578000000000006  0.78756  1.0000
  Ag  Ag15      1.0  0.13903000000000004  0.027310000000000063  0.6796500000000001  1.0000
  Ag  Ag16      1.0  0.9771300000000003  0.38069  0.38816000000000006  1.0000
  Ag  Ag17      1.0  0.25871  0.21243  0.39833  1.0000
  Ag  Ag18      1.0  0.4595400000000001  0.32037  0.34761  1.0000
  P   P1        1.0  0.23449000000000006  0.45543  0.03215  1.0000
  P   P2        1.0  0.6365400000000001  0.44892  0.10632  1.0000
  P   P3        1.0  0.4255200000000002  0.3318300000000001  0.873  1.0000
  P   P4        1.0  0.20227  0.96788  0.42335  1.0000
  P   P5        1.0  0.53032  0.8937200000000002  0.34248  1.0000
  P   P6        1.0  0.5523399999999998  0.12697  0.45897  1.0000
  P   P7        1.0  0.7789700000000003  0.57666  0.54459  1.0000
  P   P8        1.0  0.18772000000000014  0.6575300000000002  0.55124  1.0000
  P   P9        1.0  0.09363000000000012  0.5411100000000001  0.6680400000000001  1.0000
  P   P10       1.0  0.76551  0.5445700000000001  0.96786  1.0000
  P   P11       1.0  0.36347000000000007  0.5510800000000002  0.89369  1.0000
  P   P12       1.0  0.5744900000000002  0.66817  0.12701  1.0000
  P   P13       1.0  0.79774  0.03212000000000005  0.57665  1.0000
  P   P14       1.0  0.46968  0.10629  0.65753  1.0000
  P   P15       1.0  0.44766000000000006  0.8730300000000002  0.54103  1.0000
  P   P16       1.0  0.22102000000000002  0.42334  0.4554099999999999  1.0000
  P   P17       1.0  0.8122900000000002  0.34247  0.44877  1.0000
  P   P18       1.0  0.9063700000000001  0.45889  0.33197  1.0000
  H   H1        1.0  0.40323000000000014  0.36531  0.09666999999999999  1.0000
  H   H2        1.0  0.44087000000000004  0.2808000000000001  0.9710500000000001  1.0000
  H   H3        1.0  0.24808  0.30243999999999993  0.9786499999999999  1.0000
  H   H4        1.0  0.07004000000000006  0.3653  0.00151  1.0000
  H   H5        1.0  0.20471000000000011  0.4418700000000001  0.92753  1.0000
  H   H6        1.0  0.07857  0.49565000000000003  0.00551  1.0000
  H   H7        1.0  0.3171  0.54419  0.13571  1.0000
  H   H8        1.0  0.54467  0.52809  0.15257  1.0000
  H   H9        1.0  0.62364  0.4092800000000001  0.1821  1.0000
  H   H10       1.0  0.77511  0.52535  0.21064  1.0000
  H   H11       1.0  0.77152  0.4318  0.04806  1.0000
  H   H12       1.0  0.6264500000000002  0.3766000000000001  0.91745  1.0000
  H   H13       1.0  0.42575  0.22571000000000005  0.85221  1.0000
  H   H14       1.0  0.5287900000000001  0.2998799999999999  0.7923499999999999  1.0000
  H   H15       1.0  0.2889900000000002  0.35761  0.81623  1.0000
  H   H16       1.0  0.3125700000000001  0.36622  0.15903999999999996  1.0000
  H   H17       1.0  0.54321  0.22829999999999995  0.98848  1.0000
  H   H18       1.0  0.11011999999999998  0.23624999999999993  0.90536  1.0000
  H   H19       1.0  0.9638600000000002  0.2977  0.91578  1.0000
  H   H20       1.0  0.09608000000000007  0.3737900000000001  0.84088  1.0000
  H   H21       1.0  0.04428  0.5817200000000001  0.05535  1.0000
  H   H22       1.0  0.28226  0.62947  0.1855  1.0000
  H   H23       1.0  0.04793000000000005  0.4056000000000001  0.08802  1.0000
  H   H24       1.0  0.10088000000000004  0.4631600000000001  0.08756  1.0000
  H   H25       1.0  0.10918000000000004  0.4644600000000001  0.14849  1.0000
  H   H26       1.0  0.47456000000000015  0.5549600000000002  0.22701  1.0000
  H   H27       1.0  0.55418  0.43605  0.25627  1.0000
  H   H28       1.0  0.9442000000000003  0.56683  0.23389  1.0000
  H   H29       1.0  0.9396200000000001  0.47229  0.07137  1.0000
  H   H30       1.0  0.77157  0.3417  0.13457  1.0000
  H   H31       1.0  0.76342  0.40795  0.1583  1.0000
  H   H32       1.0  0.8141500000000003  0.37797000000000003  0.10569  1.0000
  H   H33       1.0  0.75272  0.34031000000000006  0.9410699999999999  1.0000
  H   H34       1.0  0.55161  0.18921999999999997  0.8741699999999999  1.0000
  H   H35       1.0  0.5174199999999999  0.30985  0.7133399999999999  1.0000
  H   H36       1.0  0.27509  0.36531  0.73609  1.0000
  H   H37       1.0  0.22380999999999998  0.18562  0.76219  1.0000
  H   H38       1.0  0.31298  0.23925  0.77227  1.0000
  H   H39       1.0  0.19427999999999998  0.23797999999999994  0.75613  1.0000
  H   H40       1.0  0.97928  0.2987  0.8336  1.0000
  H   H41       1.0  0.14441  0.64754  0.14482  1.0000
  H   H42       1.0  0.47790999999999995  0.50862  0.27887  1.0000
  H   H43       1.0  0.0272  0.54207  0.16391  1.0000
  H   H44       1.0  0.7153800000000001  0.24846000000000007  0.92143  1.0000
  H   H45       1.0  0.39042999999999994  0.34248  0.68476  1.0000
  H   H46       1.0  0.30643000000000004  0.90326  0.26857  1.0000
  H   H47       1.0  0.46996  0.029019999999999983  0.30991  1.0000
  H   H48       1.0  0.26935  0.021380000000000007  0.32387  1.0000
  H   H49       1.0  0.06838999999999996  0.99847  0.36379  1.0000
  H   H50       1.0  0.27709  0.07258000000000002  0.51453  1.0000
  H   H51       1.0  0.07318000000000015  0.9945400000000003  0.49036  1.0000
  H   H52       1.0  0.18169999999999997  0.86437  0.40848999999999996  1.0000
  H   H53       1.0  0.39258  0.84753  0.37551  1.0000
  H   H54       1.0  0.4413800000000001  0.8178500000000002  0.22703  1.0000
  H   H55       1.0  0.5646800000000002  0.78943  0.31467  1.0000
  H   H56       1.0  0.72362  0.95194  0.38349  1.0000
  H   H57       1.0  0.70862  0.08236  0.45908  1.0000
  H   H58       1.0  0.57337  0.14786000000000002  0.37376  1.0000
  H   H59       1.0  0.73612  0.20761000000000002  0.50762  1.0000
  H   H60       1.0  0.47262  0.18386  0.54156  1.0000
  H   H61       1.0  0.15337000000000006  0.8409600000000003  0.20708  1.0000
  H   H62       1.0  0.55448  0.011460000000000005  0.23974000000000004  1.0000
  H   H63       1.0  0.20461000000000004  0.09463000000000003  0.33107  1.0000
  H   H64       1.0  0.04807999999999999  0.08416999999999997  0.38197  1.0000
  H   H65       1.0  0.25517  0.15919  0.53307  1.0000
  H   H66       1.0  0.98912  0.9446700000000002  0.52647  1.0000
  H   H67       1.0  0.09714000000000007  0.8145600000000001  0.44386  1.0000
  H   H68       1.0  0.95991  0.9120400000000002  0.31767  1.0000
  H   H69       1.0  0.013280000000000085  0.9123500000000002  0.37564  1.0000
  H   H70       1.0  0.96071  0.8515000000000003  0.31582  1.0000
  H   H71       1.0  0.24808999999999998  0.7730599999999999  0.32803  1.0000
  H   H72       1.0  0.2977900000000001  0.74365  0.17963  1.0000
  H   H73       1.0  0.7105100000000001  0.76628  0.33304  1.0000
  H   H74       1.0  0.86836  0.9286900000000002  0.40081  1.0000
  H   H75       1.0  0.6370500000000001  0.8653200000000002  0.20689  1.0000
  H   H76       1.0  0.60501  0.84172  0.24942999999999999  1.0000
  H   H77       1.0  0.7083800000000001  0.8943500000000002  0.27213  1.0000
  H   H78       1.0  0.8113300000000002  0.058789999999999995  0.39912  1.0000
  H   H79       1.0  0.67733  0.12596000000000002  0.31528  1.0000
  H   H80       1.0  0.80387  0.28677  0.59668  1.0000
  H   H81       1.0  0.5388800000000002  0.26416  0.62948  1.0000
  H   H82       1.0  0.46159  0.23775  0.42352  1.0000
  H   H83       1.0  0.54065  0.22788000000000005  0.46724  1.0000
  H   H84       1.0  0.43802  0.24398  0.48196  1.0000
  H   H85       1.0  0.14538999999999996  0.16638  0.46533  1.0000
  H   H86       1.0  0.99992  0.8552100000000002  0.50268  1.0000
  H   H87       1.0  0.19913000000000008  0.7211900000000002  0.22972  1.0000
  H   H88       1.0  0.86344  0.83626  0.37822  1.0000
  H   H89       1.0  0.79366  0.07854  0.32702000000000003  1.0000
  H   H90       1.0  0.7055500000000001  0.3155000000000001  0.658  1.0000
  H   H91       1.0  0.03786000000000005  0.7314700000000002  0.63503  1.0000
  H   H92       1.0  0.16033000000000006  0.6902100000000002  0.71927  1.0000
  H   H93       1.0  0.9453800000000002  0.67617  0.6977300000000001  1.0000
  H   H94       1.0  0.70457  0.6363200000000001  0.63477  1.0000
  H   H95       1.0  0.7627100000000002  0.4856000000000001  0.5581  1.0000
  H   H96       1.0  0.5829800000000004  0.5098400000000002  0.50428  1.0000
  H   H97       1.0  0.7732700000000002  0.5913900000000001  0.45591  1.0000
  H   H98       1.0  0.016620000000000103  0.6245800000000002  0.47222  1.0000
  H   H99       1.0  0.21449000000000004  0.77309  0.59093  1.0000
  H   H100      1.0  0.2497800000000001  0.6853500000000002  0.47479  1.0000
  H   H101      1.0  0.3399600000000001  0.61643  0.5683  1.0000
  H   H102      1.0  0.24985999999999994  0.54101  0.62336  1.0000
  H   H103      1.0  0.19979  0.6262500000000001  0.7742699999999999  1.0000
  H   H104      1.0  0.2287500000000001  0.4924700000000002  0.70008  1.0000
  H   H105      1.0  0.93136  0.4585300000000001  0.64216  1.0000
  H   H106      1.0  0.9464300000000002  0.7928800000000003  0.6339  1.0000
  H   H107      1.0  0.31508000000000014  0.76026  0.77185  1.0000
  H   H108      1.0  0.8737400000000002  0.66907  0.76391  1.0000
  H   H109      1.0  0.6661000000000002  0.6182700000000002  0.70236  1.0000
  H   H110      1.0  0.72226  0.46712000000000004  0.62619  1.0000
  H   H111      1.0  0.4626500000000002  0.4736800000000001  0.41826  1.0000
  H   H112      1.0  0.65325  0.5560200000000002  0.37068  1.0000
  H   H113      1.0  0.64227  0.6824  0.59444  1.0000
  H   H114      1.0  0.63757  0.62447  0.53665  1.0000
  H   H115      1.0  0.64504  0.6843500000000002  0.53582  1.0000
  H   H116      1.0  0.9195300000000001  0.6721000000000003  0.44544  1.0000
  H   H117      1.0  0.11818999999999998  0.82046  0.56428  1.0000
  H   H118      1.0  0.3773800000000001  0.66709  0.43331  1.0000
  H   H119      1.0  0.4675000000000001  0.5992400000000002  0.52777  1.0000
  H   H120      1.0  0.4299000000000002  0.79312  0.65845  1.0000
  H   H121      1.0  0.35532000000000014  0.75046  0.59227  1.0000
  H   H122      1.0  0.43615000000000015  0.7278600000000002  0.62217  1.0000
  H   H123      1.0  0.41248999999999997  0.6009699999999999  0.6598699999999998  1.0000
  H   H124      1.0  0.36218000000000006  0.6847700000000002  0.81101  1.0000
  H   H125      1.0  0.20737  0.40345  0.69007  1.0000
  H   H126      1.0  0.9096500000000001  0.3706300000000001  0.63437  1.0000
  H   H127      1.0  0.038329999999999996  0.57654  0.81428  1.0000
  H   H128      1.0  0.07372000000000002  0.5329  0.76059  1.0000
  H   H129      1.0  0.9563700000000006  0.5180900000000003  0.7619600000000001  1.0000
  H   H130      1.0  0.6801700000000004  0.5349500000000003  0.70122  1.0000
  H   H131      1.0  0.4972300000000001  0.49731  0.35254  1.0000
  H   H132      1.0  0.96929  0.77039  0.49179000000000006  1.0000
  H   H133      1.0  0.48505000000000004  0.6218  0.45793  1.0000
  H   H134      1.0  0.4668800000000001  0.6730600000000001  0.75187  1.0000
  H   H135      1.0  0.04774999999999996  0.34212  0.6571999999999999  1.0000
  H   H136      1.0  0.59677  0.6347  0.90334  1.0000
  H   H137      1.0  0.5591400000000001  0.7192000000000001  0.02895  1.0000
  H   H138      1.0  0.7519300000000002  0.6975600000000002  0.021360000000000004  1.0000
  H   H139      1.0  0.92996  0.6347000000000002  0.9984900000000001  1.0000
  H   H140      1.0  0.7952900000000003  0.5581300000000001  0.07247  1.0000
  H   H141      1.0  0.9214300000000001  0.5043500000000001  0.9945  1.0000
  H   H142      1.0  0.6829  0.4558100000000001  0.86429  1.0000
  H   H143      1.0  0.45532  0.4719100000000001  0.84743  1.0000
  H   H144      1.0  0.37636  0.59073  0.8179  1.0000
  H   H145      1.0  0.2248900000000001  0.47466000000000014  0.78936  1.0000
  H   H146      1.0  0.22846999999999998  0.5682  0.95194  1.0000
  H   H147      1.0  0.37355  0.6234000000000001  0.08255  1.0000
  H   H148      1.0  0.57425  0.7743  0.1478  1.0000
  H   H149      1.0  0.4712100000000001  0.7001300000000001  0.20765  1.0000
  H   H150      1.0  0.7110100000000004  0.6424000000000002  0.18377000000000002  1.0000
  H   H151      1.0  0.68743  0.63378  0.84096  1.0000
  H   H152      1.0  0.4568  0.7717  0.011520000000000002  1.0000
  H   H153      1.0  0.88989  0.7637500000000003  0.09464  1.0000
  H   H154      1.0  0.03612999999999999  0.7023  0.08422  1.0000
  H   H155      1.0  0.90391  0.62622  0.15912  1.0000
  H   H156      1.0  0.9557200000000001  0.4182900000000001  0.94465  1.0000
  H   H157      1.0  0.71774  0.37053  0.8145  1.0000
  H   H158      1.0  0.9520799999999999  0.5944  0.91197  1.0000
  H   H159      1.0  0.89912  0.53683  0.91243  1.0000
  H   H160      1.0  0.89081  0.53554  0.85151  1.0000
  H   H161      1.0  0.5254300000000001  0.4450500000000001  0.77299  1.0000
  H   H162      1.0  0.4458200000000001  0.5639600000000003  0.7437400000000001  1.0000
  H   H163      1.0  0.05581000000000011  0.43318000000000023  0.7661100000000001  1.0000
  H   H164      1.0  0.06038000000000007  0.5277100000000001  0.92863  1.0000
  H   H165      1.0  0.22843000000000008  0.6583000000000002  0.86543  1.0000
  H   H166      1.0  0.23658  0.59205  0.8417  1.0000
  H   H167      1.0  0.18586000000000008  0.6220400000000003  0.89432  1.0000
  H   H168      1.0  0.24728000000000008  0.6597000000000002  0.05893  1.0000
  H   H169      1.0  0.4484000000000001  0.81079  0.12584  1.0000
  H   H170      1.0  0.48258  0.69015  0.28666  1.0000
  H   H171      1.0  0.7249100000000003  0.6346900000000002  0.26391  1.0000
  H   H172      1.0  0.7761899999999999  0.8143900000000002  0.23781  1.0000
  H   H173      1.0  0.6870200000000001  0.7607500000000003  0.22774  1.0000
  H   H174      1.0  0.8057300000000001  0.76203  0.24388  1.0000
  H   H175      1.0  0.020709999999999996  0.7013  0.16641  1.0000
  H   H176      1.0  0.8556000000000001  0.3524600000000001  0.85519  1.0000
  H   H177      1.0  0.52208  0.49139  0.72113  1.0000
  H   H178      1.0  0.9727999999999999  0.45793000000000006  0.83609  1.0000
  H   H179      1.0  0.2846200000000001  0.7515400000000002  0.07857  1.0000
  H   H180      1.0  0.60958  0.6575300000000002  0.31525  1.0000
  H   H181      1.0  0.69358  0.09673999999999999  0.73144  1.0000
  H   H182      1.0  0.5300400000000001  0.9709800000000002  0.69009  1.0000
  H   H183      1.0  0.73066  0.9786200000000002  0.6761299999999999  1.0000
  H   H184      1.0  0.93161  0.0015300000000000244  0.63621  1.0000
  H   H185      1.0  0.7229199999999999  0.9274299999999999  0.48547  1.0000
  H   H186      1.0  0.9268300000000003  0.005459999999999993  0.50964  1.0000
  H   H187      1.0  0.81831  0.13563  0.59151  1.0000
  H   H188      1.0  0.60742  0.15247999999999995  0.6245  1.0000
  H   H189      1.0  0.55863  0.18216000000000002  0.77297  1.0000
  H   H190      1.0  0.4353200000000001  0.21058  0.68533  1.0000
  H   H191      1.0  0.27639000000000014  0.04806000000000005  0.61652  1.0000
  H   H192      1.0  0.29138  0.91764  0.54091  1.0000
  H   H193      1.0  0.42663000000000006  0.8521500000000002  0.62624  1.0000
  H   H194      1.0  0.26387999999999995  0.79239  0.49237999999999993  1.0000
  H   H195      1.0  0.5273800000000001  0.8161400000000002  0.45845  1.0000
  H   H196      1.0  0.8466299999999999  0.15904000000000004  0.79292  1.0000
  H   H197      1.0  0.44551999999999997  0.98855  0.7602699999999999  1.0000
  H   H198      1.0  0.7953900000000003  0.9053700000000001  0.66894  1.0000
  H   H199      1.0  0.9519100000000004  0.9158300000000003  0.61804  1.0000
  H   H200      1.0  0.7448300000000001  0.8408100000000002  0.46693  1.0000
  H   H201      1.0  0.010879999999999954  0.05532999999999997  0.47352999999999995  1.0000
  H   H202      1.0  0.90286  0.1854400000000001  0.55614  1.0000
  H   H203      1.0  0.04009000000000008  0.08797000000000006  0.68235  1.0000
  H   H204      1.0  0.98672  0.08764  0.62437  1.0000
  H   H205      1.0  0.03929  0.14849999999999994  0.68418  1.0000
  H   H206      1.0  0.7519100000000002  0.22695  0.6719699999999998  1.0000
  H   H207      1.0  0.70222  0.25635000000000013  0.82037  1.0000
  H   H208      1.0  0.28948  0.2337200000000001  0.66695  1.0000
  H   H209      1.0  0.13165000000000002  0.07132000000000005  0.5992  1.0000
  H   H210      1.0  0.3629500000000001  0.13468000000000008  0.79311  1.0000
  H   H211      1.0  0.39500000000000013  0.15828  0.75058  1.0000
  H   H212      1.0  0.29162  0.10564999999999994  0.72788  1.0000
  H   H213      1.0  0.18866000000000002  0.9412000000000001  0.60087  1.0000
  H   H214      1.0  0.32267000000000007  0.8740500000000002  0.68473  1.0000
  H   H215      1.0  0.19613000000000005  0.7132400000000001  0.40332000000000007  1.0000
  H   H216      1.0  0.46113000000000004  0.73585  0.37052  1.0000
  H   H217      1.0  0.5384  0.7622500000000002  0.57648  1.0000
  H   H218      1.0  0.45935  0.77212  0.53277  1.0000
  H   H219      1.0  0.5619800000000001  0.7560200000000002  0.51805  1.0000
  H   H220      1.0  0.8546100000000001  0.8336200000000004  0.53467  1.0000
  H   H221      1.0  7.000000000002829e-05  0.14479000000000003  0.49732  1.0000
  H   H222      1.0  0.80087  0.27881  0.77029  1.0000
  H   H223      1.0  0.13657000000000002  0.16374000000000008  0.62178  1.0000
  H   H224      1.0  0.2063300000000001  0.9214600000000002  0.67298  1.0000
  H   H225      1.0  0.29445  0.68451  0.342  1.0000
  H   H226      1.0  0.9621400000000001  0.26853000000000005  0.3649800000000001  1.0000
  H   H227      1.0  0.8396600000000002  0.30980000000000013  0.28073  1.0000
  H   H228      1.0  0.054630000000000005  0.32383  0.30227  1.0000
  H   H229      1.0  0.2954300000000001  0.3636800000000001  0.36523  1.0000
  H   H230      1.0  0.23729000000000003  0.5144  0.4419  1.0000
  H   H231      1.0  0.41702000000000017  0.49016  0.49572  1.0000
  H   H232      1.0  0.22673000000000001  0.4086100000000001  0.54409  1.0000
  H   H233      1.0  0.98338  0.37542  0.52779  1.0000
  H   H234      1.0  0.78551  0.22692000000000007  0.40907  1.0000
  H   H235      1.0  0.75022  0.31466  0.52522  1.0000
  H   H236      1.0  0.6600300000000002  0.38356999999999997  0.4316999999999999  1.0000
  H   H237      1.0  0.7501400000000001  0.4589900000000001  0.37664  1.0000
  H   H238      1.0  0.80021  0.37376000000000004  0.22573  1.0000
  H   H239      1.0  0.77126  0.50754  0.29992  1.0000
  H   H240      1.0  0.06864000000000002  0.54147  0.35785  1.0000
  H   H241      1.0  0.05357000000000002  0.20712000000000005  0.36610000000000004  1.0000
  H   H242      1.0  0.68491  0.23976000000000003  0.22816  1.0000
  H   H243      1.0  0.12627  0.33093  0.23609  1.0000
  H   H244      1.0  0.33391  0.38174000000000013  0.29764  1.0000
  H   H245      1.0  0.27774  0.53288  0.3738  1.0000
  H   H246      1.0  0.5373500000000002  0.52633  0.58174  1.0000
  H   H247      1.0  0.34675  0.44398  0.62932  1.0000
  H   H248      1.0  0.35773  0.3176  0.40555  1.0000
  H   H249      1.0  0.36243  0.3755300000000001  0.46335  1.0000
  H   H250      1.0  0.35496  0.31564  0.46418  1.0000
  H   H251      1.0  0.08047000000000003  0.32790000000000014  0.55457  1.0000
  H   H252      1.0  0.88181  0.17954  0.43571  1.0000
  H   H253      1.0  0.6226200000000002  0.33292  0.5667  1.0000
  H   H254      1.0  0.5325000000000001  0.40076  0.47223000000000004  1.0000
  H   H255      1.0  0.57012  0.20688000000000006  0.3415500000000001  1.0000
  H   H256      1.0  0.64469  0.24954000000000004  0.40774  1.0000
  H   H257      1.0  0.56386  0.27215  0.37783  1.0000
  H   H258      1.0  0.58751  0.39903  0.34013  1.0000
  H   H259      1.0  0.63782  0.31524000000000013  0.18899  1.0000
  H   H260      1.0  0.79264  0.59656  0.30994  1.0000
  H   H261      1.0  0.09035999999999998  0.62937  0.36563  1.0000
  H   H262      1.0  0.9616700000000001  0.4234600000000001  0.18572  1.0000
  H   H263      1.0  0.9262900000000002  0.4671  0.23941  1.0000
  H   H264      1.0  0.04364000000000001  0.4819100000000001  0.23804999999999998  1.0000
  H   H265      1.0  0.31983000000000017  0.46505000000000024  0.29878  1.0000
  H   H266      1.0  0.50278  0.5027  0.64746  1.0000
  H   H267      1.0  0.030710000000000022  0.22961000000000006  0.50821  1.0000
  H   H268      1.0  0.51495  0.3782  0.54207  1.0000
  H   H269      1.0  0.53311  0.32695000000000013  0.24813  1.0000
  H   H270      1.0  0.9522600000000003  0.65788  0.3428  1.0000
  Au  Au1       1.0  0.3720600000000001  0.4818800000000001  0.01701  1.0000
  Au  Au2       1.0  0.57008  0.4775  0.05226  1.0000
  Au  Au3       1.0  0.46499000000000007  0.4198200000000002  0.9363599999999999  1.0000
  Au  Au4       1.0  0.3550300000000001  0.98305  0.4649  1.0000
  Au  Au5       1.0  0.51802  0.94781  0.4252000000000001  1.0000
  Au  Au6       1.0  0.52845  0.06360000000000005  0.48349  1.0000
  Au  Au7       1.0  0.8901600000000002  0.53509  0.51819  1.0000
  Au  Au8       1.0  0.09257  0.57485  0.52255  1.0000
  Au  Au9       1.0  0.045030000000000056  0.5165200000000001  0.58011  1.0000
  Au  Au10      1.0  0.62794  0.51813  0.98299  1.0000
  Au  Au11      1.0  0.42992000000000014  0.5225000000000002  0.94774  1.0000
  Au  Au12      1.0  0.53502  0.58018  0.06365  1.0000
  Au  Au13      1.0  0.64498  0.016950000000000007  0.53511  1.0000
  Au  Au14      1.0  0.48199  0.05219000000000001  0.5748  1.0000
  Au  Au15      1.0  0.47156000000000003  0.9364000000000002  0.51651  1.0000
  Au  Au16      1.0  0.10984000000000009  0.4649200000000001  0.48182  1.0000
  Au  Au17      1.0  0.90744  0.42516000000000004  0.47746  1.0000
  Au  Au18      1.0  0.95497  0.4834800000000001  0.4199  1.0000
  C   C1        1.0  0.14559  0.40843  0.97062  1.0000
  C   C2        1.0  0.19857  0.5142  0.06795  1.0000
  C   C3        1.0  0.25143  0.42470000000000013  0.07237  1.0000
  C   C4        1.0  0.5908700000000002  0.4679100000000002  0.16316  1.0000
  C   C5        1.0  0.7617600000000002  0.47655000000000003  0.12784  1.0000
  C   C6        1.0  0.6100600000000003  0.37666999999999995  0.07204  1.0000
  C   C7        1.0  0.51828  0.30302000000000007  0.88263  1.0000
  C   C8        1.0  0.40914000000000006  0.3275599999999999  0.8090999999999999  1.0000
  C   C9        1.0  0.32176999999999994  0.29503999999999997  0.87747  1.0000
  C   C10       1.0  0.3445  0.38193  0.09926  1.0000
  C   C11       1.0  0.50511  0.29941  0.00312  1.0000
  C   C12       1.0  0.24718000000000007  0.28956000000000004  0.93791  1.0000
  C   C13       1.0  0.07732999999999998  0.36747  0.9667  1.0000
  C   C14       1.0  0.15161000000000008  0.4102800000000001  0.9246900000000001  1.0000
  C   C15       1.0  0.12227000000000006  0.52491  0.04504999999999999  1.0000
  C   C16       1.0  0.25665  0.55226  0.11864  1.0000
  C   C17       1.0  0.19709000000000004  0.42376000000000014  0.10558  1.0000
  C   C18       1.0  0.54777  0.50867  0.176  1.0000
  C   C19       1.0  0.59237  0.4416700000000002  0.19222  1.0000
  C   C20       1.0  0.81112  0.51448  0.18025  1.0000
  C   C21       1.0  0.80875  0.46183  0.08873000000000002  1.0000
  C   C22       1.0  0.6667500000000001  0.3475000000000001  0.08229  1.0000
  C   C23       1.0  0.6106700000000002  0.33543000000000006  0.9073800000000001  1.0000
  C   C24       1.0  0.4976300000000002  0.25022000000000005  0.8703100000000001  1.0000
  C   C25       1.0  0.47353  0.31428000000000006  0.78001  1.0000
  C   C26       1.0  0.33772000000000013  0.34617  0.79297  1.0000
  C   C27       1.0  0.2480700000000001  0.2549600000000002  0.8357700000000001  1.0000
  C   C28       1.0  0.29469  0.38233  0.13369  1.0000
  C   C29       1.0  0.56204  0.27103  0.012829999999999998  1.0000
  C   C30       1.0  0.17111000000000004  0.25304000000000004  0.89769  1.0000
  C   C31       1.0  0.017059999999999974  0.32855  0.91753  1.0000
  C   C32       1.0  0.09114000000000001  0.37140999999999996  0.87582  1.0000
  C   C33       1.0  0.10306  0.57295  0.07297  1.0000
  C   C34       1.0  0.23691000000000012  0.5999900000000002  0.14642  1.0000
  C   C35       1.0  0.11076000000000003  0.44074  0.10755  1.0000
  C   C36       1.0  0.50764  0.52334  0.21762  1.0000
  C   C37       1.0  0.55235  0.45661  0.234  1.0000
  C   C38       1.0  0.90651  0.53777  0.19310999999999998  1.0000
  C   C39       1.0  0.9041900000000003  0.48495  0.10201  1.0000
  C   C40       1.0  0.75813  0.3708300000000001  0.12351  1.0000
  C   C41       1.0  0.6811200000000002  0.3152000000000001  0.92041  1.0000
  C   C42       1.0  0.56851  0.23006000000000004  0.88323  1.0000
  C   C43       1.0  0.46668  0.31986  0.73543  1.0000
  C   C44       1.0  0.33037  0.35068000000000005  0.74801  1.0000
  C   C45       1.0  0.24589000000000005  0.22863000000000006  0.77888  1.0000
  C   C46       1.0  0.024579999999999984  0.32992999999999995  0.87201  1.0000
  C   C47       1.0  0.15995  0.61028  0.12363  1.0000
  C   C48       1.0  0.51002  0.4974300000000001  0.2467  1.0000
  C   C49       1.0  0.95316  0.52344  0.15406  1.0000
  C   C50       1.0  0.6599400000000001  0.26278000000000007  0.9089300000000001  1.0000
  C   C51       1.0  0.39519  0.3378400000000001  0.71921  1.0000
  C   C52       1.0  0.17476  0.02937000000000002  0.43792  1.0000
  C   C53       1.0  0.13069000000000006  0.93208  0.44630000000000003  1.0000
  C   C54       1.0  0.17898000000000008  0.9276900000000002  0.35235000000000005  1.0000
  C   C55       1.0  0.4278200000000001  0.8368700000000002  0.30465  1.0000
  C   C56       1.0  0.63403  0.87221  0.34854999999999997  1.0000
  C   C57       1.0  0.5380100000000003  0.9279400000000002  0.30449  1.0000
  C   C58       1.0  0.63542  0.1173  0.42048  1.0000
  C   C59       1.0  0.59986  0.19092000000000012  0.51865  1.0000
  C   C60       1.0  0.4441400000000001  0.12256000000000003  0.41774000000000006  1.0000
  C   C61       1.0  0.24515000000000012  0.90074  0.28264  1.0000
  C   C62       1.0  0.5020600000000001  0.9969200000000004  0.29632  1.0000
  C   C63       1.0  0.30916  0.06212  0.35177  1.0000
  C   C64       1.0  0.11050000000000001  0.033269999999999994  0.40083  1.0000
  C   C65       1.0  0.22679000000000002  0.07534000000000006  0.48573  1.0000
  C   C66       1.0  0.07734  0.95498  0.47997000000000006  1.0000
  C   C67       1.0  0.13823999999999997  0.88142  0.43362  1.0000
  C   C68       1.0  0.09145000000000013  0.8944500000000001  0.31815  1.0000
  C   C69       1.0  0.3720800000000002  0.8240600000000002  0.33264  1.0000
  C   C70       1.0  0.40010000000000007  0.8077400000000002  0.24932  1.0000
  C   C71       1.0  0.63102  0.81984  0.33417  1.0000
  C   C72       1.0  0.7201400000000003  0.9113100000000002  0.37291  1.0000
  C   C73       1.0  0.58435  0.91766  0.26501  1.0000
  C   C74       1.0  0.70301  0.09248000000000003  0.42803  1.0000
  C   C75       1.0  0.6271400000000001  0.12971000000000005  0.38009  1.0000
  C   C76       1.0  0.6933  0.22004  0.53444  1.0000
  C   C77       1.0  0.5446000000000002  0.2071500000000001  0.55342  1.0000
  C   C78       1.0  0.4122  0.16426  0.41937  1.0000
  C   C79       1.0  0.16090999999999991  0.86633  0.24858  1.0000
  C   C80       1.0  0.5490200000000002  0.9871100000000002  0.2581  1.0000
  C   C81       1.0  0.27327000000000007  0.10233000000000006  0.35553  1.0000
  C   C82       1.0  0.09949000000000002  0.08244999999999998  0.4111  1.0000
  C   C83       1.0  0.21525  0.12421000000000004  0.49574  1.0000
  C   C84       1.0  0.030290000000000115  0.9270600000000002  0.50006  1.0000
  C   C85       1.0  0.09080000000000014  0.8536300000000002  0.45353  1.0000
  C   C86       1.0  0.003179999999999965  0.89246  0.33319  1.0000
  C   C87       1.0  0.29036  0.7824000000000002  0.30571  1.0000
  C   C88       1.0  0.31833000000000006  0.7659400000000002  0.22249999999999998  1.0000
  C   C89       1.0  0.7135700000000004  0.8070300000000002  0.3447  1.0000
  C   C90       1.0  0.8022800000000002  0.8980600000000004  0.3828500000000001  1.0000
  C   C91       1.0  0.6345700000000001  0.8764700000000002  0.2471  1.0000
  C   C92       1.0  0.7604400000000002  0.07952  0.39476999999999995  1.0000
  C   C93       1.0  0.68512  0.11685000000000002  0.34701  1.0000
  C   C94       1.0  0.7310400000000001  0.2647  0.58461  1.0000
  C   C95       1.0  0.58222  0.2521900000000001  0.6029  1.0000
  C   C96       1.0  0.46694  0.22115000000000004  0.4499  1.0000
  C   C97       1.0  0.15248000000000003  0.12799000000000005  0.45807  1.0000
  C   C98       1.0  0.03659000000000006  0.8763900000000001  0.48662  1.0000
  C   C99       1.0  0.2635000000000002  0.7532900000000002  0.25069  1.0000
  C   C100      1.0  0.79922  0.84607  0.3694  1.0000
  C   C101      1.0  0.75083  0.09109  0.35391  1.0000
  C   C102      1.0  0.67582  0.28101  0.61886  1.0000
  C   C103      1.0  0.73686  0.56218  0.59153  1.0000
  C   C104      1.0  0.6844800000000001  0.5537  0.4858100000000001  1.0000
  C   C105      1.0  0.82667  0.6476700000000002  0.57543  1.0000
  C   C106      1.0  0.12303999999999998  0.69541  0.53234  1.0000
  C   C107      1.0  0.28531000000000006  0.6514300000000001  0.5236  1.0000
  C   C108      1.0  0.23354  0.69551  0.62349  1.0000
  C   C109      1.0  0.2152  0.5796  0.69694  1.0000
  C   C110      1.0  0.08148  0.48144000000000003  0.67222  1.0000
  C   C111      1.0  0.0266200000000001  0.5823600000000002  0.7049100000000001  1.0000
  C   C112      1.0  0.9625400000000001  0.7173800000000002  0.61828  1.0000
  C   C113      1.0  0.2059700000000001  0.7037100000000002  0.70071  1.0000
  C   C114      1.0  0.95745  0.64831  0.71056  1.0000
  C   C115      1.0  0.70964  0.5993  0.63253  1.0000
  C   C116      1.0  0.74113  0.5144  0.58968  1.0000
  C   C117      1.0  0.5974299999999999  0.52013  0.47506  1.0000
  C   C118      1.0  0.70468  0.56631  0.44781  1.0000
  C   C119      1.0  0.7733500000000002  0.6818500000000002  0.57634  1.0000
  C   C120      1.0  0.03912999999999996  0.66746  0.49163  1.0000
  C   C121      1.0  0.15080999999999997  0.75076  0.55858  1.0000
  C   C122      1.0  0.29668  0.66586  0.48567  1.0000
  C   C123      1.0  0.34709  0.62707  0.5383  1.0000
  C   C124      1.0  0.31939000000000006  0.7349700000000002  0.6527000000000001  1.0000
  C   C125      1.0  0.27526  0.5720500000000002  0.6645799999999998  1.0000
  C   C126      1.0  0.24725000000000005  0.6199600000000002  0.74981  1.0000
  C   C127      1.0  0.15912000000000012  0.4656700000000001  0.68559  1.0000
  C   C128      1.0  0.9914800000000001  0.44669  0.65359  1.0000
  C   C129      1.0  0.99309  0.58075  0.7449999999999999  1.0000
  C   C130      1.0  0.9124000000000001  0.7514100000000002  0.6178  1.0000
  C   C131      1.0  0.2912000000000001  0.7418900000000003  0.72912  1.0000
  C   C132      1.0  0.91792  0.6445900000000002  0.74706  1.0000
  C   C133      1.0  0.6883500000000002  0.58909  0.67147  1.0000
  C   C134      1.0  0.71957  0.5044300000000003  0.62856  1.0000
  C   C135      1.0  0.53023  0.50003  0.42704  1.0000
  C   C136      1.0  0.63727  0.54642  0.40011  1.0000
  C   C137      1.0  0.67002  0.6668900000000002  0.55932  1.0000
  C   C138      1.0  0.98428  0.6944000000000001  0.47700999999999993  1.0000
  C   C139      1.0  0.09579000000000007  0.7775900000000001  0.5437  1.0000
  C   C140      1.0  0.36873000000000006  0.65537  0.46234000000000003  1.0000
  C   C141      1.0  0.41931  0.61717  0.51512  1.0000
  C   C142      1.0  0.3873500000000001  0.7528700000000003  0.62937  1.0000
  C   C143      1.0  0.36596  0.60534  0.68495  1.0000
  C   C144      1.0  0.33831  0.65306  0.7701099999999999  1.0000
  C   C145      1.0  0.14664000000000005  0.4155100000000001  0.68002  1.0000
  C   C146      1.0  0.97956  0.3972100000000001  0.64907  1.0000
  C   C147      1.0  0.017309999999999964  0.55018  0.77126  1.0000
  C   C148      1.0  0.69443  0.54214  0.67004  1.0000
  C   C149      1.0  0.54996  0.51339  0.38979  1.0000
  C   C150      1.0  0.012610000000000015  0.74942  0.50295  1.0000
  C   C151      1.0  0.4296700000000001  0.6306300000000001  0.4766  1.0000
  C   C152      1.0  0.39714  0.64618  0.73745  1.0000
  C   C153      1.0  0.05719000000000005  0.3812600000000001  0.66194  1.0000
  C   C154      1.0  0.8544100000000002  0.5915700000000003  0.029379999999999996  1.0000
  C   C155      1.0  0.80143  0.4858000000000001  0.93205  1.0000
  C   C156      1.0  0.7485800000000002  0.5753000000000001  0.9276399999999999  1.0000
  C   C157      1.0  0.4091300000000001  0.5321  0.83685  1.0000
  C   C158      1.0  0.2382500000000001  0.52346  0.87216  1.0000
  C   C159      1.0  0.3899400000000001  0.62334  0.92797  1.0000
  C   C160      1.0  0.48172  0.69699  0.11737  1.0000
  C   C161      1.0  0.5908600000000002  0.6724500000000002  0.19091  1.0000
  C   C162      1.0  0.67824  0.70497  0.12253  1.0000
  C   C163      1.0  0.65551  0.6180800000000002  0.90074  1.0000
  C   C164      1.0  0.49489999999999995  0.70059  0.99688  1.0000
  C   C165      1.0  0.7528200000000003  0.71045  0.0621  1.0000
  C   C166      1.0  0.92267  0.63253  0.0333  1.0000
  C   C167      1.0  0.84838  0.5897200000000002  0.07531  1.0000
  C   C168      1.0  0.8777300000000002  0.47510000000000013  0.95495  1.0000
  C   C169      1.0  0.74335  0.44774  0.88137  1.0000
  C   C170      1.0  0.8029100000000002  0.57625  0.89442  1.0000
  C   C171      1.0  0.45223000000000013  0.49133999999999994  0.8240099999999999  1.0000
  C   C172      1.0  0.4076200000000001  0.5583400000000001  0.80778  1.0000
  C   C173      1.0  0.18889000000000003  0.4855200000000001  0.81975  1.0000
  C   C174      1.0  0.19124999999999995  0.53818  0.91128  1.0000
  C   C175      1.0  0.33325999999999995  0.6525  0.91771  1.0000
  C   C176      1.0  0.38933000000000023  0.6645700000000002  0.09262  1.0000
  C   C177      1.0  0.5023800000000003  0.74978  0.1297  1.0000
  C   C178      1.0  0.52647  0.68572  0.22  1.0000
  C   C179      1.0  0.66229  0.6538400000000002  0.20703999999999997  1.0000
  C   C180      1.0  0.7519300000000003  0.74505  0.16423000000000001  1.0000
  C   C181      1.0  0.7053100000000002  0.61767  0.86631  1.0000
  C   C182      1.0  0.4379800000000001  0.7289700000000002  0.98717  1.0000
  C   C183      1.0  0.8289000000000003  0.7469700000000002  0.10232  1.0000
  C   C184      1.0  0.9829300000000003  0.6714500000000002  0.08247  1.0000
  C   C185      1.0  0.90885  0.62859  0.12418  1.0000
  C   C186      1.0  0.8969400000000002  0.42705  0.92703  1.0000
  C   C187      1.0  0.76309  0.40001  0.85358  1.0000
  C   C188      1.0  0.88924  0.55926  0.89245  1.0000
  C   C189      1.0  0.49235000000000007  0.4766700000000001  0.78238  1.0000
  C   C190      1.0  0.4476500000000001  0.5433900000000003  0.766  1.0000
  C   C191      1.0  0.09349000000000006  0.4622400000000001  0.80689  1.0000
  C   C192      1.0  0.09581  0.5150500000000001  0.89799  1.0000
  C   C193      1.0  0.24188000000000015  0.6291700000000002  0.8765  1.0000
  C   C194      1.0  0.3188900000000002  0.6848100000000003  0.07958999999999998  1.0000
  C   C195      1.0  0.4314900000000002  0.7699400000000002  0.11678  1.0000
  C   C196      1.0  0.5333200000000001  0.68015  0.26457  1.0000
  C   C197      1.0  0.66963  0.64933  0.25199  1.0000
  C   C198      1.0  0.7541200000000002  0.77137  0.22113000000000002  1.0000
  C   C199      1.0  0.97542  0.67007  0.128  1.0000
  C   C200      1.0  0.8400500000000003  0.38973000000000013  0.87637  1.0000
  C   C201      1.0  0.4899800000000002  0.50258  0.7532999999999999  1.0000
  C   C202      1.0  0.04685000000000003  0.4765700000000001  0.84594  1.0000
  C   C203      1.0  0.34007000000000004  0.7372200000000002  0.09107  1.0000
  C   C204      1.0  0.60481  0.66217  0.2808  1.0000
  C   C205      1.0  0.8252500000000002  0.9706300000000001  0.56208  1.0000
  C   C206      1.0  0.86931  0.06792000000000001  0.5537  1.0000
  C   C207      1.0  0.82102  0.07230999999999994  0.64766  1.0000
  C   C208      1.0  0.57219  0.16313999999999995  0.69536  1.0000
  C   C209      1.0  0.36597  0.1278  0.65146  1.0000
  C   C210      1.0  0.4619900000000001  0.07206  0.69551  1.0000
  C   C211      1.0  0.36457000000000006  0.8827000000000003  0.57952  1.0000
  C   C212      1.0  0.40014000000000005  0.80908  0.48135  1.0000
  C   C213      1.0  0.5558499999999998  0.8774399999999999  0.58226  1.0000
  C   C214      1.0  0.7548500000000001  0.09926  0.7173600000000001  1.0000
  C   C215      1.0  0.4979400000000001  0.0030800000000000055  0.70369  1.0000
  C   C216      1.0  0.6908400000000002  0.9378800000000005  0.64824  1.0000
  C   C217      1.0  0.8895000000000002  0.9667300000000001  0.59917  1.0000
  C   C218      1.0  0.7732100000000001  0.9246700000000002  0.51427  1.0000
  C   C219      1.0  0.92267  0.04502000000000002  0.52003  1.0000
  C   C220      1.0  0.8617600000000002  0.11858000000000002  0.56638  1.0000
  C   C221      1.0  0.9085500000000002  0.10555  0.68185  1.0000
  C   C222      1.0  0.62792  0.17595000000000005  0.66736  1.0000
  C   C223      1.0  0.5999100000000002  0.1922700000000001  0.75069  1.0000
  C   C224      1.0  0.36898  0.18016999999999997  0.66583  1.0000
  C   C225      1.0  0.2798700000000001  0.08870000000000001  0.62709  1.0000
  C   C226      1.0  0.41565  0.08234  0.735  1.0000
  C   C227      1.0  0.29698000000000013  0.9075100000000001  0.57196  1.0000
  C   C228      1.0  0.37287000000000003  0.8702900000000001  0.61991  1.0000
  C   C229      1.0  0.30671  0.77997  0.46556  1.0000
  C   C230      1.0  0.45541000000000026  0.7928600000000005  0.44659  1.0000
  C   C231      1.0  0.5878000000000001  0.8357500000000002  0.58064  1.0000
  C   C232      1.0  0.8390899999999999  0.13367000000000007  0.75142  1.0000
  C   C233      1.0  0.45098000000000016  0.01289000000000008  0.7419100000000001  1.0000
  C   C234      1.0  0.7267300000000003  0.8976700000000001  0.6444700000000001  1.0000
  C   C235      1.0  0.9005100000000003  0.91755  0.5889  1.0000
  C   C236      1.0  0.7847500000000002  0.87579  0.50426  1.0000
  C   C237      1.0  0.96972  0.07293999999999999  0.49994  1.0000
  C   C238      1.0  0.9092  0.14637000000000003  0.54647  1.0000
  C   C239      1.0  0.99682  0.10754  0.66681  1.0000
  C   C240      1.0  0.70964  0.21761000000000003  0.69429  1.0000
  C   C241      1.0  0.68168  0.23406000000000005  0.7775099999999999  1.0000
  C   C242      1.0  0.28643000000000013  0.19297000000000006  0.6552999999999999  1.0000
  C   C243      1.0  0.19773  0.10194000000000006  0.61716  1.0000
  C   C244      1.0  0.3654300000000001  0.12353  0.7529  1.0000
  C   C245      1.0  0.2395500000000001  0.9204800000000002  0.60523  1.0000
  C   C246      1.0  0.31488  0.88315  0.65299  1.0000
  C   C247      1.0  0.26896  0.73531  0.4154  1.0000
  C   C248      1.0  0.41778000000000004  0.74782  0.3971  1.0000
  C   C249      1.0  0.53306  0.77885  0.5501  1.0000
  C   C250      1.0  0.84752  0.87201  0.54193  1.0000
  C   C251      1.0  0.9634100000000002  0.12361000000000004  0.51337  1.0000
  C   C252      1.0  0.7365000000000002  0.24671  0.74931  1.0000
  C   C253      1.0  0.20077999999999996  0.15393  0.6306099999999999  1.0000
  C   C254      1.0  0.24916999999999995  0.9089100000000002  0.6460899999999999  1.0000
  C   C255      1.0  0.3241800000000001  0.7189900000000001  0.38114  1.0000
  C   C256      1.0  0.26314  0.43782000000000004  0.40847  1.0000
  C   C257      1.0  0.3155200000000001  0.4463000000000001  0.51419  1.0000
  C   C258      1.0  0.17331999999999997  0.35233  0.42457  1.0000
  C   C259      1.0  0.8769600000000001  0.30459000000000014  0.4676600000000001  1.0000
  C   C260      1.0  0.71469  0.34858  0.4764  1.0000
  C   C261      1.0  0.7664600000000001  0.30450000000000005  0.37651  1.0000
  C   C262      1.0  0.7848  0.42041  0.30306  1.0000
  C   C263      1.0  0.9185200000000001  0.5185600000000002  0.32779  1.0000
  C   C264      1.0  0.97338  0.41764  0.29509  1.0000
  C   C265      1.0  0.03746000000000003  0.28262  0.38172000000000006  1.0000
  C   C266      1.0  0.79403  0.2963  0.2993  1.0000
  C   C267      1.0  0.04256000000000005  0.3517000000000001  0.28945  1.0000
  C   C268      1.0  0.29036  0.4007000000000001  0.36747  1.0000
  C   C269      1.0  0.2588700000000001  0.48560000000000014  0.4103200000000001  1.0000
  C   C270      1.0  0.40257000000000015  0.47987000000000013  0.52494  1.0000
  C   C271      1.0  0.29531999999999997  0.43369000000000013  0.55219  1.0000
  C   C272      1.0  0.22665  0.31815000000000004  0.42366  1.0000
  C   C273      1.0  0.9608700000000002  0.33255  0.50837  1.0000
  C   C274      1.0  0.84919  0.24924000000000004  0.44142  1.0000
  C   C275      1.0  0.70332  0.3341400000000001  0.51434  1.0000
  C   C276      1.0  0.65291  0.37293  0.4617  1.0000
  C   C277      1.0  0.68061  0.2650400000000001  0.3473  1.0000
  C   C278      1.0  0.7247400000000002  0.4279500000000001  0.33542  1.0000
  C   C279      1.0  0.7527500000000003  0.3800500000000001  0.2502  1.0000
  C   C280      1.0  0.8408900000000002  0.5343300000000002  0.31441  1.0000
  C   C281      1.0  0.008529999999999987  0.55331  0.34641  1.0000
  C   C282      1.0  0.006910000000000056  0.4192500000000002  0.255  1.0000
  C   C283      1.0  0.08760000000000003  0.2485900000000001  0.3822  1.0000
  C   C284      1.0  0.70879  0.25812  0.27089  1.0000
  C   C285      1.0  0.08208000000000004  0.3554100000000001  0.25294  1.0000
  C   C286      1.0  0.31165000000000004  0.41091  0.32852999999999993  1.0000
  C   C287      1.0  0.28042000000000006  0.4955700000000002  0.37144  1.0000
  C   C288      1.0  0.46977  0.49997000000000014  0.57296  1.0000
  C   C289      1.0  0.36273  0.4535800000000001  0.59989  1.0000
  C   C290      1.0  0.32998  0.3331100000000002  0.44068000000000007  1.0000
  C   C291      1.0  0.015720000000000012  0.3056  0.52299  1.0000
  C   C292      1.0  0.9042  0.22241000000000005  0.4563  1.0000
  C   C293      1.0  0.63127  0.34463  0.53767  1.0000
  C   C294      1.0  0.58068  0.38283  0.48488  1.0000
  C   C295      1.0  0.61266  0.24713000000000004  0.37063  1.0000
  C   C296      1.0  0.63404  0.39467000000000013  0.31505  1.0000
  C   C297      1.0  0.66169  0.3469500000000001  0.22989000000000004  1.0000
  C   C298      1.0  0.8533700000000001  0.5845  0.31997999999999993  1.0000
  C   C299      1.0  0.020449999999999996  0.60279  0.35093  1.0000
  C   C300      1.0  0.9826999999999999  0.44982000000000016  0.22874  1.0000
  C   C301      1.0  0.30557  0.45786  0.32996  1.0000
  C   C302      1.0  0.45004000000000016  0.4866100000000001  0.61021  1.0000
  C   C303      1.0  0.9873900000000001  0.2505800000000001  0.49705  1.0000
  C   C304      1.0  0.5703200000000003  0.3693800000000001  0.52341  1.0000
  C   C305      1.0  0.60286  0.35382  0.26255  1.0000
  C   C306      1.0  0.9428200000000002  0.61874  0.33806  1.0000
  C   C307      1.0  0.49999999999999994  0.5  0.0  1.0000
  C   C308      1.0  0.50001  0.0  0.5  1.0000
  C   C309      1.0  0.0  0.5  0.5  1.0000
  N   N1        1.0  0.3245100000000002  0.4020900000000001  0.06711  1.0000
  N   N2        1.0  0.5285  0.3522500000000001  0.03279  1.0000
  N   N3        1.0  0.3245700000000001  0.3124700000000001  0.9299599999999999  1.0000
  N   N4        1.0  0.21878  0.40222  0.13707  1.0000
  N   N5        1.0  0.64173  0.29419  0.05214  1.0000
  N   N6        1.0  0.16910000000000006  0.23483000000000007  0.84552  1.0000
  N   N7        1.0  0.2573400000000001  0.93293  0.33501  1.0000
  N   N8        1.0  0.4958  0.9672500000000002  0.31944  1.0000
  N   N9        1.0  0.39448  0.07007000000000004  0.38263  1.0000
  N   N10       1.0  0.08165000000000003  0.86293  0.26509  1.0000
  N   N11       1.0  0.5893600000000002  0.9477800000000002  0.24184  1.0000
  N   N12       1.0  0.32345  0.15451000000000006  0.3895  1.0000
  N   N13       1.0  0.9223600000000001  0.6650300000000002  0.59809  1.0000
  N   N14       1.0  0.17651000000000003  0.6805600000000003  0.64787  1.0000
  N   N15       1.0  0.011870000000000006  0.61743  0.68755  1.0000
  N   N16       1.0  0.81663  0.7348900000000002  0.5978  1.0000
  N   N17       1.0  0.34773  0.7581000000000002  0.70601  1.0000
  N   N18       1.0  0.93423  0.61063  0.76521  1.0000
  N   N19       1.0  0.67549  0.5979100000000003  0.9329  1.0000
  N   N20       1.0  0.4715100000000001  0.64775  0.96722  1.0000
  N   N21       1.0  0.67543  0.6875400000000002  0.07004  1.0000
  N   N22       1.0  0.7812200000000004  0.59778  0.86293  1.0000
  N   N23       1.0  0.35828000000000004  0.7058200000000001  0.94787  1.0000
  N   N24       1.0  0.8309000000000002  0.7651700000000001  0.15448  1.0000
  N   N25       1.0  0.74266  0.06706999999999995  0.665  1.0000
  N   N26       1.0  0.5042  0.03276000000000002  0.68056  1.0000
  N   N27       1.0  0.6055200000000001  0.9299400000000003  0.61737  1.0000
  N   N28       1.0  0.91835  0.13707  0.73491  1.0000
  N   N29       1.0  0.4106400000000001  0.05223000000000004  0.7581600000000001  1.0000
  N   N30       1.0  0.67655  0.8455000000000003  0.6105  1.0000
  N   N31       1.0  0.07764  0.33497  0.40191000000000004  1.0000
  N   N32       1.0  0.8234800000000001  0.3194500000000001  0.35213  1.0000
  N   N33       1.0  0.98813  0.38257000000000013  0.31245  1.0000
  N   N34       1.0  0.18336000000000005  0.26511000000000007  0.40218999999999994  1.0000
  N   N35       1.0  0.6522600000000002  0.24191000000000007  0.294  1.0000
  N   N36       1.0  0.06575999999999999  0.38937  0.23479  1.0000
