data_image0
_chemical_formula_structural       Na8Zn8H216C384N32O64
_chemical_formula_sum              "Na8 Zn8 H216 C384 N32 O64"
_cell_length_a       10.85919
_cell_length_b       21.65732
_cell_length_c       45.582
_cell_angle_alpha    90.08438
_cell_angle_beta     93.89227000000001
_cell_angle_gamma    90.02777999999999

_space_group_name_H-M_alt    "P 1"
_space_group_IT_number       1

loop_
  _space_group_symop_operation_xyz
  'x, y, z'

loop_
  _atom_site_type_symbol
  _atom_site_label
  _atom_site_symmetry_multiplicity
  _atom_site_fract_x
  _atom_site_fract_y
  _atom_site_fract_z
  _atom_site_occupancy
  Na  Na1       1.0  0.38771999999999995  0.28119  0.12506999999999996  1.0000
  Na  Na2       1.0  0.60037  0.7718499999999998  0.37654  1.0000
  Na  Na3       1.0  0.12702999999999995  0.7781999999999998  0.3631699999999999  1.0000
  Na  Na4       1.0  0.85497  0.28425  0.12062  1.0000
  Na  Na5       1.0  0.6124099999999999  0.7187699999999999  0.8749399999999998  1.0000
  Na  Na6       1.0  0.39963999999999994  0.22813999999999995  0.6234599999999999  1.0000
  Na  Na7       1.0  0.873  0.22177  0.63684  1.0000
  Na  Na8       1.0  0.14505  0.7157399999999999  0.87939  1.0000
  Zn  Zn1       1.0  0.9118599999999999  0.77361  0.13202999999999998  1.0000
  Zn  Zn2       1.0  0.35545  0.7772799999999999  0.11238  1.0000
  Zn  Zn3       1.0  0.5907300000000001  0.2731799999999999  0.36817  1.0000
  Zn  Zn4       1.0  0.14252999999999993  0.2771  0.3873199999999999  1.0000
  Zn  Zn5       1.0  0.08814999999999992  0.22637999999999997  0.8679699999999998  1.0000
  Zn  Zn6       1.0  0.64457  0.22270999999999994  0.8876199999999997  1.0000
  Zn  Zn7       1.0  0.40928  0.7268099999999998  0.63183  1.0000
  Zn  Zn8       1.0  0.8574899999999999  0.72289  0.61268  1.0000
  H   H1        1.0  0.68896  0.68506  0.22238999999999995  1.0000
  H   H2        1.0  0.70846  0.5878999999999999  0.18583999999999998  1.0000
  H   H3        1.0  0.83825  0.56309  0.07526  1.0000
  H   H4        1.0  0.9607799999999999  0.6339199999999999  0.03863  1.0000
  H   H5        1.0  0.18188  0.8562499999999998  0.04875  1.0000
  H   H6        1.0  0.15741  0.95359  0.08479  1.0000
  H   H7        1.0  0.90917  0.9970299999999999  0.17971  1.0000
  H   H8        1.0  0.7889499999999999  0.9247599999999998  0.21684999999999996  1.0000
  H   H9        1.0  0.8780299999999998  0.7776699999999998  0.25418  1.0000
  H   H10       1.0  0.7733699999999999  0.7910699999999998  0.301  1.0000
  H   H11       1.0  0.44193999999999994  0.8492299999999998  0.25168  1.0000
  H   H12       1.0  0.5472899999999998  0.83827  0.20517999999999995  1.0000
  H   H13       1.0  0.3886199999999999  0.83947  0.32519999999999993  1.0000
  H   H14       1.0  0.9404299999999999  0.51542  0.12566  1.0000
  H   H15       1.0  0.8579399999999999  0.40936999999999996  0.12168  1.0000
  H   H16       1.0  0.4917999999999999  0.47799  0.13262  1.0000
  H   H17       1.0  0.57319  0.58568  0.13426999999999997  1.0000
  H   H18       1.0  0.98051  0.8220099999999999  0.016449999999999996  1.0000
  H   H19       1.0  0.050079999999999986  0.80547  0.96581  1.0000
  H   H20       1.0  0.2589399999999999  0.64732  0.9963999999999997  1.0000
  H   H21       1.0  0.19018999999999997  0.66316  0.04664  1.0000
  H   H22       1.0  0.28735999999999995  0.6611699999999999  0.9240399999999999  1.0000
  H   H23       1.0  0.8599  0.028609999999999997  0.11474999999999998  1.0000
  H   H24       1.0  0.92558  0.13863  0.11666999999999997  1.0000
  H   H25       1.0  0.29214  0.0831  0.14715  1.0000
  H   H26       1.0  0.22313999999999998  0.9730199999999999  0.14705  1.0000
  H   H27       1.0  0.11219999999999998  0.26846  0.13521  1.0000
  H   H28       1.0  0.3786  0.55279  0.06755  1.0000
  H   H29       1.0  0.4988799999999999  0.62587  0.03103  1.0000
  H   H30       1.0  0.585  0.86641  0.02353  1.0000
  H   H31       1.0  0.5700899999999999  0.96312  0.060729999999999985  1.0000
  H   H32       1.0  0.45355  0.98243  0.17266  1.0000
  H   H33       1.0  0.32809  0.9112999999999998  0.20850999999999997  1.0000
  H   H34       1.0  0.07477999999999999  0.69802  0.19407  1.0000
  H   H35       1.0  0.09353  0.6010799999999998  0.15776999999999997  1.0000
  H   H36       1.0  0.32109999999999994  0.54126  0.15719999999999998  1.0000
  H   H37       1.0  0.25859  0.43069  0.15937999999999997  1.0000
  H   H38       1.0  0.06313999999999999  0.4472199999999999  0.07470999999999998  1.0000
  H   H39       1.0  0.13045  0.55725  0.07176  1.0000
  H   H40       1.0  0.40872  0.76941  0.9897199999999999  1.0000
  H   H41       1.0  0.5266399999999999  0.7477099999999999  0.9456199999999999  1.0000
  H   H42       1.0  0.84263  0.69495  0.00188  1.0000
  H   H43       1.0  0.7243399999999999  0.71466  0.04596999999999998  1.0000
  H   H44       1.0  0.91093  0.6783  0.9302099999999998  1.0000
  H   H45       1.0  0.36191  0.029059999999999992  0.08721  1.0000
  H   H46       1.0  0.43143999999999993  0.13838  0.09165999999999998  1.0000
  H   H47       1.0  0.73842  0.08265  0.14999  1.0000
  H   H48       1.0  0.66804  0.97298  0.14611  1.0000
  H   H49       1.0  0.61123  0.26696  0.11165999999999998  1.0000
  H   H50       1.0  0.28417999999999993  0.7249399999999999  0.22673999999999997  1.0000
  H   H51       1.0  0.21622  0.74013  0.27762  1.0000
  H   H52       1.0  0.029819999999999992  0.9071099999999999  0.25035  1.0000
  H   H53       1.0  0.0929  0.8913999999999999  0.19938  1.0000
  H   H54       1.0  0.005470000000000008  0.8773299999999999  0.32623  1.0000
  H   H55       1.0  0.81139  0.18402  0.27764999999999995  1.0000
  H   H56       1.0  0.7919799999999999  0.08698999999999998  0.31415  1.0000
  H   H57       1.0  0.6623399999999999  0.062479999999999994  0.42481999999999986  1.0000
  H   H58       1.0  0.53959  0.13352999999999998  0.4614999999999999  1.0000
  H   H59       1.0  0.31782  0.35571  0.45131  1.0000
  H   H60       1.0  0.3432999999999999  0.45263  0.4152399999999999  1.0000
  H   H61       1.0  0.5906999999999999  0.49578999999999995  0.3205299999999999  1.0000
  H   H62       1.0  0.7105  0.42386999999999997  0.28315999999999997  1.0000
  H   H63       1.0  0.6209899999999999  0.27723  0.24609  1.0000
  H   H64       1.0  0.7237399999999999  0.29078  0.19901999999999997  1.0000
  H   H65       1.0  0.056929999999999974  0.34878  0.24758999999999995  1.0000
  H   H66       1.0  0.9538399999999998  0.3376  0.29444  1.0000
  H   H67       1.0  0.10856999999999996  0.33935999999999994  0.17457999999999999  1.0000
  H   H68       1.0  0.56093  0.014649999999999996  0.37461  1.0000
  H   H69       1.0  0.6426399999999999  0.90781  0.37748999999999994  1.0000
  H   H70       1.0  0.008349999999999998  0.9762999999999997  0.36662  1.0000
  H   H71       1.0  0.9283199999999999  0.08408  0.3660099999999999  1.0000
  H   H72       1.0  0.5194999999999999  0.32182999999999995  0.48372  1.0000
  H   H73       1.0  0.45123  0.30572  0.53443  1.0000
  H   H74       1.0  0.2405799999999999  0.14749  0.5042599999999999  1.0000
  H   H75       1.0  0.3086999999999999  0.16267999999999996  0.45398  1.0000
  H   H76       1.0  0.21567999999999996  0.16489999999999996  0.5780699999999999  1.0000
  H   H77       1.0  0.6400799999999999  0.5286799999999999  0.38554  1.0000
  H   H78       1.0  0.57129  0.6376899999999999  0.38334  1.0000
  H   H79       1.0  0.20656999999999998  0.5783799999999999  0.35232  1.0000
  H   H80       1.0  0.27941  0.46884  0.35331  1.0000
  H   H81       1.0  0.37222  0.7665599999999999  0.36418999999999996  1.0000
  H   H82       1.0  0.12205999999999996  0.05318  0.43236999999999987  1.0000
  H   H83       1.0  0.00146999999999997  0.12582  0.46899999999999986  1.0000
  H   H84       1.0  0.91488  0.36711  0.47646  1.0000
  H   H85       1.0  0.9304099999999998  0.46338  0.4391599999999999  1.0000
  H   H86       1.0  0.04754000000000001  0.48239  0.32736  1.0000
  H   H87       1.0  0.17238  0.41147  0.29117999999999994  1.0000
  H   H88       1.0  0.42509  0.19740999999999997  0.30566  1.0000
  H   H89       1.0  0.40747  0.10147  0.34244  1.0000
  H   H90       1.0  0.17752999999999997  0.04305  0.34246  1.0000
  H   H91       1.0  0.23657999999999998  0.9322699999999999  0.33964999999999995  1.0000
  H   H92       1.0  0.434  0.9463799999999998  0.42427999999999993  1.0000
  H   H93       1.0  0.36967999999999995  0.05669999999999999  0.4278999999999999  1.0000
  H   H94       1.0  0.09592999999999993  0.27032  0.51034  1.0000
  H   H95       1.0  0.98461  0.24852  0.55546  1.0000
  H   H96       1.0  0.66264  0.1951  0.5013  1.0000
  H   H97       1.0  0.77392  0.21454  0.45643999999999996  1.0000
  H   H98       1.0  0.59633  0.17929999999999996  0.57131  1.0000
  H   H99       1.0  0.13724  0.52997  0.41275  1.0000
  H   H100      1.0  0.06558  0.6389899999999998  0.40833  1.0000
  H   H101      1.0  0.76035  0.58169  0.34991999999999995  1.0000
  H   H102      1.0  0.83207  0.47239  0.35373  1.0000
  H   H103      1.0  0.8859899999999999  0.76727  0.3871  1.0000
  H   H104      1.0  0.21581999999999996  0.22315999999999997  0.27211  1.0000
  H   H105      1.0  0.27923  0.23817999999999998  0.22092  1.0000
  H   H106      1.0  0.46881  0.4046899999999999  0.24778999999999995  1.0000
  H   H107      1.0  0.40771  0.38992999999999994  0.29876  1.0000
  H   H108      1.0  0.49305  0.37917  0.17343  1.0000
  H   H109      1.0  0.3110499999999999  0.3149299999999999  0.7776099999999999  1.0000
  H   H110      1.0  0.29155999999999993  0.41209  0.81416  1.0000
  H   H111      1.0  0.16175999999999988  0.4369  0.9247299999999998  1.0000
  H   H112      1.0  0.039239999999999976  0.36606999999999995  0.96137  1.0000
  H   H113      1.0  0.8181299999999998  0.14374999999999996  0.95125  1.0000
  H   H114      1.0  0.8425999999999998  0.0464  0.9151999999999999  1.0000
  H   H115      1.0  0.09084000000000002  0.00296  0.82029  1.0000
  H   H116      1.0  0.21107  0.07523  0.78315  1.0000
  H   H117      1.0  0.12197999999999994  0.22231999999999996  0.7458199999999998  1.0000
  H   H118      1.0  0.22664999999999993  0.20891999999999994  0.6989999999999998  1.0000
  H   H119      1.0  0.55807  0.15075999999999998  0.74832  1.0000
  H   H120      1.0  0.45272999999999997  0.16173  0.7948199999999999  1.0000
  H   H121      1.0  0.61139  0.16051999999999997  0.6747999999999998  1.0000
  H   H122      1.0  0.059579999999999946  0.48456999999999995  0.8743399999999999  1.0000
  H   H123      1.0  0.1420699999999999  0.59062  0.8783199999999998  1.0000
  H   H124      1.0  0.50821  0.522  0.8673699999999999  1.0000
  H   H125      1.0  0.4268199999999999  0.4143099999999999  0.8657299999999999  1.0000
  H   H126      1.0  0.019499999999999997  0.17797999999999994  0.98355  1.0000
  H   H127      1.0  0.94992  0.19452  0.034179999999999995  1.0000
  H   H128      1.0  0.74107  0.35268  0.0035899999999999994  1.0000
  H   H129      1.0  0.80982  0.33682999999999996  0.95336  1.0000
  H   H130      1.0  0.7126499999999999  0.33881999999999995  0.07594999999999999  1.0000
  H   H131      1.0  0.14010999999999998  0.97138  0.8852499999999999  1.0000
  H   H132      1.0  0.07443999999999994  0.86136  0.8833299999999997  1.0000
  H   H133      1.0  0.70788  0.91689  0.8528399999999999  1.0000
  H   H134      1.0  0.7768799999999999  0.02697  0.85294  1.0000
  H   H135      1.0  0.8878099999999999  0.73153  0.86478  1.0000
  H   H136      1.0  0.6214099999999999  0.44719999999999993  0.93245  1.0000
  H   H137      1.0  0.5011399999999998  0.37411999999999995  0.9689699999999999  1.0000
  H   H138      1.0  0.41502  0.13358  0.97647  1.0000
  H   H139      1.0  0.42992999999999987  0.036869999999999986  0.9392699999999998  1.0000
  H   H140      1.0  0.5464599999999998  0.01756  0.8273399999999999  1.0000
  H   H141      1.0  0.67192  0.08869  0.79149  1.0000
  H   H142      1.0  0.92524  0.30197  0.80592  1.0000
  H   H143      1.0  0.9064899999999998  0.39890999999999993  0.84223  1.0000
  H   H144      1.0  0.6789300000000001  0.4587299999999999  0.84279  1.0000
  H   H145      1.0  0.7414399999999998  0.5693  0.84062  1.0000
  H   H146      1.0  0.93688  0.55277  0.92528  1.0000
  H   H147      1.0  0.86956  0.44274999999999987  0.9282399999999997  1.0000
  H   H148      1.0  0.59129  0.23057999999999998  0.01027  1.0000
  H   H149      1.0  0.47336  0.25229  0.054369999999999995  1.0000
  H   H150      1.0  0.15737999999999988  0.30504  0.9981199999999998  1.0000
  H   H151      1.0  0.27567  0.28533  0.95403  1.0000
  H   H152      1.0  0.08908  0.3216899999999999  0.06979  1.0000
  H   H153      1.0  0.6380899999999998  0.97093  0.9127899999999998  1.0000
  H   H154      1.0  0.56855  0.8616099999999999  0.9083399999999999  1.0000
  H   H155      1.0  0.2615799999999999  0.91734  0.85001  1.0000
  H   H156      1.0  0.33198  0.027009999999999992  0.8538899999999999  1.0000
  H   H157      1.0  0.38879  0.73304  0.88834  1.0000
  H   H158      1.0  0.7158399999999999  0.27506  0.7732599999999997  1.0000
  H   H159      1.0  0.7837899999999998  0.25986  0.7223799999999998  1.0000
  H   H160      1.0  0.9701899999999999  0.09287999999999999  0.7496499999999998  1.0000
  H   H161      1.0  0.9071099999999999  0.10858999999999999  0.8006199999999999  1.0000
  H   H162      1.0  0.9945399999999999  0.12265999999999999  0.67376  1.0000
  H   H163      1.0  0.1886199999999999  0.81597  0.7223499999999999  1.0000
  H   H164      1.0  0.20803999999999997  0.9129999999999998  0.68585  1.0000
  H   H165      1.0  0.33767999999999987  0.9375099999999997  0.5751699999999998  1.0000
  H   H166      1.0  0.4604199999999999  0.86646  0.5385  1.0000
  H   H167      1.0  0.6821899999999999  0.64428  0.54869  1.0000
  H   H168      1.0  0.65672  0.54736  0.58475  1.0000
  H   H169      1.0  0.40931  0.5042  0.67946  1.0000
  H   H170      1.0  0.28950999999999993  0.57612  0.71684  1.0000
  H   H171      1.0  0.3790299999999999  0.7227599999999998  0.75391  1.0000
  H   H172      1.0  0.27627999999999997  0.70921  0.8009799999999998  1.0000
  H   H173      1.0  0.9430899999999999  0.65121  0.7524099999999999  1.0000
  H   H174      1.0  0.04616999999999997  0.66239  0.7055599999999997  1.0000
  H   H175      1.0  0.8914499999999999  0.6606299999999999  0.82542  1.0000
  H   H176      1.0  0.43909  0.98534  0.62539  1.0000
  H   H177      1.0  0.35736999999999997  0.09218  0.62251  1.0000
  H   H178      1.0  0.99166  0.0237  0.63338  1.0000
  H   H179      1.0  0.07168999999999999  0.9159099999999998  0.63398  1.0000
  H   H180      1.0  0.48052  0.67816  0.51628  1.0000
  H   H181      1.0  0.5487799999999999  0.6942699999999999  0.4655699999999999  1.0000
  H   H182      1.0  0.75943  0.8524999999999999  0.49573  1.0000
  H   H183      1.0  0.69131  0.83731  0.54602  1.0000
  H   H184      1.0  0.7843299999999999  0.8350899999999999  0.42193  1.0000
  H   H185      1.0  0.35992999999999997  0.47130999999999995  0.6144499999999999  1.0000
  H   H186      1.0  0.42871999999999993  0.3623  0.6166599999999999  1.0000
  H   H187      1.0  0.79344  0.42161  0.64768  1.0000
  H   H188      1.0  0.7206099999999999  0.53114  0.6466899999999999  1.0000
  H   H189      1.0  0.6277999999999999  0.23342999999999997  0.63581  1.0000
  H   H190      1.0  0.8779599999999999  0.9468099999999999  0.56763  1.0000
  H   H191      1.0  0.9985499999999998  0.8741699999999999  0.531  1.0000
  H   H192      1.0  0.08512999999999994  0.6328799999999999  0.5235399999999999  1.0000
  H   H193      1.0  0.06959999999999998  0.53661  0.56084  1.0000
  H   H194      1.0  0.9524799999999999  0.5176  0.67263  1.0000
  H   H195      1.0  0.82763  0.5885199999999999  0.70882  1.0000
  H   H196      1.0  0.5749199999999999  0.8025799999999997  0.6943299999999999  1.0000
  H   H197      1.0  0.59255  0.8985199999999998  0.65756  1.0000
  H   H198      1.0  0.8224899999999999  0.9569399999999999  0.6575399999999999  1.0000
  H   H199      1.0  0.7634299999999999  0.06772  0.66035  1.0000
  H   H200      1.0  0.56602  0.05361  0.57572  1.0000
  H   H201      1.0  0.63034  0.9432899999999997  0.5721  1.0000
  H   H202      1.0  0.9040899999999997  0.7296799999999999  0.4896599999999999  1.0000
  H   H203      1.0  0.015419999999999984  0.75147  0.44453999999999994  1.0000
  H   H204      1.0  0.33738000000000007  0.80489  0.4987  1.0000
  H   H205      1.0  0.22608999999999996  0.78545  0.5435599999999999  1.0000
  H   H206      1.0  0.4037199999999999  0.82069  0.42868999999999996  1.0000
  H   H207      1.0  0.86277  0.47002  0.58725  1.0000
  H   H208      1.0  0.9344299999999999  0.36099999999999993  0.59167  1.0000
  H   H209      1.0  0.23967  0.4183  0.65008  1.0000
  H   H210      1.0  0.16793999999999995  0.5276  0.64626  1.0000
  H   H211      1.0  0.11402000000000001  0.23271999999999998  0.61289  1.0000
  H   H212      1.0  0.78419  0.77683  0.72789  1.0000
  H   H213      1.0  0.72078  0.76182  0.77908  1.0000
  H   H214      1.0  0.5312099999999997  0.5953  0.7522099999999998  1.0000
  H   H215      1.0  0.5923  0.61006  0.70124  1.0000
  H   H216      1.0  0.50696  0.62083  0.82657  1.0000
  C   C1        1.0  0.8271999999999999  0.84971  0.18459999999999996  1.0000
  C   C2        1.0  0.77859  0.7976799999999997  0.19819  1.0000
  C   C3        1.0  0.7775099999999999  0.73734  0.18676999999999996  1.0000
  C   C4        1.0  0.7270499999999999  0.6843499999999999  0.20104  1.0000
  C   C5        1.0  0.7363699999999999  0.6352  0.18244  1.0000
  C   C6        1.0  0.79134  0.65791  0.15648999999999996  1.0000
  C   C7        1.0  0.8107399999999999  0.62224  0.13134  1.0000
  C   C8        1.0  0.8680099999999998  0.6434  0.1064  1.0000
  C   C9        1.0  0.87634  0.60872  0.07947999999999998  1.0000
  C   C10       1.0  0.939  0.64479  0.06087999999999999  1.0000
  C   C11       1.0  0.96956  0.70191  0.07623  1.0000
  C   C12       1.0  0.03524  0.75165  0.06482  1.0000
  C   C13       1.0  0.05626  0.8090099999999999  0.079  1.0000
  C   C14       1.0  0.12883  0.8588499999999998  0.06798  1.0000
  C   C15       1.0  0.11707  0.9081399999999997  0.08637999999999998  1.0000
  C   C16       1.0  0.03935  0.88867  0.10914  1.0000
  C   C17       1.0  0.9981  0.92749  0.13124  1.0000
  C   C18       1.0  0.9255399999999999  0.9087399999999998  0.15408999999999998  1.0000
  C   C19       1.0  0.8886899999999999  0.9481799999999999  0.17764  1.0000
  C   C20       1.0  0.82778  0.91164  0.19646  1.0000
  C   C21       1.0  0.71937  0.80697  0.22658  1.0000
  C   C22       1.0  0.78294  0.7937399999999999  0.25372999999999996  1.0000
  C   C23       1.0  0.7248199999999999  0.8011  0.27987  1.0000
  C   C24       1.0  0.60149  0.8210099999999998  0.27932999999999997  1.0000
  C   C25       1.0  0.53773  0.8343599999999999  0.25223  1.0000
  C   C26       1.0  0.5967700000000001  0.82782  0.22615  1.0000
  C   C27       1.0  0.54247  0.8260399999999998  0.30771  1.0000
  C   C28       1.0  0.7626699999999997  0.55794  0.13040999999999997  1.0000
  C   C29       1.0  0.8419299999999998  0.5075399999999999  0.12687  1.0000
  C   C30       1.0  0.79542  0.44760999999999995  0.1248  1.0000
  C   C31       1.0  0.66926  0.43681999999999993  0.12716999999999998  1.0000
  C   C32       1.0  0.5899  0.48680999999999996  0.13126  1.0000
  C   C33       1.0  0.63575  0.54682  0.13236  1.0000
  C   C34       1.0  0.6156099999999999  0.37373  0.12535  1.0000
  C   C35       1.0  0.08073999999999999  0.74366  0.03506  1.0000
  C   C36       1.0  0.04297999999999999  0.7843899999999999  0.01211  1.0000
  C   C37       1.0  0.08106  0.7753799999999998  0.9839  1.0000
  C   C38       1.0  0.15844999999999998  0.72565  0.9781099999999999  1.0000
  C   C39       1.0  0.19729999999999998  0.68516  0.0008599999999999998  1.0000
  C   C40       1.0  0.15876  0.69419  0.028999999999999995  1.0000
  C   C41       1.0  0.19644999999999993  0.71637  0.9478699999999998  1.0000
  C   C42       1.0  0.03726  0.99355  0.13094  1.0000
  C   C43       1.0  0.9541099999999999  0.04060999999999999  0.12216  1.0000
  C   C44       1.0  0.9913599999999998  0.10233999999999999  0.1229  1.0000
  C   C45       1.0  0.1139  0.11745999999999998  0.13178  1.0000
  C   C46       1.0  0.19762999999999997  0.07051  0.14024  1.0000
  C   C47       1.0  0.15915  0.00929  0.13998  1.0000
  C   C48       1.0  0.16050999999999999  0.1819  0.13252  1.0000
  C   C49       1.0  0.22514999999999993  0.6624999999999999  0.13517  1.0000
  C   C50       1.0  0.26688999999999996  0.6231399999999999  0.11319999999999997  1.0000
  C   C51       1.0  0.34167999999999993  0.6422  0.09074  1.0000
  C   C52       1.0  0.39008  0.60242  0.06870999999999998  1.0000
  C   C53       1.0  0.4520099999999999  0.63935  0.050269999999999995  1.0000
  C   C54       1.0  0.44294  0.7019199999999999  0.06097999999999999  1.0000
  C   C55       1.0  0.491  0.75425  0.04751  1.0000
  C   C56       1.0  0.48888999999999994  0.8151199999999998  0.058239999999999986  1.0000
  C   C57       1.0  0.54376  0.86762  0.04449  1.0000
  C   C58       1.0  0.53572  0.9166199999999999  0.06324  1.0000
  C   C59       1.0  0.47650999999999993  0.89441  0.08868  1.0000
  C   C60       1.0  0.46582  0.92821  0.11476  1.0000
  C   C61       1.0  0.41733  0.9045299999999998  0.14034  1.0000
  C   C62       1.0  0.41379999999999995  0.9373199999999999  0.16793  1.0000
  C   C63       1.0  0.34908  0.9012399999999998  0.18612  1.0000
  C   C64       1.0  0.3113799999999999  0.8464099999999999  0.16969  1.0000
  C   C65       1.0  0.2375399999999999  0.7986199999999999  0.17999  1.0000
  C   C66       1.0  0.21042999999999995  0.74242  0.16525999999999996  1.0000
  C   C67       1.0  0.13086999999999996  0.6944099999999997  0.17537999999999998  1.0000
  C   C68       1.0  0.14076  0.645  0.15690999999999997  1.0000
  C   C69       1.0  0.23055999999999996  0.55685  0.11424  1.0000
  C   C70       1.0  0.26521  0.52057  0.13905  1.0000
  C   C71       1.0  0.22988999999999996  0.45881  0.14038  1.0000
  C   C72       1.0  0.15632  0.4322699999999999  0.11718999999999997  1.0000
  C   C73       1.0  0.12165  0.46805  0.09235999999999997  1.0000
  C   C74       1.0  0.15957999999999997  0.52934  0.09077  1.0000
  C   C75       1.0  0.11229  0.36721  0.11914  1.0000
  C   C76       1.0  0.55906  0.74331  0.02062  1.0000
  C   C77       1.0  0.50366  0.75322  0.9922999999999998  1.0000
  C   C78       1.0  0.56928  0.74128  0.9676899999999998  1.0000
  C   C79       1.0  0.69154  0.7200099999999998  0.97111  1.0000
  C   C80       1.0  0.7477099999999999  0.71099  0.9994099999999999  1.0000
  C   C81       1.0  0.6815199999999999  0.7222899999999998  0.02398  1.0000
  C   C82       1.0  0.7566599999999999  0.70573  0.9443699999999998  1.0000
  C   C83       1.0  0.5106099999999999  0.9934499999999998  0.11614  1.0000
  C   C84       1.0  0.44545999999999997  0.040589999999999994  0.10062999999999998  1.0000
  C   C85       1.0  0.48411  0.10199999999999998  0.10313  1.0000
  C   C86       1.0  0.5906999999999999  0.11713999999999998  0.12082999999999998  1.0000
  C   C87       1.0  0.65597  0.07023  0.13638  1.0000
  C   C88       1.0  0.6165999999999999  0.00914  0.13407  1.0000
  C   C89       1.0  0.64119  0.18083999999999997  0.1229  1.0000
  C   C90       1.0  0.19246999999999995  0.80706  0.20969  1.0000
  C   C91       1.0  0.22655999999999996  0.76405  0.23186  1.0000
  C   C92       1.0  0.19006999999999996  0.7725399999999999  0.26014999999999994  1.0000
  C   C93       1.0  0.11924999999999998  0.8242099999999999  0.26693999999999996  1.0000
  C   C94       1.0  0.08568  0.8675299999999999  0.24507  1.0000
  C   C95       1.0  0.12122999999999998  0.8586099999999999  0.21657  1.0000
  C   C96       1.0  0.07981  0.82797  0.29733  1.0000
  C   C97       1.0  0.67404  0.34874  0.31546  1.0000
  C   C98       1.0  0.72284  0.29672999999999994  0.30190999999999996  1.0000
  C   C99       1.0  0.7244599999999999  0.23651999999999998  0.31343999999999994  1.0000
  C   C100      1.0  0.77411  0.18342  0.29909  1.0000
  C   C101      1.0  0.76485  0.13435  0.31767  1.0000
  C   C102      1.0  0.7106999999999998  0.15714  0.34374999999999994  1.0000
  C   C103      1.0  0.6909599999999999  0.12145  0.36887  1.0000
  C   C104      1.0  0.63314  0.14276  0.39377  1.0000
  C   C105      1.0  0.62439  0.10810999999999998  0.42065  1.0000
  C   C106      1.0  0.56151  0.14418999999999998  0.43925  1.0000
  C   C107      1.0  0.5309899999999997  0.20124  0.4239499999999999  1.0000
  C   C108      1.0  0.4650099999999999  0.25084  0.43548999999999993  1.0000
  C   C109      1.0  0.44449999999999995  0.30815  0.42130999999999996  1.0000
  C   C110      1.0  0.37158  0.35808999999999996  0.4321899999999999  1.0000
  C   C111      1.0  0.38405999999999996  0.40723999999999994  0.4137899999999999  1.0000
  C   C112      1.0  0.4627099999999999  0.3875799999999999  0.39123  1.0000
  C   C113      1.0  0.50452  0.4261699999999999  0.36917999999999995  1.0000
  C   C114      1.0  0.5762399999999999  0.40756999999999993  0.34617  1.0000
  C   C115      1.0  0.61176  0.44703  0.32256  1.0000
  C   C116      1.0  0.67243  0.41062  0.30361  1.0000
  C   C117      1.0  0.7809899999999997  0.3061  0.2734  1.0000
  C   C118      1.0  0.71617  0.29306  0.24636999999999995  1.0000
  C   C119      1.0  0.7730799999999999  0.30055  0.22008999999999998  1.0000
  C   C120      1.0  0.89629  0.32043999999999995  0.2204  1.0000
  C   C121      1.0  0.9612699999999997  0.33374  0.24735999999999994  1.0000
  C   C122      1.0  0.90349  0.32705  0.27358  1.0000
  C   C123      1.0  0.9547399999999998  0.32582  0.19199  1.0000
  C   C124      1.0  0.7385099999999998  0.05693999999999999  0.36963999999999997  1.0000
  C   C125      1.0  0.6590599999999999  0.006509999999999999  0.37303999999999987  1.0000
  C   C126      1.0  0.7046899999999999  0.9463699999999999  0.3745299999999999  1.0000
  C   C127      1.0  0.8305299999999999  0.9352499999999999  0.3717499999999999  1.0000
  C   C128      1.0  0.9103799999999999  0.9851999999999999  0.36813  1.0000
  C   C129      1.0  0.86519  0.04537999999999999  0.36755999999999994  1.0000
  C   C130      1.0  0.88119  0.87133  0.37295  1.0000
  C   C131      1.0  0.4192399999999999  0.24309999999999996  0.46528999999999987  1.0000
  C   C132      1.0  0.45735  0.28409  0.48818  1.0000
  C   C133      1.0  0.41972999999999994  0.27535  0.51645  1.0000
  C   C134      1.0  0.342  0.22583999999999996  0.52249  1.0000
  C   C135      1.0  0.3024799999999999  0.18522999999999998  0.4997699999999999  1.0000
  C   C136      1.0  0.34088  0.19384999999999997  0.4715499999999999  1.0000
  C   C137      1.0  0.30642  0.21724999999999994  0.55308  1.0000
  C   C138      1.0  0.46413999999999994  0.4918799999999999  0.36933  1.0000
  C   C139      1.0  0.5455999999999999  0.5397199999999999  0.37805  1.0000
  C   C140      1.0  0.5062899999999998  0.6010499999999999  0.3770399999999999  1.0000
  C   C141      1.0  0.38358999999999993  0.61457  0.36771  1.0000
  C   C142      1.0  0.30125999999999986  0.5667  0.3594499999999999  1.0000
  C   C143      1.0  0.34174  0.506  0.36016  1.0000
  C   C144      1.0  0.3327399999999999  0.6776499999999999  0.3658  1.0000
  C   C145      1.0  0.27437999999999996  0.16299  0.36460999999999993  1.0000
  C   C146      1.0  0.23274999999999996  0.12388  0.38669  1.0000
  C   C147      1.0  0.15768  0.14271999999999999  0.40917  1.0000
  C   C148      1.0  0.10999999999999993  0.10276999999999999  0.43120999999999987  1.0000
  C   C149      1.0  0.04785000000000002  0.13951  0.44973  1.0000
  C   C150      1.0  0.055929999999999966  0.20213999999999993  0.43912999999999996  1.0000
  C   C151      1.0  0.00781999999999998  0.2544199999999999  0.4527899999999999  1.0000
  C   C152      1.0  0.00963999999999999  0.31509  0.44172  1.0000
  C   C153      1.0  0.95563  0.36796  0.4554199999999999  1.0000
  C   C154      1.0  0.96397  0.41672999999999993  0.4365999999999999  1.0000
  C   C155      1.0  0.02269999999999999  0.39416999999999996  0.4111099999999999  1.0000
  C   C156      1.0  0.034560000000000014  0.42802  0.38507  1.0000
  C   C157      1.0  0.08338  0.40429  0.35942  1.0000
  C   C158      1.0  0.08699  0.43719  0.3319  1.0000
  C   C159      1.0  0.15118999999999996  0.40114999999999995  0.31351999999999997  1.0000
  C   C160      1.0  0.18863  0.34607999999999994  0.32969  1.0000
  C   C161      1.0  0.2616899999999999  0.29805999999999994  0.31905  1.0000
  C   C162      1.0  0.28847  0.24215  0.33407  1.0000
  C   C163      1.0  0.36854  0.19405999999999995  0.32426999999999995  1.0000
  C   C164      1.0  0.35936  0.14517999999999998  0.34301  1.0000
  C   C165      1.0  0.26887  0.057539999999999994  0.38548  1.0000
  C   C166      1.0  0.2332399999999999  0.021879999999999993  0.36046999999999996  1.0000
  C   C167      1.0  0.26653999999999994  0.9599099999999998  0.3587499999999999  1.0000
  C   C168      1.0  0.33916999999999997  0.93241  0.38176  1.0000
  C   C169      1.0  0.37597  0.96774  0.40672  1.0000
  C   C170      1.0  0.33974999999999994  0.02926  0.40871999999999997  1.0000
  C   C171      1.0  0.3801399999999999  0.8670099999999997  0.3798099999999999  1.0000
  C   C172      1.0  0.9427099999999999  0.24377  0.48032  1.0000
  C   C173      1.0  0.0010799999999999694  0.25386  0.5083899999999999  1.0000
  C   C174      1.0  0.9391599999999998  0.24184  0.53365  1.0000
  C   C175      1.0  0.81698  0.22022999999999998  0.53121  1.0000
  C   C176      1.0  0.7576899999999998  0.21113  0.5031799999999998  1.0000
  C   C177      1.0  0.82021  0.22242999999999996  0.4780399999999999  1.0000
  C   C178      1.0  0.7524099999999996  0.20664  0.5582499999999999  1.0000
  C   C179      1.0  0.9893899999999999  0.4933599999999999  0.38372  1.0000
  C   C180      1.0  0.05362  0.5409499999999999  0.39925999999999995  1.0000
  C   C181      1.0  0.013899999999999996  0.60223  0.3968  1.0000
  C   C182      1.0  0.90715  0.61696  0.37913  1.0000
  C   C183      1.0  0.8428899999999998  0.56966  0.36355999999999994  1.0000
  C   C184      1.0  0.8831699999999999  0.50869  0.3658199999999999  1.0000
  C   C185      1.0  0.8560499999999999  0.68076  0.37705  1.0000
  C   C186      1.0  0.3063  0.3057099999999999  0.28908  1.0000
  C   C187      1.0  0.2725099999999999  0.26245999999999997  0.26685999999999993  1.0000
  C   C188      1.0  0.3070399999999999  0.27072  0.23829999999999996  1.0000
  C   C189      1.0  0.37698  0.32236999999999993  0.23112999999999995  1.0000
  C   C190      1.0  0.41274  0.36526  0.25317  1.0000
  C   C191      1.0  0.3780699999999999  0.3568299999999999  0.2817799999999999  1.0000
  C   C192      1.0  0.41046  0.32871999999999996  0.2002  1.0000
  C   C193      1.0  0.17282  0.15028  0.8154  1.0000
  C   C194      1.0  0.22142000000000003  0.20231  0.80181  1.0000
  C   C195      1.0  0.2225  0.26264999999999994  0.81323  1.0000
  C   C196      1.0  0.27296  0.31564  0.79896  1.0000
  C   C197      1.0  0.26363999999999993  0.36478999999999995  0.8175599999999998  1.0000
  C   C198      1.0  0.20867  0.34209  0.84351  1.0000
  C   C199      1.0  0.18926999999999994  0.3777499999999999  0.8686599999999999  1.0000
  C   C200      1.0  0.132  0.35658999999999996  0.8936  1.0000
  C   C201      1.0  0.12367000000000002  0.39127  0.92052  1.0000
  C   C202      1.0  0.06100999999999996  0.3551999999999999  0.9391199999999998  1.0000
  C   C203      1.0  0.03045  0.29808  0.92376  1.0000
  C   C204      1.0  0.9647699999999999  0.24833999999999995  0.9351799999999999  1.0000
  C   C205      1.0  0.9437599999999998  0.19098  0.92099  1.0000
  C   C206      1.0  0.87118  0.14114  0.93202  1.0000
  C   C207      1.0  0.88295  0.09184999999999999  0.9136099999999998  1.0000
  C   C208      1.0  0.9606599999999997  0.11131999999999997  0.8908499999999998  1.0000
  C   C209      1.0  0.0019199999999999556  0.07249999999999998  0.8687599999999999  1.0000
  C   C210      1.0  0.07446999999999993  0.09124999999999998  0.8459099999999998  1.0000
  C   C211      1.0  0.11131999999999989  0.051809999999999995  0.8223599999999998  1.0000
  C   C212      1.0  0.17223999999999992  0.08834999999999997  0.8035399999999998  1.0000
  C   C213      1.0  0.28064  0.19302  0.77342  1.0000
  C   C214      1.0  0.21706999999999996  0.20624999999999993  0.7462699999999999  1.0000
  C   C215      1.0  0.27519999999999994  0.19889  0.7201299999999999  1.0000
  C   C216      1.0  0.39853  0.17898  0.72067  1.0000
  C   C217      1.0  0.4622799999999999  0.16563999999999998  0.7477699999999999  1.0000
  C   C218      1.0  0.40323999999999993  0.17216999999999996  0.77385  1.0000
  C   C219      1.0  0.45753999999999995  0.17394999999999994  0.69229  1.0000
  C   C220      1.0  0.23733999999999988  0.44204999999999994  0.8695899999999999  1.0000
  C   C221      1.0  0.15807999999999997  0.49245  0.87313  1.0000
  C   C222      1.0  0.20458999999999997  0.55238  0.8752  1.0000
  C   C223      1.0  0.33074999999999993  0.56317  0.8728299999999999  1.0000
  C   C224      1.0  0.4101099999999999  0.51318  0.86874  1.0000
  C   C225      1.0  0.36425999999999986  0.4531799999999999  0.8676399999999997  1.0000
  C   C226      1.0  0.38439  0.62626  0.87465  1.0000
  C   C227      1.0  0.9192699999999998  0.25632999999999995  0.96494  1.0000
  C   C228      1.0  0.9570299999999999  0.2156  0.9878899999999998  1.0000
  C   C229      1.0  0.91896  0.22460999999999998  0.0161  1.0000
  C   C230      1.0  0.84156  0.27434  0.02189  1.0000
  C   C231      1.0  0.80272  0.31482999999999994  0.99913  1.0000
  C   C232      1.0  0.8412499999999999  0.30579999999999996  0.971  1.0000
  C   C233      1.0  0.80356  0.28362  0.05211999999999999  1.0000
  C   C234      1.0  0.9627499999999998  0.006449999999999999  0.86906  1.0000
  C   C235      1.0  0.04589999999999997  0.9593799999999998  0.8778399999999998  1.0000
  C   C236      1.0  0.008659999999999978  0.89765  0.87709  1.0000
  C   C237      1.0  0.88611  0.8825299999999998  0.8682199999999998  1.0000
  C   C238      1.0  0.8023799999999999  0.9294799999999998  0.85975  1.0000
  C   C239      1.0  0.8408599999999998  0.9906999999999999  0.86001  1.0000
  C   C240      1.0  0.83951  0.81809  0.8674799999999999  1.0000
  C   C241      1.0  0.77487  0.33749  0.8648299999999999  1.0000
  C   C242      1.0  0.73312  0.37685  0.8868  1.0000
  C   C243      1.0  0.6583400000000001  0.35778999999999994  0.90926  1.0000
  C   C244      1.0  0.60993  0.39757  0.93129  1.0000
  C   C245      1.0  0.54801  0.36064  0.9497299999999997  1.0000
  C   C246      1.0  0.5570799999999999  0.29807  0.9390199999999999  1.0000
  C   C247      1.0  0.50902  0.24574  0.9524899999999998  1.0000
  C   C248      1.0  0.5111199999999999  0.18486999999999995  0.94175  1.0000
  C   C249      1.0  0.45625  0.13236999999999996  0.9555099999999999  1.0000
  C   C250      1.0  0.46428999999999987  0.08336999999999999  0.93675  1.0000
  C   C251      1.0  0.52351  0.10557999999999998  0.91132  1.0000
  C   C252      1.0  0.5341899999999999  0.07177999999999998  0.8852399999999999  1.0000
  C   C253      1.0  0.58269  0.09546  0.85965  1.0000
  C   C254      1.0  0.5862099999999998  0.06267  0.8320699999999999  1.0000
  C   C255      1.0  0.6509399999999999  0.09875  0.8138699999999998  1.0000
  C   C256      1.0  0.6886299999999997  0.15358  0.83031  1.0000
  C   C257      1.0  0.76247  0.20136999999999997  0.8200099999999998  1.0000
  C   C258      1.0  0.7895799999999997  0.25757  0.8347399999999999  1.0000
  C   C259      1.0  0.86914  0.30557999999999996  0.8246199999999999  1.0000
  C   C260      1.0  0.8592599999999999  0.35498999999999997  0.8430899999999999  1.0000
  C   C261      1.0  0.7694599999999998  0.4431399999999999  0.8857599999999998  1.0000
  C   C262      1.0  0.7348099999999999  0.47942  0.86095  1.0000
  C   C263      1.0  0.77014  0.54118  0.85962  1.0000
  C   C264      1.0  0.8436899999999997  0.56772  0.8828099999999999  1.0000
  C   C265      1.0  0.8783599999999998  0.53194  0.9076399999999999  1.0000
  C   C266      1.0  0.84043  0.47065  0.90923  1.0000
  C   C267      1.0  0.88774  0.63278  0.8808599999999999  1.0000
  C   C268      1.0  0.44095  0.25668  0.97937  1.0000
  C   C269      1.0  0.4963499999999999  0.24677  0.007689999999999998  1.0000
  C   C270      1.0  0.43071999999999994  0.25871  0.032299999999999995  1.0000
  C   C271      1.0  0.30846  0.27998  0.028879999999999996  1.0000
  C   C272      1.0  0.2523  0.289  0.00059  1.0000
  C   C273      1.0  0.31849  0.27769999999999995  0.97601  1.0000
  C   C274      1.0  0.24335  0.29425999999999997  0.05563  1.0000
  C   C275      1.0  0.4894  0.006539999999999999  0.8838599999999999  1.0000
  C   C276      1.0  0.5545499999999999  0.9594  0.89937  1.0000
  C   C277      1.0  0.51589  0.8979899999999997  0.8968699999999998  1.0000
  C   C278      1.0  0.4093  0.88285  0.87917  1.0000
  C   C279      1.0  0.34404  0.92976  0.8636199999999999  1.0000
  C   C280      1.0  0.38342  0.99086  0.86593  1.0000
  C   C281      1.0  0.3588299999999999  0.81915  0.8771  1.0000
  C   C282      1.0  0.80755  0.19292999999999996  0.7903099999999997  1.0000
  C   C283      1.0  0.77345  0.23593999999999996  0.76814  1.0000
  C   C284      1.0  0.80994  0.22744999999999996  0.73985  1.0000
  C   C285      1.0  0.8807599999999999  0.17578  0.7330499999999999  1.0000
  C   C286      1.0  0.9143299999999999  0.13246  0.75493  1.0000
  C   C287      1.0  0.8787799999999998  0.14138  0.7834299999999998  1.0000
  C   C288      1.0  0.9202  0.17201999999999998  0.7026599999999998  1.0000
  C   C289      1.0  0.32597  0.6512499999999999  0.68454  1.0000
  C   C290      1.0  0.27717  0.70326  0.69809  1.0000
  C   C291      1.0  0.27554999999999996  0.76347  0.68656  1.0000
  C   C292      1.0  0.22589999999999996  0.81657  0.70091  1.0000
  C   C293      1.0  0.23515999999999995  0.86564  0.6823199999999999  1.0000
  C   C294      1.0  0.28931999999999997  0.8428499999999998  0.6562499999999999  1.0000
  C   C295      1.0  0.30905  0.8785399999999999  0.6311299999999999  1.0000
  C   C296      1.0  0.36687  0.85723  0.6062199999999999  1.0000
  C   C297      1.0  0.37561999999999995  0.8918799999999998  0.57935  1.0000
  C   C298      1.0  0.43850999999999996  0.8558  0.56075  1.0000
  C   C299      1.0  0.46903  0.7987499999999998  0.5760499999999998  1.0000
  C   C300      1.0  0.535  0.74915  0.56451  1.0000
  C   C301      1.0  0.55552  0.6918399999999999  0.57868  1.0000
  C   C302      1.0  0.6284299999999999  0.6419  0.56781  1.0000
  C   C303      1.0  0.61595  0.59275  0.5862  1.0000
  C   C304      1.0  0.5373099999999998  0.61241  0.60877  1.0000
  C   C305      1.0  0.49549999999999994  0.57382  0.6308199999999999  1.0000
  C   C306      1.0  0.42377  0.5924199999999998  0.65382  1.0000
  C   C307      1.0  0.38825  0.5529599999999999  0.6774399999999999  1.0000
  C   C308      1.0  0.32758999999999994  0.58937  0.6963899999999998  1.0000
  C   C309      1.0  0.21902999999999997  0.6938899999999999  0.72659  1.0000
  C   C310      1.0  0.28383999999999987  0.7069299999999997  0.7536199999999997  1.0000
  C   C311      1.0  0.22692999999999997  0.69944  0.77991  1.0000
  C   C312      1.0  0.10372  0.6795499999999998  0.7795999999999998  1.0000
  C   C313      1.0  0.038749999999999986  0.66625  0.75264  1.0000
  C   C314      1.0  0.09652999999999998  0.6729399999999999  0.7264199999999998  1.0000
  C   C315      1.0  0.04526999999999997  0.6741699999999998  0.80801  1.0000
  C   C316      1.0  0.26149999999999995  0.94305  0.6303599999999999  1.0000
  C   C317      1.0  0.34095999999999993  0.9934799999999999  0.6269599999999999  1.0000
  C   C318      1.0  0.29532  0.05362  0.62547  1.0000
  C   C319      1.0  0.16948  0.06474  0.62825  1.0000
  C   C320      1.0  0.08963999999999997  0.014789999999999998  0.6318699999999999  1.0000
  C   C321      1.0  0.13483  0.9546099999999997  0.63244  1.0000
  C   C322      1.0  0.11881999999999997  0.12866  0.6270499999999999  1.0000
  C   C323      1.0  0.58077  0.7568899999999998  0.53471  1.0000
  C   C324      1.0  0.54266  0.7158999999999999  0.51182  1.0000
  C   C325      1.0  0.58028  0.72464  0.4835499999999999  1.0000
  C   C326      1.0  0.6580199999999999  0.7741599999999997  0.47750999999999993  1.0000
  C   C327      1.0  0.6975399999999999  0.81476  0.5002299999999998  1.0000
  C   C328      1.0  0.6591299999999999  0.80613  0.52845  1.0000
  C   C329      1.0  0.6935999999999999  0.78274  0.44691999999999993  1.0000
  C   C330      1.0  0.53587  0.5081099999999998  0.6306699999999998  1.0000
  C   C331      1.0  0.45442  0.46027  0.6219499999999999  1.0000
  C   C332      1.0  0.49372  0.39894  0.62296  1.0000
  C   C333      1.0  0.61643  0.38542  0.63229  1.0000
  C   C334      1.0  0.69875  0.43328  0.64055  1.0000
  C   C335      1.0  0.65828  0.4939799999999999  0.6398399999999999  1.0000
  C   C336      1.0  0.66729  0.32234  0.6341999999999999  1.0000
  C   C337      1.0  0.72563  0.837  0.63539  1.0000
  C   C338      1.0  0.76727  0.8761099999999998  0.61331  1.0000
  C   C339      1.0  0.84234  0.85727  0.5908199999999999  1.0000
  C   C340      1.0  0.89002  0.8972199999999998  0.5687799999999998  1.0000
  C   C341      1.0  0.9521699999999997  0.86048  0.55027  1.0000
  C   C342      1.0  0.9440899999999999  0.79785  0.56087  1.0000
  C   C343      1.0  0.9921899999999999  0.7455699999999998  0.5472  1.0000
  C   C344      1.0  0.99037  0.6849  0.55828  1.0000
  C   C345      1.0  0.04437999999999997  0.6320299999999999  0.5445699999999999  1.0000
  C   C346      1.0  0.036050000000000006  0.58326  0.5634  1.0000
  C   C347      1.0  0.97731  0.6058199999999999  0.58889  1.0000
  C   C348      1.0  0.96545  0.5719699999999999  0.6149299999999999  1.0000
  C   C349      1.0  0.9166299999999998  0.5956999999999999  0.6405799999999999  1.0000
  C   C350      1.0  0.9130299999999999  0.5627999999999999  0.66809  1.0000
  C   C351      1.0  0.8488299999999999  0.59884  0.68648  1.0000
  C   C352      1.0  0.81138  0.6539099999999999  0.6702999999999999  1.0000
  C   C353      1.0  0.7383199999999999  0.70193  0.68095  1.0000
  C   C354      1.0  0.71154  0.7578399999999998  0.66592  1.0000
  C   C355      1.0  0.63147  0.80593  0.67573  1.0000
  C   C356      1.0  0.64066  0.8548199999999999  0.65699  1.0000
  C   C357      1.0  0.73115  0.94245  0.61452  1.0000
  C   C358      1.0  0.76677  0.97811  0.6395299999999999  1.0000
  C   C359      1.0  0.73347  0.04008  0.64125  1.0000
  C   C360      1.0  0.66084  0.06758  0.61824  1.0000
  C   C361      1.0  0.62404  0.03225  0.59328  1.0000
  C   C362      1.0  0.66026  0.97073  0.59127  1.0000
  C   C363      1.0  0.6198700000000001  0.13298  0.62019  1.0000
  C   C364      1.0  0.05730999999999998  0.75622  0.51968  1.0000
  C   C365      1.0  0.9989399999999999  0.74613  0.4916  1.0000
  C   C366      1.0  0.060870000000000014  0.75816  0.46635  1.0000
  C   C367      1.0  0.18303999999999995  0.77976  0.46879  1.0000
  C   C368      1.0  0.24232999999999993  0.7888599999999998  0.49682  1.0000
  C   C369      1.0  0.17979999999999996  0.77756  0.52196  1.0000
  C   C370      1.0  0.24766  0.79335  0.44175  1.0000
  C   C371      1.0  0.010619999999999996  0.50663  0.61628  1.0000
  C   C372      1.0  0.9463899999999998  0.45903999999999995  0.6007399999999999  1.0000
  C   C373      1.0  0.9861099999999998  0.39776  0.6031999999999998  1.0000
  C   C374      1.0  0.09285999999999998  0.38303  0.62087  1.0000
  C   C375      1.0  0.15711999999999998  0.4303299999999999  0.63644  1.0000
  C   C376      1.0  0.11685000000000001  0.49129999999999996  0.63418  1.0000
  C   C377      1.0  0.14397  0.31923  0.62295  1.0000
  C   C378      1.0  0.69372  0.6942799999999998  0.71092  1.0000
  C   C379      1.0  0.7275099999999999  0.73753  0.7331399999999999  1.0000
  C   C380      1.0  0.69298  0.72928  0.7616999999999999  1.0000
  C   C381      1.0  0.62303  0.6776199999999998  0.76887  1.0000
  C   C382      1.0  0.58728  0.63474  0.74683  1.0000
  C   C383      1.0  0.62195  0.6431599999999998  0.71821  1.0000
  C   C384      1.0  0.58954  0.67128  0.7997999999999998  1.0000
  N   N1        1.0  0.8181299999999998  0.7199099999999999  0.15989  1.0000
  N   N2        1.0  0.9231999999999996  0.70034  0.10367999999999997  1.0000
  N   N3        1.0  0.006110000000000003  0.8275899999999999  0.10463  1.0000
  N   N4        1.0  0.8856199999999999  0.8491899999999999  0.15861999999999998  1.0000
  N   N5        1.0  0.3774099999999999  0.70239  0.08586999999999999  1.0000
  N   N6        1.0  0.44560999999999995  0.8329099999999999  0.08473  1.0000
  N   N7        1.0  0.35721  0.8486199999999999  0.14225  1.0000
  N   N8        1.0  0.26269  0.72284  0.14006  1.0000
  N   N9        1.0  0.6845099999999997  0.21923  0.34040999999999993  1.0000
  N   N10       1.0  0.57773  0.19970999999999997  0.39651  1.0000
  N   N11       1.0  0.4956999999999999  0.32656999999999997  0.3957899999999999  1.0000
  N   N12       1.0  0.61641  0.34816999999999987  0.34155  1.0000
  N   N13       1.0  0.12110999999999997  0.20276999999999995  0.41411999999999993  1.0000
  N   N14       1.0  0.05269999999999999  0.33255  0.4151099999999999  1.0000
  N   N15       1.0  0.14318  0.34827999999999987  0.35727  1.0000
  N   N16       1.0  0.23619999999999997  0.22308  0.3594  1.0000
  N   N17       1.0  0.18188999999999994  0.28008  0.8401099999999998  1.0000
  N   N18       1.0  0.0768099999999999  0.29964999999999997  0.8963199999999998  1.0000
  N   N19       1.0  0.9939099999999997  0.17239999999999997  0.8953699999999998  1.0000
  N   N20       1.0  0.11438999999999991  0.15079999999999996  0.8413799999999998  1.0000
  N   N21       1.0  0.6226  0.2975999999999999  0.91413  1.0000
  N   N22       1.0  0.55441  0.16707999999999998  0.91527  1.0000
  N   N23       1.0  0.6428099999999999  0.15137  0.8577499999999998  1.0000
  N   N24       1.0  0.7373199999999998  0.27715  0.8599399999999999  1.0000
  N   N25       1.0  0.3154999999999999  0.7807599999999998  0.65959  1.0000
  N   N26       1.0  0.42228999999999994  0.80028  0.6034899999999999  1.0000
  N   N27       1.0  0.50432  0.67342  0.60421  1.0000
  N   N28       1.0  0.38360999999999995  0.6518199999999998  0.65845  1.0000
  N   N29       1.0  0.8788999999999999  0.79722  0.58588  1.0000
  N   N30       1.0  0.9473099999999999  0.66745  0.58489  1.0000
  N   N31       1.0  0.85683  0.65171  0.6427299999999999  1.0000
  N   N32       1.0  0.7638099999999999  0.77691  0.6405999999999998  1.0000
  O   O1        1.0  0.6002499999999998  0.8187799999999998  0.33175999999999994  1.0000
  O   O2        1.0  0.42098  0.83834  0.30498  1.0000
  O   O3        1.0  0.51943  0.36236999999999997  0.1384  1.0000
  O   O4        1.0  0.6678299999999999  0.33219  0.10969999999999998  1.0000
  O   O5        1.0  0.17044  0.75257  0.9273999999999999  1.0000
  O   O6        1.0  0.26198  0.66436  0.9449  1.0000
  O   O7        1.0  0.27223  0.19361  0.13341  1.0000
  O   O8        1.0  0.07242999999999998  0.22491999999999998  0.13249  1.0000
  O   O9        1.0  0.1573  0.33444  0.14093999999999998  1.0000
  O   O10       1.0  0.03243999999999999  0.34685  0.09975999999999997  1.0000
  O   O11       1.0  0.7043399999999997  0.70737  0.91945  1.0000
  O   O12       1.0  0.8752099999999997  0.69022  0.9494799999999998  1.0000
  O   O13       1.0  0.56509  0.22488999999999995  0.11126999999999997  1.0000
  O   O14       1.0  0.7454899999999999  0.1927  0.13394  1.0000
  O   O15       1.0  0.09335  0.7832399999999999  0.31404  1.0000
  O   O16       1.0  0.030179999999999974  0.88174  0.30510999999999994  1.0000
  O   O17       1.0  0.89659  0.31915  0.16793  1.0000
  O   O18       1.0  0.07608  0.33805999999999997  0.19483  1.0000
  O   O19       1.0  0.97796  0.8592299999999998  0.35995  1.0000
  O   O20       1.0  0.82462  0.8305499999999999  0.38784  1.0000
  O   O21       1.0  0.33951  0.25302  0.57328  1.0000
  O   O22       1.0  0.23613  0.16721  0.55672  1.0000
  O   O23       1.0  0.22050999999999996  0.68698  0.36249  1.0000
  O   O24       1.0  0.41545  0.7235799999999999  0.3673  1.0000
  O   O25       1.0  0.33161  0.8330799999999998  0.35844  1.0000
  O   O26       1.0  0.46154  0.8467599999999998  0.3985799999999999  1.0000
  O   O27       1.0  0.8016299999999998  0.20974  0.58344  1.0000
  O   O28       1.0  0.63388  0.19026999999999997  0.55234  1.0000
  O   O29       1.0  0.9322599999999998  0.7248699999999999  0.38818999999999987  1.0000
  O   O30       1.0  0.75067  0.69126  0.36611999999999995  1.0000
  O   O31       1.0  0.3832  0.28934999999999994  0.18131999999999995  1.0000
  O   O32       1.0  0.47236999999999996  0.38114  0.19469  1.0000
  O   O33       1.0  0.39977  0.18120999999999998  0.6682399999999998  1.0000
  O   O34       1.0  0.57903  0.16165  0.69502  1.0000
  O   O35       1.0  0.4805899999999999  0.63762  0.8615899999999999  1.0000
  O   O36       1.0  0.33219  0.66779  0.8903  1.0000
  O   O37       1.0  0.82958  0.24741999999999997  0.07259999999999998  1.0000
  O   O38       1.0  0.73802  0.33562999999999993  0.0551  1.0000
  O   O39       1.0  0.7277899999999999  0.8063799999999999  0.8665899999999997  1.0000
  O   O40       1.0  0.9275899999999999  0.7750699999999998  0.8675099999999998  1.0000
  O   O41       1.0  0.8426999999999999  0.66555  0.85906  1.0000
  O   O42       1.0  0.9675799999999998  0.6531399999999999  0.9002399999999998  1.0000
  O   O43       1.0  0.29566999999999993  0.29264  0.08055  1.0000
  O   O44       1.0  0.12481  0.30976999999999993  0.05052  1.0000
  O   O45       1.0  0.43493  0.7750999999999999  0.88872  1.0000
  O   O46       1.0  0.25452  0.80729  0.86605  1.0000
  O   O47       1.0  0.9066599999999998  0.21674999999999997  0.68596  1.0000
  O   O48       1.0  0.9698399999999998  0.11825  0.69489  1.0000
  O   O49       1.0  0.10341999999999996  0.6808399999999999  0.8320699999999999  1.0000
  O   O50       1.0  0.9239299999999999  0.6619299999999999  0.80517  1.0000
  O   O51       1.0  0.02205999999999997  0.14076999999999998  0.6400499999999999  1.0000
  O   O52       1.0  0.1753899999999999  0.16944  0.6121499999999999  1.0000
  O   O53       1.0  0.6605  0.74697  0.42671  1.0000
  O   O54       1.0  0.7638799999999998  0.83278  0.4432799999999999  1.0000
  O   O55       1.0  0.7795199999999999  0.31300999999999995  0.6375099999999999  1.0000
  O   O56       1.0  0.58458  0.27641  0.6327  1.0000
  O   O57       1.0  0.6683999999999999  0.16691  0.6415599999999999  1.0000
  O   O58       1.0  0.5384799999999998  0.15324  0.6014199999999998  1.0000
  O   O59       1.0  0.19849  0.79024  0.41655  1.0000
  O   O60       1.0  0.36618999999999996  0.8097299999999997  0.44766  1.0000
  O   O61       1.0  0.06774999999999999  0.27512  0.61181  1.0000
  O   O62       1.0  0.24933999999999995  0.30873  0.63388  1.0000
  O   O63       1.0  0.61677  0.7106599999999997  0.81868  1.0000
  O   O64       1.0  0.52765  0.6188499999999999  0.80531  1.0000
