data_image0
_chemical_formula_structural       Mn24H288C328N64O72
_chemical_formula_sum              "Mn24 H288 C328 N64 O72"
_cell_length_a       17.81811
_cell_length_b       29.983400000000003
_cell_length_c       29.993239999999997
_cell_angle_alpha    84.88726
_cell_angle_beta     72.74106
_cell_angle_gamma    72.75562

_symmetry_space_group_name_H-M    'P 1'
_symmetry_Int_Tables_number       1

loop_
  _symmetry_equiv_pos_as_xyz
  'x,y,z'

loop_
  _atom_site_type_symbol
  _atom_site_label
  _atom_site_symmetry_multiplicity
  _atom_site_fract_x
  _atom_site_fract_y
  _atom_site_fract_z
  _atom_site_occupancy
  Mn  Mn1       1.0  0.4406999999999999  0.14322000000000004  0.41587  1.0000
  Mn  Mn2       1.0  0.70464  0.03195  0.38479  1.0000
  Mn  Mn3       1.0  0.21804  0.07911000000000003  0.49777  1.0000
  Mn  Mn4       1.0  0.0006199999999999647  0.3562500000000001  0.08416999999999997  1.0000
  Mn  Mn5       1.0  0.12074999999999994  0.4684100000000001  0.1154  1.0000
  Mn  Mn6       1.0  0.7951699999999999  0.42079  0.00223  1.0000
  Mn  Mn7       1.0  0.08436000000000007  0.4158500000000001  0.3565799999999999  1.0000
  Mn  Mn8       1.0  0.23553999999999997  0.3847200000000001  0.46859999999999996  1.0000
  Mn  Mn9       1.0  0.7977599999999999  0.4977700000000001  0.42072  1.0000
  Mn  Mn10      1.0  0.8563600000000001  0.08412000000000003  0.14322  1.0000
  Mn  Mn11      1.0  0.08952999999999998  0.11527000000000003  0.032089999999999994  1.0000
  Mn  Mn12      1.0  0.7163  0.0016300000000000002  0.07915  1.0000
  Mn  Mn13      1.0  0.5593099999999998  0.8567900000000003  0.58413  1.0000
  Mn  Mn14      1.0  0.29537  0.9680500000000002  0.6152  1.0000
  Mn  Mn15      1.0  0.78197  0.9208900000000002  0.50223  1.0000
  Mn  Mn16      1.0  0.9993899999999999  0.64375  0.91583  1.0000
  Mn  Mn17      1.0  0.8792600000000003  0.53159  0.8845999999999998  1.0000
  Mn  Mn18      1.0  0.20484000000000005  0.57921  0.9977699999999998  1.0000
  Mn  Mn19      1.0  0.9156499999999999  0.58415  0.6434199999999998  1.0000
  Mn  Mn20      1.0  0.76447  0.6152800000000002  0.53139  1.0000
  Mn  Mn21      1.0  0.20225000000000007  0.50223  0.5792799999999999  1.0000
  Mn  Mn22      1.0  0.14365000000000003  0.91588  0.85678  1.0000
  Mn  Mn23      1.0  0.9104800000000003  0.88473  0.9679099999999998  1.0000
  Mn  Mn24      1.0  0.2837099999999998  0.9983800000000003  0.92085  1.0000
  H   H1        1.0  0.39629  0.20231000000000005  0.28438  1.0000
  H   H2        1.0  0.49  0.19152000000000005  0.20312999999999995  1.0000
  H   H3        1.0  0.6309  0.1351  0.18770999999999993  1.0000
  H   H4        1.0  0.67407  0.08978000000000003  0.2528  1.0000
  H   H5        1.0  0.62011  0.029750000000000006  0.4949699999999999  1.0000
  H   H6        1.0  0.5290599999999999  0.06937000000000003  0.53613  1.0000
  H   H7        1.0  0.39577000000000007  0.2534800000000001  0.4071599999999999  1.0000
  H   H8        1.0  0.44115000000000004  0.3204100000000001  0.4211199999999999  1.0000
  H   H9        1.0  0.6579299999999999  0.22041000000000005  0.44368  1.0000
  H   H10       1.0  0.60377  0.15754000000000007  0.42859999999999987  1.0000
  H   H11       1.0  0.53366  0.3475400000000001  0.45101  1.0000
  H   H12       1.0  0.6101299999999997  0.30636000000000013  0.4719199999999999  1.0000
  H   H13       1.0  0.8039600000000001  0.14916  0.38407999999999987  1.0000
  H   H14       1.0  0.8947999999999999  0.16104  0.42879  1.0000
  H   H15       1.0  0.94745  0.09810000000000002  0.48141  1.0000
  H   H16       1.0  0.907  0.02422  0.4892299999999999  1.0000
  H   H17       1.0  0.6237999999999999  0.9036300000000003  0.45775  1.0000
  H   H18       1.0  0.7200399999999999  0.8711400000000002  0.42464  1.0000
  H   H19       1.0  0.5762399999999999  0.9225000000000002  0.38401  1.0000
  H   H20       1.0  0.6071499999999999  0.8614800000000002  0.39531  1.0000
  H   H21       1.0  0.6724  0.88762  0.3511  1.0000
  H   H22       1.0  0.015640000000000095  0.19023000000000007  0.5794099999999998  1.0000
  H   H23       1.0  0.0030900000000000033  0.27457  0.5862  1.0000
  H   H24       1.0  0.11821000000000008  0.30699  0.54033  1.0000
  H   H25       1.0  0.24417  0.25387  0.49049  1.0000
  H   H26       1.0  0.47622000000000003  0.9983  0.4118099999999999  1.0000
  H   H27       1.0  0.47093000000000024  0.045150000000000017  0.3720199999999999  1.0000
  H   H28       1.0  0.36829  0.020270000000000003  0.3441699999999999  1.0000
  H   H29       1.0  0.46133  0.9749  0.33696  1.0000
  H   H30       1.0  0.3734600000000002  0.97287  0.38418  1.0000
  H   H31       1.0  0.69599  0.43436000000000013  0.4839  1.0000
  H   H32       1.0  0.6384599999999997  0.36904  0.48001  1.0000
  H   H33       1.0  0.73865  0.3714900000000001  0.3300099999999999  1.0000
  H   H34       1.0  0.7918699999999997  0.43668000000000007  0.3405  1.0000
  H   H35       1.0  0.70212  0.29264000000000007  0.38941  1.0000
  H   H36       1.0  0.62551  0.33244  0.36875  1.0000
  H   H37       1.0  0.88313  0.2971800000000001  0.21588999999999994  1.0000
  H   H38       1.0  0.88437  0.3084800000000001  0.2970799999999999  1.0000
  H   H39       1.0  0.95357  0.36504  0.31232999999999994  1.0000
  H   H40       1.0  0.01599999999999995  0.4104100000000001  0.24707999999999997  1.0000
  H   H41       1.0  0.14529999999999998  0.4702400000000001  0.004939999999999998  1.0000
  H   H42       1.0  0.13522999999999996  0.43031  0.964  1.0000
  H   H43       1.0  0.05687999999999998  0.24614000000000003  0.09316999999999999  1.0000
  H   H44       1.0  0.18294  0.17934  0.07907999999999997  1.0000
  H   H45       1.0  0.32227000000000006  0.27956  0.0564  1.0000
  H   H46       1.0  0.19022999999999998  0.34225  0.07166  1.0000
  H   H47       1.0  0.33255  0.15228  0.0489  1.0000
  H   H48       1.0  0.38871  0.1935  0.027999999999999994  1.0000
  H   H49       1.0  0.33677000000000007  0.35112  0.11608999999999997  1.0000
  H   H50       1.0  0.48405000000000015  0.33941000000000004  0.07121  1.0000
  H   H51       1.0  0.52609  0.4024  0.01844  1.0000
  H   H52       1.0  0.41939999999999994  0.4760800000000001  0.01059  1.0000
  H   H53       1.0  0.98399  0.59648  0.042259999999999985  1.0000
  H   H54       1.0  0.01497999999999999  0.62903  0.07520999999999997  1.0000
  H   H55       1.0  0.88163  0.57782  0.11605999999999997  1.0000
  H   H56       1.0  0.86323  0.63876  0.10468999999999999  1.0000
  H   H57       1.0  0.91039  0.61262  0.14888  1.0000
  H   H58       1.0  0.78517  0.30954  0.9207999999999997  1.0000
  H   H59       1.0  0.8641599999999998  0.22530000000000006  0.91373  1.0000
  H   H60       1.0  0.9657099999999998  0.19285000000000005  0.95965  1.0000
  H   H61       1.0  0.9886599999999999  0.246  0.009609999999999999  1.0000
  H   H62       1.0  0.88661  0.50174  0.08789  1.0000
  H   H63       1.0  0.88875  0.4548900000000001  0.12779  1.0000
  H   H64       1.0  0.7332600000000001  0.47952  0.15559  1.0000
  H   H65       1.0  0.7734700000000001  0.5249700000000002  0.16302999999999998  1.0000
  H   H66       1.0  0.7309199999999998  0.5270000000000001  0.11575  1.0000
  H   H67       1.0  0.61408  0.06496  0.01634  1.0000
  H   H68       1.0  0.48792  0.13056  0.020099999999999996  1.0000
  H   H69       1.0  0.44051  0.12827  0.17006  1.0000
  H   H70       1.0  0.56891  0.06292  0.15974999999999995  1.0000
  H   H71       1.0  0.3848599999999999  0.20713000000000006  0.11048  1.0000
  H   H72       1.0  0.32716999999999996  0.16738  0.13120999999999997  1.0000
  H   H73       1.0  0.09860999999999998  0.28428  0.29761  1.0000
  H   H74       1.0  0.18208000000000005  0.2032  0.3083699999999999  1.0000
  H   H75       1.0  0.2661700000000001  0.18780000000000005  0.36507999999999996  1.0000
  H   H76       1.0  0.26311999999999997  0.25293000000000004  0.41067  1.0000
  H   H77       1.0  0.14940999999999993  0.49506000000000006  0.4703799999999999  1.0000
  H   H78       1.0  0.09874000000000004  0.53617  0.43034  1.0000
  H   H79       1.0  0.14959000000000003  0.4069600000000001  0.24627999999999994  1.0000
  H   H80       1.0  0.2616  0.42111  0.17946  1.0000
  H   H81       1.0  0.37834  0.44374000000000013  0.27956  1.0000
  H   H82       1.0  0.26156999999999997  0.42842000000000013  0.34230999999999995  1.0000
  H   H83       1.0  0.3812199999999999  0.4511000000000001  0.15235999999999994  1.0000
  H   H84       1.0  0.41658999999999996  0.4719500000000001  0.19350999999999993  1.0000
  H   H85       1.0  0.45205999999999985  0.3839400000000001  0.35129  1.0000
  H   H86       1.0  0.5550399999999999  0.4285000000000001  0.33941  1.0000
  H   H87       1.0  0.5448199999999999  0.4812400000000001  0.40218  1.0000
  H   H88       1.0  0.43029000000000006  0.4893200000000001  0.47582  1.0000
  H   H89       1.0  0.02622999999999995  0.45782000000000006  0.59685  1.0000
  H   H90       1.0  0.09064999999999995  0.42459000000000013  0.62904  1.0000
  H   H91       1.0  0.9979699999999998  0.38393  0.57784  1.0000
  H   H92       1.0  0.9679700000000001  0.3951400000000001  0.6387799999999999  1.0000
  H   H93       1.0  0.059400000000000015  0.35110000000000013  0.61272  1.0000
  H   H94       1.0  0.7063799999999999  0.5792400000000002  0.30952  1.0000
  H   H95       1.0  0.7777300000000001  0.58618  0.22513999999999995  1.0000
  H   H96       1.0  0.9251200000000002  0.54039  0.19263999999999995  1.0000
  H   H97       1.0  0.99835  0.49047000000000013  0.24567999999999995  1.0000
  H   H98       1.0  0.9748699999999998  0.41179  0.50178  1.0000
  H   H99       1.0  0.016399999999999915  0.3720400000000001  0.45496  1.0000
  H   H100      1.0  0.88859  0.34437  0.4796899999999999  1.0000
  H   H101      1.0  0.9361299999999998  0.33686000000000005  0.52518  1.0000
  H   H102      1.0  0.8466  0.38424  0.52703  1.0000
  H   H103      1.0  0.6304499999999997  0.4839000000000001  0.0656  1.0000
  H   H104      1.0  0.50761  0.47993000000000013  0.13083  1.0000
  H   H105      1.0  0.6099499999999999  0.3299300000000001  0.12859  1.0000
  H   H106      1.0  0.7282899999999999  0.34044000000000013  0.06346  1.0000
  H   H107      1.0  0.49477  0.3893800000000001  0.20737  1.0000
  H   H108      1.0  0.45784  0.36876  0.16757  1.0000
  H   H109      1.0  0.6805699999999999  0.21551000000000006  0.20215  1.0000
  H   H110      1.0  0.69352  0.29676  0.19158999999999995  1.0000
  H   H111      1.0  0.81902  0.31226  0.13515  1.0000
  H   H112      1.0  0.92694  0.24724000000000004  0.0898  1.0000
  H   H113      1.0  0.11478  0.005210000000000002  0.029989999999999992  1.0000
  H   H114      1.0  0.06444999999999988  0.9638800000000002  0.06942  1.0000
  H   H115      1.0  0.80274  0.09274000000000003  0.25331  1.0000
  H   H116      1.0  0.8620800000000001  0.07900000000000003  0.32019999999999993  1.0000
  H   H117      1.0  0.10135  0.05635000000000001  0.22015  1.0000
  H   H118      1.0  0.03206999999999999  0.07129000000000003  0.15736  1.0000
  H   H119      1.0  0.9844  0.04901000000000001  0.34736  1.0000
  H   H120      1.0  0.08178000000000003  0.028130000000000006  0.3062699999999999  1.0000
  H   H121      1.0  0.18871999999999997  0.11582000000000003  0.14921  1.0000
  H   H122      1.0  0.32421  0.07090000000000003  0.16098999999999994  1.0000
  H   H123      1.0  0.42908999999999997  0.018290000000000004  0.09806  1.0000
  H   H124      1.0  0.39609  0.01052  0.02434  1.0000
  H   H125      1.0  0.08146000000000003  0.04222  0.90373  1.0000
  H   H126      1.0  0.14458999999999994  0.07554000000000002  0.87153  1.0000
  H   H127      1.0  0.9600900000000002  0.11599000000000001  0.9225299999999997  1.0000
  H   H128      1.0  0.0025399999999999546  0.10463000000000003  0.8616  1.0000
  H   H129      1.0  0.02355999999999999  0.14888000000000007  0.8876299999999999  1.0000
  H   H130      1.0  0.5968699999999998  0.9193900000000003  0.19034  1.0000
  H   H131      1.0  0.5888399999999999  0.9136700000000001  0.27496  1.0000
  H   H132      1.0  0.6571499999999999  0.96002  0.30746  1.0000
  H   H133      1.0  0.7333  0.009980000000000003  0.25439  1.0000
  H   H134      1.0  0.8874600000000001  0.08796  0.9984499999999997  1.0000
  H   H135      1.0  0.8427799999999999  0.12788  0.04513999999999999  1.0000
  H   H136      1.0  0.71216  0.15571  0.02023  1.0000
  H   H137      1.0  0.7979600000000001  0.16302  0.9748199999999998  1.0000
  H   H138      1.0  0.7573100000000001  0.11571  0.9729299999999997  1.0000
  H   H139      1.0  0.17951000000000003  0.015980000000000005  0.43436  1.0000
  H   H140      1.0  0.11821  0.01997  0.36902  1.0000
  H   H141      1.0  0.06847  0.17001  0.37142  1.0000
  H   H142      1.0  0.13203  0.15942000000000006  0.43664  1.0000
  H   H143      1.0  0.09149000000000003  0.11069000000000002  0.29253  1.0000
  H   H144      1.0  0.99421  0.1313  0.33224  1.0000
  H   H145      1.0  0.60372  0.79769  0.71561  1.0000
  H   H146      1.0  0.5100099999999997  0.8084800000000002  0.7968599999999998  1.0000
  H   H147      1.0  0.36911  0.8649000000000002  0.8122899999999997  1.0000
  H   H148      1.0  0.3259400000000001  0.9102200000000003  0.7471999999999998  1.0000
  H   H149      1.0  0.3799  0.9702500000000002  0.50502  1.0000
  H   H150      1.0  0.47094999999999976  0.9306300000000002  0.46386999999999995  1.0000
  H   H151      1.0  0.6042399999999999  0.7465200000000002  0.5928399999999998  1.0000
  H   H152      1.0  0.5588600000000001  0.67959  0.5788799999999997  1.0000
  H   H153      1.0  0.34207999999999994  0.7795900000000001  0.55632  1.0000
  H   H154      1.0  0.39624000000000004  0.84246  0.5714  1.0000
  H   H155      1.0  0.4663599999999999  0.6524600000000002  0.54899  1.0000
  H   H156      1.0  0.38989000000000007  0.69365  0.52808  1.0000
  H   H157      1.0  0.19605000000000003  0.85084  0.61592  1.0000
  H   H158      1.0  0.10521000000000003  0.83896  0.5712099999999999  1.0000
  H   H159      1.0  0.05255999999999994  0.9019000000000003  0.51859  1.0000
  H   H160      1.0  0.09300999999999997  0.97578  0.51077  1.0000
  H   H161      1.0  0.37621  0.09637000000000003  0.54225  1.0000
  H   H162      1.0  0.2799700000000001  0.12886  0.57536  1.0000
  H   H163      1.0  0.42378000000000016  0.0775  0.61599  1.0000
  H   H164      1.0  0.39285999999999993  0.13852  0.60469  1.0000
  H   H165      1.0  0.32761  0.11238  0.64889  1.0000
  H   H166      1.0  0.98437  0.8097700000000001  0.42059  1.0000
  H   H167      1.0  0.9969299999999999  0.7254300000000002  0.4138  1.0000
  H   H168      1.0  0.8817999999999999  0.69301  0.4596699999999999  1.0000
  H   H169      1.0  0.7558399999999998  0.74613  0.50951  1.0000
  H   H170      1.0  0.5237900000000001  0.0017000000000000006  0.5881899999999998  1.0000
  H   H171      1.0  0.5290900000000001  0.9548500000000001  0.6279799999999998  1.0000
  H   H172      1.0  0.6317199999999998  0.9797300000000002  0.6558299999999998  1.0000
  H   H173      1.0  0.5386800000000002  0.025100000000000008  0.6630399999999997  1.0000
  H   H174      1.0  0.6265500000000002  0.02713  0.61582  1.0000
  H   H175      1.0  0.30401999999999996  0.5656400000000003  0.51609  1.0000
  H   H176      1.0  0.36154999999999987  0.6309600000000002  0.5199899999999998  1.0000
  H   H177      1.0  0.26136  0.62851  0.66998  1.0000
  H   H178      1.0  0.20814999999999995  0.5633200000000003  0.6595  1.0000
  H   H179      1.0  0.29790000000000016  0.70737  0.61059  1.0000
  H   H180      1.0  0.37450000000000006  0.6675600000000003  0.6312399999999998  1.0000
  H   H181      1.0  0.11688999999999994  0.70282  0.78411  1.0000
  H   H182      1.0  0.11564000000000021  0.69152  0.7029199999999998  1.0000
  H   H183      1.0  0.0464399999999999  0.6349600000000002  0.68767  1.0000
  H   H184      1.0  0.9840100000000002  0.58959  0.75292  1.0000
  H   H185      1.0  0.85471  0.52976  0.9950499999999998  1.0000
  H   H186      1.0  0.8647799999999999  0.5696900000000003  0.03599999999999998  1.0000
  H   H187      1.0  0.9431300000000001  0.7538600000000002  0.90682  1.0000
  H   H188      1.0  0.81707  0.8206600000000001  0.9209099999999999  1.0000
  H   H189      1.0  0.6777399999999999  0.7204400000000002  0.9436  1.0000
  H   H190      1.0  0.80978  0.65775  0.9283399999999998  1.0000
  H   H191      1.0  0.66746  0.84772  0.95109  1.0000
  H   H192      1.0  0.6112999999999998  0.8065000000000002  0.97199  1.0000
  H   H193      1.0  0.6632399999999998  0.64888  0.88391  1.0000
  H   H194      1.0  0.51596  0.66059  0.9287899999999998  1.0000
  H   H195      1.0  0.4739200000000002  0.5976000000000002  0.9815599999999998  1.0000
  H   H196      1.0  0.5806100000000003  0.52392  0.9894099999999999  1.0000
  H   H197      1.0  0.01603000000000003  0.4035200000000001  0.9577399999999998  1.0000
  H   H198      1.0  0.9850300000000001  0.37097000000000013  0.9247899999999999  1.0000
  H   H199      1.0  0.11838999999999994  0.42218  0.88394  1.0000
  H   H200      1.0  0.13678000000000004  0.3612400000000001  0.8952999999999998  1.0000
  H   H201      1.0  0.08961999999999995  0.3873800000000001  0.85112  1.0000
  H   H202      1.0  0.21484  0.6904600000000001  0.07919  1.0000
  H   H203      1.0  0.13584999999999992  0.7747000000000003  0.08627  1.0000
  H   H204      1.0  0.03429999999999991  0.8071500000000003  0.04034999999999999  1.0000
  H   H205      1.0  0.011350000000000101  0.754  0.9903899999999998  1.0000
  H   H206      1.0  0.11339999999999988  0.4982600000000001  0.91211  1.0000
  H   H207      1.0  0.11126999999999995  0.54511  0.87221  1.0000
  H   H208      1.0  0.2667500000000001  0.5204800000000002  0.8444099999999998  1.0000
  H   H209      1.0  0.22654  0.47503  0.8369699999999998  1.0000
  H   H210      1.0  0.26908999999999983  0.473  0.88425  1.0000
  H   H211      1.0  0.38593000000000005  0.9350400000000002  0.9836499999999998  1.0000
  H   H212      1.0  0.51209  0.86944  0.97989  1.0000
  H   H213      1.0  0.5595099999999996  0.8717300000000002  0.82994  1.0000
  H   H214      1.0  0.43110000000000004  0.93708  0.84024  1.0000
  H   H215      1.0  0.6151500000000001  0.79287  0.88952  1.0000
  H   H216      1.0  0.6728399999999998  0.8326200000000002  0.86879  1.0000
  H   H217      1.0  0.9014099999999999  0.71572  0.70239  1.0000
  H   H218      1.0  0.8179300000000003  0.7968  0.69163  1.0000
  H   H219      1.0  0.73385  0.8122000000000001  0.63492  1.0000
  H   H220      1.0  0.7368899999999999  0.74707  0.58932  1.0000
  H   H221      1.0  0.8506000000000001  0.50494  0.52962  1.0000
  H   H222      1.0  0.9012699999999998  0.46383000000000013  0.5696599999999999  1.0000
  H   H223      1.0  0.8504200000000001  0.5930400000000001  0.7537199999999997  1.0000
  H   H224      1.0  0.7384100000000001  0.5788900000000002  0.8205299999999999  1.0000
  H   H225      1.0  0.62167  0.55626  0.7204399999999997  1.0000
  H   H226      1.0  0.7384400000000001  0.57158  0.6576899999999998  1.0000
  H   H227      1.0  0.61879  0.5489  0.84764  1.0000
  H   H228      1.0  0.58342  0.52805  0.8064899999999999  1.0000
  H   H229      1.0  0.5479499999999999  0.61606  0.64871  1.0000
  H   H230      1.0  0.44497000000000003  0.5715  0.66059  1.0000
  H   H231      1.0  0.4551899999999997  0.51877  0.5978199999999999  1.0000
  H   H232      1.0  0.5697200000000001  0.51068  0.5241799999999999  1.0000
  H   H233      1.0  0.9737899999999998  0.54218  0.40314  1.0000
  H   H234      1.0  0.9093699999999999  0.57541  0.37096  1.0000
  H   H235      1.0  0.0020399999999999143  0.6160700000000002  0.42215999999999987  1.0000
  H   H236      1.0  0.03203999999999997  0.6048600000000001  0.36122  1.0000
  H   H237      1.0  0.94061  0.6489  0.38728  1.0000
  H   H238      1.0  0.29362999999999995  0.42076  0.69047  1.0000
  H   H239      1.0  0.22227999999999995  0.41382000000000013  0.77486  1.0000
  H   H240      1.0  0.07489000000000001  0.45961000000000013  0.80736  1.0000
  H   H241      1.0  0.0016600000000000846  0.50953  0.75431  1.0000
  H   H242      1.0  0.025140000000000034  0.58821  0.4982199999999999  1.0000
  H   H243      1.0  0.98361  0.6279600000000002  0.54504  1.0000
  H   H244      1.0  0.11141999999999998  0.6556300000000003  0.52031  1.0000
  H   H245      1.0  0.06388  0.66314  0.47482  1.0000
  H   H246      1.0  0.15342  0.61576  0.4729699999999999  1.0000
  H   H247      1.0  0.3695600000000001  0.5161  0.9343999999999998  1.0000
  H   H248      1.0  0.4924  0.52007  0.8691699999999999  1.0000
  H   H249      1.0  0.3900600000000001  0.6700700000000002  0.8713999999999997  1.0000
  H   H250      1.0  0.2717200000000002  0.65956  0.93654  1.0000
  H   H251      1.0  0.50524  0.61062  0.79262  1.0000
  H   H252      1.0  0.54217  0.63124  0.83243  1.0000
  H   H253      1.0  0.3194399999999999  0.7844900000000002  0.7978499999999997  1.0000
  H   H254      1.0  0.3064900000000001  0.7032400000000002  0.8084  1.0000
  H   H255      1.0  0.18098999999999987  0.68774  0.86485  1.0000
  H   H256      1.0  0.07306999999999997  0.7527600000000002  0.9101899999999998  1.0000
  H   H257      1.0  0.8852300000000003  0.9947900000000002  0.9700099999999998  1.0000
  H   H258      1.0  0.9355600000000001  0.03612000000000001  0.9305799999999997  1.0000
  H   H259      1.0  0.19726999999999986  0.9072700000000002  0.74669  1.0000
  H   H260      1.0  0.13792999999999997  0.9210000000000003  0.6797999999999997  1.0000
  H   H261      1.0  0.89866  0.9436500000000002  0.77984  1.0000
  H   H262      1.0  0.9679400000000001  0.9287100000000003  0.84264  1.0000
  H   H263      1.0  0.015610000000000073  0.95099  0.6526399999999998  1.0000
  H   H264      1.0  0.9182299999999999  0.9718700000000002  0.69373  1.0000
  H   H265      1.0  0.81129  0.8841800000000002  0.8507899999999999  1.0000
  H   H266      1.0  0.6757999999999998  0.9291000000000003  0.83901  1.0000
  H   H267      1.0  0.5709199999999999  0.9817100000000002  0.90194  1.0000
  H   H268      1.0  0.6039199999999999  0.9894800000000002  0.9756599999999997  1.0000
  H   H269      1.0  0.9185499999999998  0.9577800000000002  0.09626999999999997  1.0000
  H   H270      1.0  0.85542  0.92446  0.12847  1.0000
  H   H271      1.0  0.03991999999999989  0.8840100000000002  0.07746999999999997  1.0000
  H   H272      1.0  0.9974700000000001  0.89538  0.1384  1.0000
  H   H273      1.0  0.9764499999999999  0.8511200000000001  0.11237  1.0000
  H   H274      1.0  0.4031400000000001  0.08061  0.8096599999999998  1.0000
  H   H275      1.0  0.41117  0.08634  0.7250399999999999  1.0000
  H   H276      1.0  0.34286000000000005  0.03998  0.6925399999999999  1.0000
  H   H277      1.0  0.26671  0.99002  0.74561  1.0000
  H   H278      1.0  0.11254999999999982  0.9120400000000002  0.0015399999999999995  1.0000
  H   H279      1.0  0.15722999999999993  0.8721200000000002  0.9548599999999998  1.0000
  H   H280      1.0  0.28784999999999994  0.8442900000000001  0.9797599999999997  1.0000
  H   H281      1.0  0.20205999999999988  0.8369800000000002  0.02518  1.0000
  H   H282      1.0  0.2426999999999999  0.8842900000000002  0.02706  1.0000
  H   H283      1.0  0.8204999999999998  0.9840200000000002  0.56563  1.0000
  H   H284      1.0  0.8817999999999996  0.9800300000000002  0.63098  1.0000
  H   H285      1.0  0.9315400000000001  0.82999  0.62858  1.0000
  H   H286      1.0  0.8679800000000001  0.8405800000000001  0.5633599999999997  1.0000
  H   H287      1.0  0.90852  0.88931  0.70747  1.0000
  H   H288      1.0  0.0057999999999999285  0.8687000000000002  0.66776  1.0000
  C   C1        1.0  0.4816900000000001  0.15278  0.31488999999999995  1.0000
  C   C2        1.0  0.45731  0.17778000000000005  0.2767  1.0000
  C   C3        1.0  0.50989  0.17143  0.23173  1.0000
  C   C4        1.0  0.5887799999999999  0.13965  0.22273  1.0000
  C   C5        1.0  0.61352  0.11454000000000003  0.25945  1.0000
  C   C6        1.0  0.56179  0.12028000000000003  0.30588999999999994  1.0000
  C   C7        1.0  0.5927500000000001  0.09304000000000001  0.34248  1.0000
  C   C8        1.0  0.53858  0.08356  0.46403  1.0000
  C   C9        1.0  0.56484  0.05881  0.50064  1.0000
  C   C10       1.0  0.45377999999999996  0.24770000000000006  0.4150699999999999  1.0000
  C   C11       1.0  0.47978  0.285  0.42281999999999986  1.0000
  C   C12       1.0  0.5540900000000003  0.27622  0.4335699999999999  1.0000
  C   C13       1.0  0.59975  0.22948  0.43533  1.0000
  C   C14       1.0  0.5696  0.19413000000000005  0.42713999999999996  1.0000
  C   C15       1.0  0.58472  0.3154500000000001  0.4420199999999999  1.0000
  C   C16       1.0  0.80482  0.08047000000000003  0.4110299999999999  1.0000
  C   C17       1.0  0.8272399999999999  0.12238000000000003  0.40745  1.0000
  C   C18       1.0  0.8777  0.12865  0.4325199999999999  1.0000
  C   C19       1.0  0.90739  0.09334  0.46217  1.0000
  C   C20       1.0  0.88505  0.05219  0.46649  1.0000
  C   C21       1.0  0.83355  0.04496000000000001  0.4417  1.0000
  C   C22       1.0  0.81043  0.0013500000000000005  0.44956  1.0000
  C   C23       1.0  0.69606  0.94427  0.41456999999999994  1.0000
  C   C24       1.0  0.66752  0.90101  0.4226  1.0000
  C   C25       1.0  0.62869  0.89271  0.3860899999999999  1.0000
  C   C26       1.0  0.13577999999999998  0.17433  0.53102  1.0000
  C   C27       1.0  0.0648100000000001  0.20496000000000006  0.5600399999999999  1.0000
  C   C28       1.0  0.058560000000000154  0.25192  0.5635099999999997  1.0000
  C   C29       1.0  0.12297999999999998  0.27019000000000004  0.53831  1.0000
  C   C30       1.0  0.19354  0.24051  0.51021  1.0000
  C   C31       1.0  0.20163999999999996  0.19271000000000005  0.50568  1.0000
  C   C32       1.0  0.27659000000000006  0.16447  0.4737199999999999  1.0000
  C   C33       1.0  0.36437  0.05266  0.42961999999999995  1.0000
  C   C34       1.0  0.43544  0.02281  0.39361  1.0000
  C   C35       1.0  0.4079000000000004  0.99599  0.3630199999999999  1.0000
  C   C36       1.0  0.7037900000000001  0.4192  0.4505999999999999  1.0000
  C   C37       1.0  0.67236  0.3824900000000001  0.44798  1.0000
  C   C38       1.0  0.68377  0.36414  0.40435  1.0000
  C   C39       1.0  0.7276799999999999  0.38413  0.36497  1.0000
  C   C40       1.0  0.7572299999999998  0.4207400000000001  0.37049  1.0000
  C   C41       1.0  0.65078  0.32471  0.3987799999999999  1.0000
  C   C42       1.0  0.9499999999999998  0.3464  0.18501999999999996  1.0000
  C   C43       1.0  0.9119800000000001  0.32178  0.22343  1.0000
  C   C44       1.0  0.91291  0.32847  0.26842  1.0000
  C   C45       1.0  0.95094  0.36039  0.27732  1.0000
  C   C46       1.0  0.9870399999999999  0.3854800000000001  0.24047999999999994  1.0000
  C   C47       1.0  0.9877099999999999  0.3794500000000001  0.19404  1.0000
  C   C48       1.0  0.027800000000000012  0.40692  0.15757  1.0000
  C   C49       1.0  0.08646999999999998  0.4164000000000001  0.03612  1.0000
  C   C50       1.0  0.12485000000000006  0.4410500000000001  0.9994599999999999  1.0000
  C   C51       1.0  0.11694000000000003  0.25203  0.08515999999999997  1.0000
  C   C52       1.0  0.18798  0.21476000000000006  0.07735  1.0000
  C   C53       1.0  0.26427  0.22358000000000006  0.06652  1.0000
  C   C54       1.0  0.2648900000000001  0.27036  0.06479  1.0000
  C   C55       1.0  0.19118999999999992  0.3056700000000001  0.07304999999999999  1.0000
  C   C56       1.0  0.34262  0.18436  0.05795  1.0000
  C   C57       1.0  0.29569999999999996  0.41982000000000014  0.08908  1.0000
  C   C58       1.0  0.35647  0.3779400000000001  0.09266  1.0000
  C   C59       1.0  0.43821  0.37177  0.06756  1.0000
  C   C60       1.0  0.46214  0.40706  0.03782  1.0000
  C   C61       1.0  0.40295  0.44812  0.03346  1.0000
  C   C62       1.0  0.31957999999999986  0.4553200000000001  0.058389999999999984  1.0000
  C   C63       1.0  0.2609299999999999  0.4990500000000001  0.05063  1.0000
  C   C64       1.0  0.05415000000000002  0.55592  0.08541999999999997  1.0000
  C   C65       1.0  0.99028  0.59913  0.07733  1.0000
  C   C66       1.0  0.9066999999999997  0.6075100000000002  0.11389999999999997  1.0000
  C   C67       1.0  0.84149  0.3256  0.9689099999999998  1.0000
  C   C68       1.0  0.8300100000000001  0.29490000000000005  0.9399899999999999  1.0000
  C   C69       1.0  0.87418  0.24794  0.93651  1.0000
  C   C70       1.0  0.93165  0.22966000000000006  0.96173  1.0000
  C   C71       1.0  0.9443699999999998  0.25936000000000003  0.98989  1.0000
  C   C72       1.0  0.90025  0.30719  0.9943699999999999  1.0000
  C   C73       1.0  0.9148700000000001  0.33542  0.02644  1.0000
  C   C74       1.0  0.8472499999999998  0.44723  0.07033  1.0000
  C   C75       1.0  0.85236  0.4771900000000001  0.10627999999999999  1.0000
  C   C76       1.0  0.7673700000000001  0.50388  0.13687  1.0000
  C   C77       1.0  0.57352  0.0802  0.04960999999999999  1.0000
  C   C78       1.0  0.50311  0.11709000000000001  0.052159999999999984  1.0000
  C   C79       1.0  0.45262  0.13555000000000006  0.09571999999999999  1.0000
  C   C80       1.0  0.47703  0.11557000000000002  0.13513  1.0000
  C   C81       1.0  0.5483900000000002  0.07881  0.12972  1.0000
  C   C82       1.0  0.37481  0.17505  0.10117999999999999  1.0000
  C   C83       1.0  0.13371000000000005  0.31498  0.3473899999999999  1.0000
  C   C84       1.0  0.13500000000000006  0.27675000000000005  0.32221999999999995  1.0000
  C   C85       1.0  0.18163000000000007  0.23180000000000006  0.3285299999999999  1.0000
  C   C86       1.0  0.22851  0.22282  0.36048  1.0000
  C   C87       1.0  0.22757  0.25956000000000007  0.3857399999999999  1.0000
  C   C88       1.0  0.18128000000000005  0.30596000000000007  0.3799999999999999  1.0000
  C   C89       1.0  0.18476000000000004  0.34244000000000013  0.4074699999999999  1.0000
  C   C90       1.0  0.12257999999999998  0.4640300000000001  0.41626  1.0000
  C   C91       1.0  0.12386999999999998  0.50067  0.44103  1.0000
  C   C92       1.0  0.2017599999999999  0.41483  0.25217  1.0000
  C   C93       1.0  0.2649400000000002  0.4227200000000001  0.21487999999999993  1.0000
  C   C94       1.0  0.33043999999999996  0.4335100000000001  0.22366999999999995  1.0000
  C   C95       1.0  0.32935000000000003  0.4352600000000001  0.27042999999999995  1.0000
  C   C96       1.0  0.2639599999999999  0.4269200000000001  0.30575  1.0000
  C   C97       1.0  0.40027999999999997  0.4420300000000001  0.18445  1.0000
  C   C98       1.0  0.38417999999999997  0.4110200000000001  0.41987  1.0000
  C   C99       1.0  0.4485700000000001  0.40733000000000014  0.37802  1.0000
  C   C100      1.0  0.5054800000000003  0.43230000000000013  0.3717399999999999  1.0000
  C   C101      1.0  0.49994000000000005  0.46202000000000004  0.40691  1.0000
  C   C102      1.0  0.43633999999999995  0.46650000000000014  0.44795  1.0000
  C   C103      1.0  0.37754999999999994  0.44175000000000003  0.45523999999999987  1.0000
  C   C104      1.0  0.31111  0.44952  0.49894  1.0000
  C   C105      1.0  0.13923  0.41479  0.55596  1.0000
  C   C106      1.0  0.06762000000000017  0.4227  0.5992699999999997  1.0000
  C   C107      1.0  0.02069999999999994  0.38606000000000007  0.6076  1.0000
  C   C108      1.0  0.8108900000000001  0.53113  0.32545  1.0000
  C   C109      1.0  0.7703  0.56004  0.2947899999999999  1.0000
  C   C110      1.0  0.8107300000000001  0.56351  0.24778999999999995  1.0000
  C   C111      1.0  0.89336  0.53834  0.22948  1.0000
  C   C112      1.0  0.9344300000000001  0.51021  0.25915  1.0000
  C   C113      1.0  0.8949999999999999  0.5056900000000001  0.3070099999999999  1.0000
  C   C114      1.0  0.94162  0.47361  0.3353  1.0000
  C   C115      1.0  0.9176599999999999  0.4296600000000001  0.44727  1.0000
  C   C116      1.0  0.95866  0.3936  0.47724999999999995  1.0000
  C   C117      1.0  0.90408  0.36305  0.504  1.0000
  C   C118      1.0  0.6230199999999999  0.4505800000000001  0.08078  1.0000
  C   C119      1.0  0.55494  0.4479300000000001  0.11744999999999997  1.0000
  C   C120      1.0  0.5479199999999999  0.4043000000000001  0.13586  1.0000
  C   C121      1.0  0.61169  0.3649  0.11595  1.0000
  C   C122      1.0  0.6778000000000001  0.37043  0.07935999999999997  1.0000
  C   C123      1.0  0.47552000000000005  0.39875  0.17527  1.0000
  C   C124      1.0  0.7963600000000001  0.18509000000000006  0.15262  1.0000
  C   C125      1.0  0.73393  0.22324  0.17762  1.0000
  C   C126      1.0  0.74175  0.26822000000000007  0.17138  1.0000
  C   C127      1.0  0.81167  0.27726  0.13961  1.0000
  C   C128      1.0  0.8729400000000002  0.24057  0.11446  1.0000
  C   C129      1.0  0.8675000000000002  0.19412  0.12011  1.0000
  C   C130      1.0  0.93513  0.15755  0.09298  1.0000
  C   C131      1.0  0.0025800000000000033  0.03596000000000001  0.08381999999999998  1.0000
  C   C132      1.0  0.06525999999999996  0.9993800000000002  0.05903999999999999  1.0000
  C   C133      1.0  0.8686599999999999  0.08484  0.24753999999999995  1.0000
  C   C134      1.0  0.90245  0.07719000000000002  0.28481  1.0000
  C   C135      1.0  0.9874999999999999  0.06647  0.27604  1.0000
  C   C136      1.0  0.03485000000000004  0.06464  0.22928999999999994  1.0000
  C   C137      1.0  0.9965100000000002  0.07275  0.19395  1.0000
  C   C138      1.0  0.026549999999999983  0.058040000000000015  0.31529  1.0000
  C   C139      1.0  0.21626999999999996  0.08896  0.0805  1.0000
  C   C140      1.0  0.23521  0.09248000000000003  0.12238  1.0000
  C   C141      1.0  0.31079  0.06739  0.12857  1.0000
  C   C142      1.0  0.36989999999999995  0.037730000000000014  0.09329  1.0000
  C   C143      1.0  0.35174  0.03342  0.05222  1.0000
  C   C144      1.0  0.27553999999999995  0.058330000000000014  0.044989999999999995  1.0000
  C   C145      1.0  0.26028  0.050580000000000014  0.0013499999999999996  1.0000
  C   C146      1.0  0.11024000000000014  0.08543000000000003  0.9446199999999998  1.0000
  C   C147      1.0  0.08994000000000009  0.07741  0.9012799999999999  1.0000
  C   C148      1.0  0.014730000000000085  0.11389000000000002  0.8928199999999997  1.0000
  C   C149      1.0  0.66848  0.9678700000000002  0.17442  1.0000
  C   C150      1.0  0.626  0.9390800000000002  0.20516  1.0000
  C   C151      1.0  0.6219900000000002  0.93622  0.25226  1.0000
  C   C152      1.0  0.6604900000000001  0.96182  0.27059  1.0000
  C   C153      1.0  0.7030899999999999  0.9899300000000002  0.24088999999999994  1.0000
  C   C154      1.0  0.7076599999999998  0.9939200000000002  0.19292999999999993  1.0000
  C   C155      1.0  0.75039  0.02599  0.16455  1.0000
  C   C156      1.0  0.79361  0.07029  0.05272  1.0000
  C   C157      1.0  0.82865  0.10636000000000002  0.02286  1.0000
  C   C158      1.0  0.77058  0.13693  0.9959799999999998  1.0000
  C   C159      1.0  0.15410000000000001  0.049310000000000014  0.41914999999999997  1.0000
  C   C160      1.0  0.1201  0.05200000000000001  0.38242  1.0000
  C   C161      1.0  0.08793000000000005  0.09566000000000002  0.3640299999999999  1.0000
  C   C162      1.0  0.09247999999999999  0.13501  0.38403  1.0000
  C   C163      1.0  0.12749000000000002  0.12943  0.4206599999999999  1.0000
  C   C164      1.0  0.04944  0.10127000000000003  0.32456  1.0000
  C   C165      1.0  0.51832  0.8472200000000002  0.68511  1.0000
  C   C166      1.0  0.5427  0.8222200000000001  0.72329  1.0000
  C   C167      1.0  0.49012000000000006  0.8285700000000003  0.76827  1.0000
  C   C168      1.0  0.4112299999999999  0.86035  0.77727  1.0000
  C   C169      1.0  0.38649999999999995  0.8854600000000002  0.7405399999999998  1.0000
  C   C170      1.0  0.43821999999999994  0.8797300000000001  0.69411  1.0000
  C   C171      1.0  0.40726  0.90696  0.65752  1.0000
  C   C172      1.0  0.46144000000000013  0.9164400000000003  0.5359699999999998  1.0000
  C   C173      1.0  0.4351800000000002  0.94119  0.49935999999999997  1.0000
  C   C174      1.0  0.5462300000000001  0.7523000000000002  0.5849299999999997  1.0000
  C   C175      1.0  0.5202399999999999  0.7150000000000002  0.5771799999999999  1.0000
  C   C176      1.0  0.44592999999999994  0.72378  0.56643  1.0000
  C   C177      1.0  0.40026000000000006  0.77052  0.56467  1.0000
  C   C178      1.0  0.4304099999999998  0.8058800000000003  0.57285  1.0000
  C   C179      1.0  0.41529000000000005  0.6845500000000001  0.55798  1.0000
  C   C180      1.0  0.19519000000000017  0.91953  0.5889699999999999  1.0000
  C   C181      1.0  0.17276999999999995  0.8776300000000002  0.5925399999999998  1.0000
  C   C182      1.0  0.12231999999999998  0.87135  0.5674799999999999  1.0000
  C   C183      1.0  0.09262000000000005  0.90667  0.53783  1.0000
  C   C184      1.0  0.11495999999999987  0.9478100000000003  0.53351  1.0000
  C   C185      1.0  0.1664599999999999  0.95504  0.5583  1.0000
  C   C186      1.0  0.18957999999999997  0.99865  0.55044  1.0000
  C   C187      1.0  0.30394999999999994  0.05573  0.58543  1.0000
  C   C188      1.0  0.3324900000000001  0.09899000000000002  0.5773999999999998  1.0000
  C   C189      1.0  0.37132  0.10729  0.61391  1.0000
  C   C190      1.0  0.8642299999999999  0.8256700000000002  0.4689799999999999  1.0000
  C   C191      1.0  0.9351999999999999  0.7950400000000002  0.43995  1.0000
  C   C192      1.0  0.9414500000000001  0.74809  0.43649  1.0000
  C   C193      1.0  0.8770400000000003  0.72981  0.4616899999999999  1.0000
  C   C194      1.0  0.80647  0.7594900000000002  0.48979  1.0000
  C   C195      1.0  0.7983700000000001  0.80729  0.49432  1.0000
  C   C196      1.0  0.72342  0.8355300000000002  0.52628  1.0000
  C   C197      1.0  0.6356399999999999  0.94734  0.57037  1.0000
  C   C198      1.0  0.5645699999999997  0.9771900000000002  0.60639  1.0000
  C   C199      1.0  0.59212  0.00401  0.6369799999999998  1.0000
  C   C200      1.0  0.29621999999999993  0.5808  0.54939  1.0000
  C   C201      1.0  0.32764999999999994  0.61751  0.55202  1.0000
  C   C202      1.0  0.31624000000000013  0.63586  0.59565  1.0000
  C   C203      1.0  0.27233000000000007  0.61587  0.63502  1.0000
  C   C204      1.0  0.24278000000000013  0.57926  0.6295  1.0000
  C   C205      1.0  0.3492300000000001  0.67529  0.6012099999999998  1.0000
  C   C206      1.0  0.05000999999999997  0.6536  0.81497  1.0000
  C   C207      1.0  0.08802999999999982  0.6782200000000003  0.77656  1.0000
  C   C208      1.0  0.08709999999999996  0.67153  0.73158  1.0000
  C   C209      1.0  0.04906999999999997  0.63961  0.72267  1.0000
  C   C210      1.0  0.012969999999999959  0.6145200000000002  0.75951  1.0000
  C   C211      1.0  0.0122999999999999  0.6205500000000002  0.80596  1.0000
  C   C212      1.0  0.97221  0.5930800000000003  0.84243  1.0000
  C   C213      1.0  0.9135399999999998  0.5836000000000001  0.9638799999999998  1.0000
  C   C214      1.0  0.8751600000000002  0.55896  0.0005399999999999999  1.0000
  C   C215      1.0  0.8830699999999999  0.7479700000000001  0.9148399999999998  1.0000
  C   C216      1.0  0.8120299999999999  0.7852400000000003  0.92265  1.0000
  C   C217      1.0  0.7357400000000002  0.77642  0.93348  1.0000
  C   C218      1.0  0.73512  0.72964  0.93521  1.0000
  C   C219      1.0  0.8088200000000001  0.6943300000000002  0.9269499999999998  1.0000
  C   C220      1.0  0.6574  0.81564  0.94204  1.0000
  C   C221      1.0  0.7043099999999997  0.5801800000000001  0.91092  1.0000
  C   C222      1.0  0.6435400000000001  0.6220600000000001  0.9073399999999999  1.0000
  C   C223      1.0  0.5618000000000001  0.62823  0.9324399999999998  1.0000
  C   C224      1.0  0.5378700000000001  0.59294  0.9621799999999999  1.0000
  C   C225      1.0  0.5970699999999999  0.55188  0.96653  1.0000
  C   C226      1.0  0.6804400000000002  0.54468  0.9416099999999997  1.0000
  C   C227      1.0  0.73908  0.50095  0.9493699999999998  1.0000
  C   C228      1.0  0.94587  0.4440800000000001  0.91457  1.0000
  C   C229      1.0  0.009730000000000143  0.40087  0.9226699999999998  1.0000
  C   C230      1.0  0.09331999999999994  0.39249000000000006  0.88609  1.0000
  C   C231      1.0  0.15851999999999988  0.6744000000000002  0.03108  1.0000
  C   C232      1.0  0.1700099999999999  0.7051000000000002  0.060009999999999994  1.0000
  C   C233      1.0  0.12582999999999975  0.7520600000000002  0.06349  1.0000
  C   C234      1.0  0.06836000000000006  0.77034  0.03826999999999999  1.0000
  C   C235      1.0  0.05564  0.74064  0.01011  1.0000
  C   C236      1.0  0.0997599999999999  0.6928100000000003  0.00563  1.0000
  C   C237      1.0  0.08514  0.66459  0.9735599999999998  1.0000
  C   C238      1.0  0.15276000000000017  0.55278  0.9296699999999998  1.0000
  C   C239      1.0  0.14765000000000006  0.52281  0.89372  1.0000
  C   C240      1.0  0.23263999999999999  0.4961200000000001  0.8631199999999999  1.0000
  C   C241      1.0  0.42649  0.9198000000000002  0.9503799999999998  1.0000
  C   C242      1.0  0.4968999999999998  0.8829100000000002  0.94784  1.0000
  C   C243      1.0  0.5473900000000005  0.86445  0.9042799999999998  1.0000
  C   C244      1.0  0.52298  0.88443  0.86486  1.0000
  C   C245      1.0  0.4516199999999999  0.9211900000000002  0.87027  1.0000
  C   C246      1.0  0.6251999999999999  0.82495  0.89882  1.0000
  C   C247      1.0  0.8663000000000001  0.68502  0.6526  1.0000
  C   C248      1.0  0.8650100000000004  0.72326  0.6777699999999998  1.0000
  C   C249      1.0  0.8183900000000002  0.7682  0.67147  1.0000
  C   C250      1.0  0.7715  0.77718  0.63952  1.0000
  C   C251      1.0  0.7724399999999999  0.7404400000000001  0.6142599999999999  1.0000
  C   C252      1.0  0.8187300000000001  0.6940400000000002  0.6199899999999998  1.0000
  C   C253      1.0  0.8152600000000002  0.6575600000000001  0.5925299999999998  1.0000
  C   C254      1.0  0.87743  0.53597  0.58374  1.0000
  C   C255      1.0  0.8761400000000001  0.4993300000000001  0.55897  1.0000
  C   C256      1.0  0.7982600000000002  0.58517  0.7478299999999998  1.0000
  C   C257      1.0  0.73507  0.5772800000000002  0.78512  1.0000
  C   C258      1.0  0.66957  0.56649  0.77633  1.0000
  C   C259      1.0  0.6706599999999999  0.56474  0.72956  1.0000
  C   C260      1.0  0.7360600000000004  0.57308  0.69425  1.0000
  C   C261      1.0  0.5997300000000001  0.55797  0.8155499999999998  1.0000
  C   C262      1.0  0.6158299999999999  0.5889800000000002  0.5801199999999997  1.0000
  C   C263      1.0  0.55144  0.59267  0.62198  1.0000
  C   C264      1.0  0.49453  0.5677  0.62826  1.0000
  C   C265      1.0  0.50007  0.53798  0.59309  1.0000
  C   C266      1.0  0.5636699999999999  0.5335  0.55204  1.0000
  C   C267      1.0  0.6224600000000001  0.55826  0.54476  1.0000
  C   C268      1.0  0.6889  0.55049  0.50105  1.0000
  C   C269      1.0  0.8607799999999999  0.5852100000000002  0.44403  1.0000
  C   C270      1.0  0.93239  0.5773  0.4007199999999999  1.0000
  C   C271      1.0  0.9793099999999998  0.6139400000000003  0.3924  1.0000
  C   C272      1.0  0.18911999999999995  0.4688700000000001  0.67455  1.0000
  C   C273      1.0  0.22971  0.43996  0.70521  1.0000
  C   C274      1.0  0.18928000000000006  0.43649  0.7522  1.0000
  C   C275      1.0  0.10664999999999994  0.4616600000000001  0.77052  1.0000
  C   C276      1.0  0.06558000000000007  0.48979000000000006  0.7408499999999998  1.0000
  C   C277      1.0  0.10501000000000014  0.49431  0.6929799999999998  1.0000
  C   C278      1.0  0.058390000000000004  0.5263900000000001  0.6647  1.0000
  C   C279      1.0  0.08235000000000008  0.5703400000000001  0.55273  1.0000
  C   C280      1.0  0.041349999999999956  0.6064000000000003  0.5227499999999999  1.0000
  C   C281      1.0  0.09593000000000003  0.63695  0.496  1.0000
  C   C282      1.0  0.37698999999999994  0.54942  0.91922  1.0000
  C   C283      1.0  0.4450799999999999  0.5520800000000001  0.88254  1.0000
  C   C284      1.0  0.4520899999999998  0.5957000000000002  0.86414  1.0000
  C   C285      1.0  0.3883200000000001  0.6351  0.8840499999999998  1.0000
  C   C286      1.0  0.32220999999999994  0.6295700000000002  0.92063  1.0000
  C   C287      1.0  0.5244999999999999  0.6012500000000002  0.82473  1.0000
  C   C288      1.0  0.2036499999999999  0.8149100000000002  0.84738  1.0000
  C   C289      1.0  0.2660900000000002  0.77676  0.8223799999999998  1.0000
  C   C290      1.0  0.25825999999999993  0.73178  0.82862  1.0000
  C   C291      1.0  0.1883400000000001  0.72274  0.8603799999999998  1.0000
  C   C292      1.0  0.12706999999999977  0.7594300000000003  0.88554  1.0000
  C   C293      1.0  0.1325099999999999  0.8058800000000003  0.87988  1.0000
  C   C294      1.0  0.06488000000000013  0.84245  0.9070099999999998  1.0000
  C   C295      1.0  0.9974300000000003  0.9640400000000002  0.9161799999999999  1.0000
  C   C296      1.0  0.9347499999999999  0.0006200000000000001  0.94096  1.0000
  C   C297      1.0  0.13135999999999984  0.9151700000000003  0.75246  1.0000
  C   C298      1.0  0.09756999999999982  0.9228100000000002  0.71519  1.0000
  C   C299      1.0  0.012519999999999922  0.9335300000000002  0.72396  1.0000
  C   C300      1.0  0.9651599999999999  0.9353600000000002  0.7707099999999998  1.0000
  C   C301      1.0  0.0034999999999999654  0.9272500000000002  0.80605  1.0000
  C   C302      1.0  0.9734700000000002  0.9419600000000002  0.6846999999999999  1.0000
  C   C303      1.0  0.7837400000000001  0.9110400000000002  0.9194999999999998  1.0000
  C   C304      1.0  0.7647999999999998  0.9075200000000002  0.8776199999999998  1.0000
  C   C305      1.0  0.6892199999999999  0.9326100000000002  0.87142  1.0000
  C   C306      1.0  0.6301100000000001  0.96227  0.9067099999999998  1.0000
  C   C307      1.0  0.6482699999999999  0.9665800000000002  0.94778  1.0000
  C   C308      1.0  0.7244699999999998  0.9416700000000002  0.955  1.0000
  C   C309      1.0  0.7397300000000003  0.94942  0.9986399999999999  1.0000
  C   C310      1.0  0.8897799999999998  0.9145700000000002  0.05537999999999999  1.0000
  C   C311      1.0  0.9100699999999998  0.9225900000000001  0.09871  1.0000
  C   C312      1.0  0.9852799999999999  0.88611  0.10717999999999997  1.0000
  C   C313      1.0  0.33154000000000006  0.03213  0.82558  1.0000
  C   C314      1.0  0.3740100000000001  0.06092  0.7948399999999998  1.0000
  C   C315      1.0  0.3780200000000002  0.06378  0.7477399999999997  1.0000
  C   C316      1.0  0.33952  0.038180000000000006  0.7294  1.0000
  C   C317      1.0  0.29693  0.01007  0.75911  1.0000
  C   C318      1.0  0.29234999999999994  0.006080000000000002  0.80707  1.0000
  C   C319      1.0  0.24961999999999987  0.9740100000000003  0.83544  1.0000
  C   C320      1.0  0.2064  0.9297100000000001  0.9472799999999998  1.0000
  C   C321      1.0  0.17136000000000026  0.89364  0.9771299999999998  1.0000
  C   C322      1.0  0.22943000000000002  0.86307  0.00402  1.0000
  C   C323      1.0  0.8459100000000002  0.95069  0.58085  1.0000
  C   C324      1.0  0.8799100000000002  0.9480000000000002  0.6175799999999998  1.0000
  C   C325      1.0  0.9120800000000001  0.9043500000000001  0.6359699999999998  1.0000
  C   C326      1.0  0.9075299999999998  0.8649900000000003  0.6159699999999999  1.0000
  C   C327      1.0  0.8725299999999999  0.8705700000000002  0.57933  1.0000
  C   C328      1.0  0.95057  0.8987300000000001  0.67544  1.0000
  N   N1        1.0  0.54769  0.09981  0.38790999999999987  1.0000
  N   N2        1.0  0.58463  0.07261000000000001  0.41893  1.0000
  N   N3        1.0  0.49742999999999993  0.20288  0.4173499999999999  1.0000
  N   N4        1.0  0.75888  0.99389  0.4279899999999999  1.0000
  N   N5        1.0  0.7416900000000001  0.95099  0.43922  1.0000
  N   N6        1.0  0.28593  0.11925  0.4671499999999999  1.0000
  N   N7        1.0  0.35657999999999995  0.09744000000000003  0.43217999999999995  1.0000
  N   N8        1.0  0.7451200000000002  0.43841000000000013  0.4126599999999999  1.0000
  N   N9        1.0  0.03513999999999997  0.4001900000000001  0.11211  1.0000
  N   N10       1.0  0.07570999999999999  0.4276  0.08123  1.0000
  N   N11       1.0  0.11801999999999999  0.29688  0.08279  1.0000
  N   N12       1.0  0.18031999999999992  0.5065800000000003  0.07225  1.0000
  N   N13       1.0  0.13118999999999997  0.54932  0.06089  1.0000
  N   N14       1.0  0.87214  0.3805500000000001  0.03319  1.0000
  N   N15       1.0  0.8862099999999999  0.4023800000000001  0.0681  1.0000
  N   N16       1.0  0.59588  0.060940000000000015  0.08762  1.0000
  N   N17       1.0  0.14725999999999995  0.3879400000000001  0.40031  1.0000
  N   N18       1.0  0.15677999999999997  0.41890000000000005  0.42762  1.0000
  N   N19       1.0  0.20057999999999998  0.41705  0.29701  1.0000
  N   N20       1.0  0.25216  0.4278400000000001  0.50654  1.0000
  N   N21       1.0  0.19189999999999993  0.4392200000000001  0.5493  1.0000
  N   N22       1.0  0.90568  0.4670000000000001  0.3805099999999999  1.0000
  N   N23       1.0  0.95457  0.4321600000000001  0.40246999999999994  1.0000
  N   N24       1.0  0.68341  0.41262  0.06166  1.0000
  N   N25       1.0  0.9354400000000002  0.11208000000000003  0.09973  1.0000
  N   N26       1.0  0.0036100000000000012  0.08109  0.07279  1.0000
  N   N27       1.0  0.91456  0.08252000000000002  0.20273  1.0000
  N   N28       1.0  0.18700000000000017  0.07213000000000003  0.9940399999999998  1.0000
  N   N29       1.0  0.18045  0.060780000000000015  0.9513899999999998  1.0000
  N   N30       1.0  0.75307  0.03252  0.11932999999999998  1.0000
  N   N31       1.0  0.78864  0.06758000000000002  0.09746  1.0000
  N   N32       1.0  0.15751000000000007  0.08723  0.4383399999999999  1.0000
  N   N33       1.0  0.45231999999999994  0.90019  0.6120799999999997  1.0000
  N   N34       1.0  0.41538  0.9273900000000003  0.5810599999999999  1.0000
  N   N35       1.0  0.5025799999999999  0.7971200000000003  0.58265  1.0000
  N   N36       1.0  0.24112999999999996  0.006110000000000002  0.57201  1.0000
  N   N37       1.0  0.25832  0.04901000000000001  0.56078  1.0000
  N   N38       1.0  0.71408  0.8807500000000003  0.53285  1.0000
  N   N39       1.0  0.6434299999999998  0.90256  0.56782  1.0000
  N   N40       1.0  0.25489  0.5616  0.5873399999999999  1.0000
  N   N41       1.0  0.96487  0.5998100000000002  0.88789  1.0000
  N   N42       1.0  0.9242999999999997  0.5724  0.91876  1.0000
  N   N43       1.0  0.8819899999999999  0.7031200000000002  0.9172  1.0000
  N   N44       1.0  0.8196899999999999  0.49342000000000014  0.92775  1.0000
  N   N45       1.0  0.8688200000000001  0.45068000000000014  0.9391099999999998  1.0000
  N   N46       1.0  0.1278700000000002  0.61946  0.9668099999999997  1.0000
  N   N47       1.0  0.11380000000000004  0.59762  0.9318999999999997  1.0000
  N   N48       1.0  0.40413  0.93906  0.91238  1.0000
  N   N49       1.0  0.85275  0.61206  0.59969  1.0000
  N   N50       1.0  0.8432299999999999  0.5811000000000002  0.5723699999999998  1.0000
  N   N51       1.0  0.7994300000000001  0.5829500000000002  0.7029899999999998  1.0000
  N   N52       1.0  0.74785  0.57216  0.4934599999999999  1.0000
  N   N53       1.0  0.8081099999999998  0.5607800000000002  0.45069  1.0000
  N   N54       1.0  0.09433000000000001  0.533  0.61949  1.0000
  N   N55       1.0  0.04543999999999993  0.5678400000000002  0.59753  1.0000
  N   N56       1.0  0.3166000000000001  0.58738  0.9383399999999997  1.0000
  N   N57       1.0  0.06457000000000006  0.88792  0.9002699999999998  1.0000
  N   N58       1.0  0.9963999999999997  0.9189100000000002  0.92721  1.0000
  N   N59       1.0  0.08544999999999997  0.9174800000000002  0.79727  1.0000
  N   N60       1.0  0.81301  0.92787  0.005959999999999998  1.0000
  N   N61       1.0  0.8195699999999999  0.93922  0.04860999999999999  1.0000
  N   N62       1.0  0.24693999999999983  0.96748  0.88067  1.0000
  N   N63       1.0  0.21136999999999975  0.9324200000000002  0.90254  1.0000
  N   N64       1.0  0.8425  0.91277  0.5616599999999998  1.0000
  O   O1        1.0  0.42771999999999993  0.16106000000000004  0.35668  1.0000
  O   O2        1.0  0.6638500000000002  0.06215000000000001  0.33240999999999987  1.0000
  O   O3        1.0  0.46986  0.11840000000000002  0.47152  1.0000
  O   O4        1.0  0.75891  0.07669  0.3842299999999999  1.0000
  O   O5        1.0  0.8384199999999999  0.9707500000000002  0.47807  1.0000
  O   O6        1.0  0.6738999999999998  0.9754400000000002  0.38364  1.0000
  O   O7        1.0  0.13616000000000003  0.13  0.52915  1.0000
  O   O8        1.0  0.3332700000000002  0.18378  0.45093  1.0000
  O   O9        1.0  0.3104799999999999  0.03332  0.45749  1.0000
  O   O10       1.0  0.94742  0.33713  0.14318  1.0000
  O   O11       1.0  0.05763000000000007  0.43796  0.16771999999999995  1.0000
  O   O12       1.0  0.06051999999999999  0.38135  0.028639999999999992  1.0000
  O   O13       1.0  0.21927000000000002  0.42371  0.11591  1.0000
  O   O14       1.0  0.28733000000000003  0.5295200000000001  0.022099999999999998  1.0000
  O   O15       1.0  0.03213000000000002  0.52478  0.11641999999999997  1.0000
  O   O16       1.0  0.7958299999999999  0.3699500000000001  0.97064  1.0000
  O   O17       1.0  0.96828  0.31611  0.04910999999999999  1.0000
  O   O18       1.0  0.8024799999999999  0.46661000000000014  0.04218  1.0000
  O   O19       1.0  0.08751000000000002  0.35674  0.33925  1.0000
  O   O20       1.0  0.22398000000000004  0.3323300000000001  0.43888999999999995  1.0000
  O   O21       1.0  0.08980000000000014  0.4715  0.38095  1.0000
  O   O22       1.0  0.33434000000000014  0.3842600000000001  0.4237999999999999  1.0000
  O   O23       1.0  0.30880999999999986  0.47798  0.52945  1.0000
  O   O24       1.0  0.14785999999999994  0.3839100000000001  0.52485  1.0000
  O   O25       1.0  0.7671300000000002  0.5294  0.3698099999999999  1.0000
  O   O26       1.0  0.01753999999999995  0.4508100000000001  0.31602  1.0000
  O   O27       1.0  0.8446099999999999  0.45761000000000013  0.46655  1.0000
  O   O28       1.0  0.78409  0.14327  0.16098999999999994  1.0000
  O   O29       1.0  0.99643  0.16764  0.06229  1.0000
  O   O30       1.0  0.9414300000000002  0.028470000000000006  0.11870999999999997  1.0000
  O   O31       1.0  0.14363  0.11577000000000003  0.07669  1.0000
  O   O32       1.0  0.3168500000000002  0.022230000000000007  0.9706999999999998  1.0000
  O   O33       1.0  0.05720000000000004  0.11646000000000002  0.9755999999999999  1.0000
  O   O34       1.0  0.6689599999999998  0.9686700000000003  0.12983  1.0000
  O   O35       1.0  0.78396  0.049020000000000015  0.18379999999999996  1.0000
  O   O36       1.0  0.76778  0.042390000000000004  0.03333  1.0000
  O   O37       1.0  0.57229  0.8389400000000002  0.64332  1.0000
  O   O38       1.0  0.33615999999999985  0.9378500000000002  0.66758  1.0000
  O   O39       1.0  0.5301500000000003  0.8816  0.52848  1.0000
  O   O40       1.0  0.24110000000000004  0.92331  0.61576  1.0000
  O   O41       1.0  0.16159  0.02925000000000001  0.52193  1.0000
  O   O42       1.0  0.32611  0.02457000000000001  0.6163599999999999  1.0000
  O   O43       1.0  0.86385  0.8700000000000001  0.47084999999999994  1.0000
  O   O44       1.0  0.66675  0.81622  0.54907  1.0000
  O   O45       1.0  0.6895299999999998  0.96668  0.54251  1.0000
  O   O46       1.0  0.05258999999999998  0.6628700000000002  0.8568199999999998  1.0000
  O   O47       1.0  0.94238  0.5620400000000002  0.83228  1.0000
  O   O48       1.0  0.9394899999999998  0.61865  0.97136  1.0000
  O   O49       1.0  0.78074  0.5762900000000002  0.88409  1.0000
  O   O50       1.0  0.7126800000000001  0.47048  0.9778999999999998  1.0000
  O   O51       1.0  0.9678800000000001  0.4752200000000001  0.8835799999999998  1.0000
  O   O52       1.0  0.20418999999999993  0.6300500000000001  0.029359999999999994  1.0000
  O   O53       1.0  0.031729999999999856  0.6838900000000002  0.95089  1.0000
  O   O54       1.0  0.19753  0.53339  0.9578199999999998  1.0000
  O   O55       1.0  0.9125  0.64326  0.66075  1.0000
  O   O56       1.0  0.77603  0.66767  0.5611099999999998  1.0000
  O   O57       1.0  0.9102100000000001  0.52851  0.61904  1.0000
  O   O58       1.0  0.66567  0.6157400000000002  0.5762  1.0000
  O   O59       1.0  0.6912  0.5220200000000002  0.47055  1.0000
  O   O60       1.0  0.8521500000000001  0.6160900000000001  0.4751499999999999  1.0000
  O   O61       1.0  0.23289000000000004  0.4706  0.63019  1.0000
  O   O62       1.0  0.98248  0.54919  0.68397  1.0000
  O   O63       1.0  0.15541000000000005  0.54239  0.5334499999999999  1.0000
  O   O64       1.0  0.21591999999999986  0.8567300000000002  0.83901  1.0000
  O   O65       1.0  0.0035800000000000185  0.83236  0.93771  1.0000
  O   O66       1.0  0.05858000000000004  0.9715300000000001  0.88129  1.0000
  O   O67       1.0  0.85638  0.8842300000000002  0.9233099999999999  1.0000
  O   O68       1.0  0.6831599999999999  0.9777700000000003  0.0293  1.0000
  O   O69       1.0  0.94282  0.8835400000000002  0.02438999999999999  1.0000
  O   O70       1.0  0.3310500000000002  0.03133  0.8701699999999998  1.0000
  O   O71       1.0  0.21605000000000005  0.95099  0.81619  1.0000
  O   O72       1.0  0.23222999999999983  0.9576100000000002  0.9666699999999998  1.0000
