data_image0
_chemical_formula_structural       Eu8H288C318N48O144
_chemical_formula_sum              "Eu8 H288 C318 N48 O144"
_cell_length_a       23.69566
_cell_length_b       23.69189
_cell_length_c       23.70956
_cell_angle_alpha    109.49355
_cell_angle_beta     109.51726
_cell_angle_gamma    109.47112

_space_group_name_H-M_alt    "P 1"
_space_group_IT_number       1

loop_
  _space_group_symop_operation_xyz
  'x, y, z'

loop_
  _atom_site_type_symbol
  _atom_site_label
  _atom_site_symmetry_multiplicity
  _atom_site_fract_x
  _atom_site_fract_y
  _atom_site_fract_z
  _atom_site_occupancy
  Eu  Eu1       1.0  0.050640000000000025  0.4999800000000001  0.4999100000000001  1.0000
  Eu  Eu2       1.0  0.44941  0.94945  0.44942000000000004  1.0000
  Eu  Eu3       1.0  0.50048  0.55274  0.0003900000000000001  1.0000
  Eu  Eu4       1.0  7.496549323379262e-17  0.9998800000000001  0.050670000000000014  1.0000
  Eu  Eu5       1.0  0.94947  0.4494700000000001  0.94944  1.0000
  Eu  Eu6       1.0  0.55076  0.49989000000000006  0.49992  1.0000
  Eu  Eu7       1.0  0.49923  0.05210000000000001  0.99941  1.0000
  Eu  Eu8       1.0  0.9997999999999999  0.9998400000000001  0.55062  1.0000
  H   H1        1.0  0.8146499999999999  0.30734000000000006  0.4634  1.0000
  H   H2        1.0  0.77557  0.15032  0.48091  1.0000
  H   H3        1.0  0.84032  0.14514000000000002  0.46127000000000007  1.0000
  H   H4        1.0  0.8850100000000001  0.20461000000000001  0.57627  1.0000
  H   H5        1.0  0.9899100000000002  0.28726  0.69042  1.0000
  H   H6        1.0  0.06332000000000011  0.40803000000000017  0.7193200000000002  1.0000
  H   H7        1.0  0.028530000000000028  0.44422  0.63224  1.0000
  H   H8        1.0  0.81042  0.4126100000000001  0.44688  1.0000
  H   H9        1.0  0.87001  0.40623  0.41909  1.0000
  H   H10       1.0  0.79738  0.26223000000000013  0.2895100000000001  1.0000
  H   H11       1.0  0.6605  0.19387000000000004  0.19071000000000002  1.0000
  H   H12       1.0  0.60266  0.25667  0.25331  1.0000
  H   H13       1.0  0.6854800000000001  0.14827  0.49257  1.0000
  H   H14       1.0  0.72447  0.20516000000000012  0.3752600000000001  1.0000
  H   H15       1.0  0.65955  0.12062000000000005  0.30511000000000005  1.0000
  H   H16       1.0  0.6154  0.19133000000000006  0.3202300000000001  1.0000
  H   H17       1.0  0.51084  0.20114000000000004  0.29818  1.0000
  H   H18       1.0  0.43756000000000006  0.15695000000000006  0.34561000000000003  1.0000
  H   H19       1.0  0.47194  0.10423000000000007  0.41627000000000003  1.0000
  H   H20       1.0  0.68934  0.13599  0.60205  1.0000
  H   H21       1.0  0.6300600000000001  0.04853000000000003  0.53594  1.0000
  H   H22       1.0  0.70354  0.9919600000000001  0.46568  1.0000
  H   H23       1.0  0.84059  0.031060000000000046  0.5351300000000001  1.0000
  H   H24       1.0  0.89776  0.15201000000000012  0.6551800000000002  1.0000
  H   H25       1.0  0.3445  0.3503900000000001  0.03604000000000001  1.0000
  H   H26       1.0  0.16967  0.29484  0.019210000000000005  1.0000
  H   H27       1.0  0.18429000000000004  0.37936000000000003  0.03893  1.0000
  H   H28       1.0  0.1287300000000001  0.30867000000000017  0.9241500000000001  1.0000
  H   H29       1.0  0.09702000000000001  0.2988400000000001  0.80987  1.0000
  H   H30       1.0  0.18887000000000007  0.34350000000000014  0.78115  1.0000
  H   H31       1.0  0.31238  0.39695  0.86861  1.0000
  H   H32       1.0  0.46760999999999997  0.36578000000000005  0.05451000000000001  1.0000
  H   H33       1.0  0.48743  0.45286  0.08265000000000002  1.0000
  H   H34       1.0  0.47472  0.50892  0.21261  1.0000
  H   H35       1.0  0.50474  0.46948000000000006  0.3101900000000001  1.0000
  H   H36       1.0  0.50273  0.34806  0.24563  1.0000
  H   H37       1.0  0.15558  0.19279  0.007240000000000001  1.0000
  H   H38       1.0  0.33032  0.34969  0.12524  1.0000
  H   H39       1.0  0.31587  0.35492  0.19520000000000004  1.0000
  H   H40       1.0  0.37149  0.29573  0.18067000000000003  1.0000
  H   H41       1.0  0.40309  0.21328000000000005  0.20299000000000006  1.0000
  H   H42       1.0  0.31127  0.09226000000000001  0.15497  1.0000
  H   H43       1.0  0.18780999999999998  0.055720000000000026  0.08369000000000003  1.0000
  H   H44       1.0  0.03344000000000004  0.08684000000000004  0.89798  1.0000
  H   H45       1.0  0.012500000000000008  0.09407000000000003  0.96428  1.0000
  H   H46       1.0  0.025889999999999996  0.23765  0.03406  1.0000
  H   H47       1.0  0.99544  0.3051500000000001  0.9646900000000003  1.0000
  H   H48       1.0  0.99624  0.2421000000000001  0.84476  1.0000
  H   H49       1.0  0.4926499999999999  0.1854600000000001  0.6483000000000001  1.0000
  H   H50       1.0  0.37485999999999997  0.22428000000000003  0.70487  1.0000
  H   H51       1.0  0.30472999999999995  0.15934999999999996  0.62031  1.0000
  H   H52       1.0  0.32016  0.11532000000000006  0.69132  1.0000
  H   H53       1.0  0.29845000000000005  0.010950000000000066  0.7013600000000001  1.0000
  H   H54       1.0  0.34581000000000023  0.9375700000000003  0.6569600000000002  1.0000
  H   H55       1.0  0.41642000000000007  0.9719600000000003  0.6043  1.0000
  H   H56       1.0  0.6020400000000001  0.1891600000000001  0.6359100000000001  1.0000
  H   H57       1.0  0.53588  0.1299  0.54847  1.0000
  H   H58       1.0  0.4656600000000001  0.20349000000000006  0.49196000000000006  1.0000
  H   H59       1.0  0.53516  0.34054000000000006  0.5311  1.0000
  H   H60       1.0  0.65531  0.3976200000000001  0.65191  1.0000
  H   H61       1.0  0.46410000000000007  0.31438000000000005  0.8087200000000001  1.0000
  H   H62       1.0  0.4806800000000001  0.2752800000000001  0.6499300000000001  1.0000
  H   H63       1.0  0.4613400000000001  0.3405500000000001  0.64587  1.0000
  H   H64       1.0  0.5764100000000001  0.3838300000000003  0.7050700000000002  1.0000
  H   H65       1.0  0.69018  0.48937000000000014  0.78745  1.0000
  H   H66       1.0  0.71848  0.5635000000000001  0.9077  1.0000
  H   H67       1.0  0.63099  0.52948  0.94346  1.0000
  H   H68       1.0  0.44626  0.3117600000000001  0.91356  1.0000
  H   H69       1.0  0.41801000000000016  0.37070000000000025  0.9053900000000003  1.0000
  H   H70       1.0  0.28823999999999994  0.29676  0.76226  1.0000
  H   H71       1.0  0.1904099999999999  0.15955  0.69424  1.0000
  H   H72       1.0  0.25461000000000006  0.1026300000000001  0.7571200000000001  1.0000
  H   H73       1.0  0.007320000000000027  0.65557  0.6928  1.0000
  H   H74       1.0  0.12545000000000012  0.8303900000000002  0.8496100000000001  1.0000
  H   H75       1.0  0.19528000000000004  0.81569  0.85472  1.0000
  H   H76       1.0  0.18093000000000004  0.87138  0.7957800000000002  1.0000
  H   H77       1.0  0.20329000000000003  0.9031  0.7135300000000001  1.0000
  H   H78       1.0  0.15511000000000008  0.8112800000000002  0.59244  1.0000
  H   H79       1.0  0.08370000000000004  0.6878500000000001  0.55578  1.0000
  H   H80       1.0  0.89796  0.53335  0.58683  1.0000
  H   H81       1.0  0.9643899999999999  0.5124700000000001  0.5942500000000001  1.0000
  H   H82       1.0  0.0341000000000001  0.5259300000000001  0.7377300000000002  1.0000
  H   H83       1.0  0.96467  0.4957000000000001  0.80522  1.0000
  H   H84       1.0  0.8447300000000001  0.49662000000000006  0.74211  1.0000
  H   H85       1.0  0.03765000000000002  0.8444  0.85224  1.0000
  H   H86       1.0  0.01927000000000002  0.6696  0.79496  1.0000
  H   H87       1.0  0.0391900000000001  0.6843900000000002  0.87951  1.0000
  H   H88       1.0  0.92412  0.62862  0.80903  1.0000
  H   H89       1.0  0.80998  0.5969400000000001  0.79961  1.0000
  H   H90       1.0  0.7809800000000002  0.6888000000000001  0.8437  1.0000
  H   H91       1.0  0.86811  0.8122000000000001  0.8961000000000001  1.0000
  H   H92       1.0  0.05356000000000008  0.9665500000000001  0.8650200000000001  1.0000
  H   H93       1.0  0.08235000000000006  0.9875500000000003  0.95238  1.0000
  H   H94       1.0  0.21249  0.97418  0.00802  1.0000
  H   H95       1.0  0.30962  0.003699999999999979  0.96793  1.0000
  H   H96       1.0  0.24487  0.0024800000000000295  0.84712  1.0000
  H   H97       1.0  0.69238  0.50761  0.15442000000000006  1.0000
  H   H98       1.0  0.8492199999999999  0.6249300000000002  0.32993  1.0000
  H   H99       1.0  0.8545399999999999  0.69489  0.3154  1.0000
  H   H100      1.0  0.7952700000000001  0.68  0.3711800000000001  1.0000
  H   H101      1.0  0.7127599999999998  0.7021100000000001  0.4028400000000001  1.0000
  H   H102      1.0  0.5919300000000001  0.65468  0.31101  1.0000
  H   H103      1.0  0.55553  0.5839800000000002  0.18756000000000003  1.0000
  H   H104      1.0  0.58574  0.39933  0.03136  1.0000
  H   H105      1.0  0.59522  0.4668500000000001  0.01185  1.0000
  H   H106      1.0  0.73757  0.53427  0.02444  1.0000
  H   H107      1.0  0.80529  0.4645300000000001  0.99538  1.0000
  H   H108      1.0  0.74191  0.34518000000000004  0.99708  1.0000
  H   H109      1.0  0.8519300000000001  0.5372500000000001  0.3440700000000001  1.0000
  H   H110      1.0  0.7944799999999999  0.51873  0.16945  1.0000
  H   H111      1.0  0.8789900000000002  0.5385500000000001  0.18392  1.0000
  H   H112      1.0  0.80863  0.42365  0.12846  1.0000
  H   H113      1.0  0.7993  0.30954  0.09681000000000002  1.0000
  H   H114      1.0  0.8435399999999998  0.28056  0.18864  1.0000
  H   H115      1.0  0.8959599999999999  0.36768000000000006  0.31197000000000014  1.0000
  H   H116      1.0  0.8641900000000003  0.5532400000000001  0.4658100000000001  1.0000
  H   H117      1.0  0.95168  0.58161  0.48728  1.0000
  H   H118      1.0  0.00825000000000009  0.7117100000000001  0.4739100000000001  1.0000
  H   H119      1.0  0.9693300000000001  0.8097500000000002  0.50432  1.0000
  H   H120      1.0  0.84833  0.74577  0.50311  1.0000
  H   H121      1.0  0.6478200000000001  0.99231  0.6853500000000001  1.0000
  H   H122      1.0  0.70536  0.87535  0.72452  1.0000
  H   H123      1.0  0.62092  0.8049400000000003  0.6597000000000001  1.0000
  H   H124      1.0  0.69123  0.8199300000000002  0.61525  1.0000
  H   H125      1.0  0.7010700000000002  0.7980000000000002  0.51084  1.0000
  H   H126      1.0  0.6569800000000001  0.8456200000000001  0.43768000000000007  1.0000
  H   H127      1.0  0.60425  0.9163  0.47202000000000005  1.0000
  H   H128      1.0  0.63482  0.10160000000000007  0.6883300000000001  1.0000
  H   H129      1.0  0.54749  0.034980000000000025  0.62962  1.0000
  H   H130      1.0  0.49269999999999997  0.9653700000000001  0.70442  1.0000
  H   H131      1.0  0.53322  0.03507999999999999  0.84179  1.0000
  H   H132      1.0  0.6529600000000001  0.15594000000000008  0.8975500000000001  1.0000
  H   H133      1.0  0.8074  0.9632200000000001  0.81459  1.0000
  H   H134      1.0  0.6503700000000001  0.9808900000000003  0.7756400000000002  1.0000
  H   H135      1.0  0.6453900000000001  0.9611000000000001  0.8403400000000001  1.0000
  H   H136      1.0  0.7047400000000001  0.07618000000000003  0.88498  1.0000
  H   H137      1.0  0.78727  0.19021000000000007  0.9900900000000001  1.0000
  H   H138      1.0  0.90805  0.21906  0.06350000000000001  1.0000
  H   H139      1.0  0.94434  0.13206  0.028500000000000004  1.0000
  H   H140      1.0  0.9128900000000003  0.9466600000000003  0.8107400000000002  1.0000
  H   H141      1.0  0.9060100000000002  0.9186200000000002  0.8700000000000001  1.0000
  H   H142      1.0  0.76235  0.78869  0.7967400000000001  1.0000
  H   H143      1.0  0.69435  0.6903600000000001  0.6598300000000001  1.0000
  H   H144      1.0  0.7569700000000001  0.75388  0.60251  1.0000
  H   H145      1.0  0.18553000000000003  0.49263  0.14836000000000002  1.0000
  H   H146      1.0  0.22461000000000006  0.3752800000000001  0.20534  1.0000
  H   H147      1.0  0.15972000000000003  0.30499000000000004  0.12091000000000003  1.0000
  H   H148      1.0  0.11524000000000002  0.31987  0.1911  1.0000
  H   H149      1.0  0.010710000000000025  0.29786  0.20080000000000006  1.0000
  H   H150      1.0  0.93751  0.34551  0.15678  1.0000
  H   H151      1.0  0.9719799999999998  0.41636000000000006  0.10431  1.0000
  H   H152      1.0  0.18964  0.60231  0.13643  1.0000
  H   H153      1.0  0.13002000000000002  0.53637  0.04896  1.0000
  H   H154      1.0  0.20295  0.46501  0.99225  1.0000
  H   H155      1.0  0.33988999999999997  0.53392  0.03079000000000001  1.0000
  H   H156      1.0  0.39748000000000006  0.65478  0.15106000000000003  1.0000
  H   H157      1.0  0.31466000000000005  0.4635300000000001  0.30743  1.0000
  H   H158      1.0  0.27565000000000006  0.4809  0.15038000000000004  1.0000
  H   H159      1.0  0.34046  0.46112000000000003  0.14543000000000003  1.0000
  H   H160      1.0  0.3848  0.5764000000000001  0.20482  1.0000
  H   H161      1.0  0.4898  0.69059  0.28749  1.0000
  H   H162      1.0  0.5633  0.71937  0.40813  1.0000
  H   H163      1.0  0.52855  0.6321600000000002  0.44422  1.0000
  H   H164      1.0  0.31071000000000004  0.4467800000000001  0.41265  1.0000
  H   H165      1.0  0.37000000000000005  0.41869000000000006  0.40579  1.0000
  H   H166      1.0  0.29685000000000006  0.28868000000000005  0.26238000000000006  1.0000
  H   H167      1.0  0.15987  0.19036  0.19444000000000006  1.0000
  H   H168      1.0  0.10240000000000006  0.25407000000000013  0.25671000000000005  1.0000
  H   H169      1.0  0.65513  0.005549999999999988  0.1912  1.0000
  H   H170      1.0  0.83008  0.12495  0.34955  1.0000
  H   H171      1.0  0.81557  0.19492000000000007  0.35481  1.0000
  H   H172      1.0  0.8712  0.17975  0.29561  1.0000
  H   H173      1.0  0.9028499999999999  0.20169000000000006  0.21308000000000002  1.0000
  H   H174      1.0  0.811  0.15445000000000006  0.09240000000000001  1.0000
  H   H175      1.0  0.6874400000000002  0.0844  0.05616000000000001  1.0000
  H   H176      1.0  0.53181  0.89801  0.08634  1.0000
  H   H177      1.0  0.51234  0.9654999999999999  0.09507  1.0000
  H   H178      1.0  0.52516  0.033970000000000014  0.23779000000000003  1.0000
  H   H179      1.0  0.4954799999999999  0.96445  0.30538  1.0000
  H   H180      1.0  0.49733  0.84501  0.24256  1.0000
  H   H181      1.0  0.8442499999999998  0.03732  0.35193  1.0000
  H   H182      1.0  0.66952  0.019019999999999995  0.29489  1.0000
  H   H183      1.0  0.68411  0.03874000000000004  0.37937  1.0000
  H   H184      1.0  0.6285900000000001  0.9240600000000001  0.30933000000000005  1.0000
  H   H185      1.0  0.59692  0.80999  0.30005  1.0000
  H   H186      1.0  0.68869  0.78078  0.34373  1.0000
  H   H187      1.0  0.8120800000000001  0.8677100000000002  0.39585  1.0000
  H   H188      1.0  0.9660299999999999  0.053239999999999996  0.36425  1.0000
  H   H189      1.0  0.9874599999999999  0.08148  0.45166  1.0000
  H   H190      1.0  0.9738599999999998  0.21163  0.50819  1.0000
  H   H191      1.0  0.004570000000000003  0.30979  0.46956  1.0000
  H   H192      1.0  0.003940000000000037  0.24608000000000008  0.34889000000000003  1.0000
  H   H193      1.0  0.50684  0.6924  0.65549  1.0000
  H   H194      1.0  0.6254000000000001  0.8497400000000003  0.83028  1.0000
  H   H195      1.0  0.6953700000000002  0.8549200000000005  0.8157700000000001  1.0000
  H   H196      1.0  0.6801499999999999  0.79551  0.8716300000000001  1.0000
  H   H197      1.0  0.7020300000000002  0.7128100000000003  0.90316  1.0000
  H   H198      1.0  0.65461  0.59204  0.81116  1.0000
  H   H199      1.0  0.58384  0.55581  0.68779  1.0000
  H   H200      1.0  0.3980200000000001  0.5866900000000003  0.5332700000000002  1.0000
  H   H201      1.0  0.46452000000000004  0.5941200000000001  0.51254  1.0000
  H   H202      1.0  0.5341800000000001  0.7376300000000001  0.5259600000000001  1.0000
  H   H203      1.0  0.46478000000000014  0.8052100000000002  0.49566000000000004  1.0000
  H   H204      1.0  0.3447799999999999  0.7421200000000002  0.49635000000000007  1.0000
  H   H205      1.0  0.5363400000000001  0.8507500000000001  0.8449000000000001  1.0000
  H   H206      1.0  0.5192  0.7947100000000001  0.66967  1.0000
  H   H207      1.0  0.53874  0.87925  0.6844  1.0000
  H   H208      1.0  0.4238900000000001  0.80784  0.62872  1.0000
  H   H209      1.0  0.30994  0.79897  0.59705  1.0000
  H   H210      1.0  0.28146  0.84446  0.68884  1.0000
  H   H211      1.0  0.3688300000000002  0.8980600000000004  0.8122400000000002  1.0000
  H   H212      1.0  0.5539300000000001  0.8660900000000002  0.9676600000000001  1.0000
  H   H213      1.0  0.58232  0.95325  0.9876  1.0000
  H   H214      1.0  0.7120399999999999  0.008620000000000067  0.9740900000000002  1.0000
  H   H215      1.0  0.80971  0.9691800000000003  0.004210000000000001  1.0000
  H   H216      1.0  0.74548  0.84845  0.0035  1.0000
  H   H217      1.0  0.9924300000000001  0.6481700000000002  0.18549  1.0000
  H   H218      1.0  0.8747299999999999  0.70488  0.22420000000000007  1.0000
  H   H219      1.0  0.8047  0.6203200000000001  0.15924000000000002  1.0000
  H   H220      1.0  0.81937  0.6904900000000002  0.1149  1.0000
  H   H221      1.0  0.79724  0.7002500000000002  0.01046  1.0000
  H   H222      1.0  0.84531  0.65666  0.93754  1.0000
  H   H223      1.0  0.9164  0.60435  0.97215  1.0000
  H   H224      1.0  0.10205  0.6359  0.18932  1.0000
  H   H225      1.0  0.035860000000000065  0.5484400000000001  0.13007000000000002  1.0000
  H   H226      1.0  0.96571  0.4919800000000001  0.20365  1.0000
  H   H227      1.0  0.035239999999999994  0.53123  0.34066  1.0000
  H   H228      1.0  0.15534  0.65213  0.39768  1.0000
  H   H229      1.0  0.96301  0.80719  0.31442000000000003  1.0000
  H   H230      1.0  0.9806000000000001  0.6500500000000002  0.27554  1.0000
  H   H231      1.0  0.96079  0.64504  0.34022  1.0000
  H   H232      1.0  0.0761  0.70458  0.38481  1.0000
  H   H233      1.0  0.19023  0.78732  0.48978000000000005  1.0000
  H   H234      1.0  0.21897000000000003  0.9080600000000001  0.56312  1.0000
  H   H235      1.0  0.13166000000000014  0.9440400000000002  0.5282100000000002  1.0000
  H   H236      1.0  0.94636  0.91289  0.31104  1.0000
  H   H237      1.0  0.91783  0.9051600000000001  0.36975  1.0000
  H   H238      1.0  0.78783  0.7617600000000002  0.2956600000000001  1.0000
  H   H239      1.0  0.6903599999999999  0.6937400000000001  0.15839000000000006  1.0000
  H   H240      1.0  0.75481  0.75678  0.10186000000000003  1.0000
  H   H241      1.0  0.30782000000000004  0.81552  0.9626800000000001  1.0000
  H   H242      1.0  0.15075000000000002  0.77585  0.9808700000000001  1.0000
  H   H243      1.0  0.14556000000000022  0.8405700000000005  0.9611300000000003  1.0000
  H   H244      1.0  0.20502000000000006  0.8849000000000001  0.07624000000000002  1.0000
  H   H245      1.0  0.28767  0.98965  0.1905  1.0000
  H   H246      1.0  0.4083600000000001  0.06334000000000002  0.21942000000000006  1.0000
  H   H247      1.0  0.44444  0.02899  0.13215  1.0000
  H   H248      1.0  0.41404  0.8136  0.9458400000000001  1.0000
  H   H249      1.0  0.40464000000000006  0.87171  0.91691  1.0000
  H   H250      1.0  0.26242000000000004  0.7970600000000001  0.78718  1.0000
  H   H251      1.0  0.19443000000000013  0.6595600000000001  0.6901100000000001  1.0000
  H   H252      1.0  0.25739  0.60328  0.75514  1.0000
  H   H253      1.0  0.14833000000000013  0.6854900000000002  0.9923900000000002  1.0000
  H   H254      1.0  0.20553000000000013  0.7246200000000003  0.8753900000000002  1.0000
  H   H255      1.0  0.12107000000000016  0.6597900000000002  0.8050400000000002  1.0000
  H   H256      1.0  0.1914900000000001  0.6153800000000001  0.8201900000000002  1.0000
  H   H257      1.0  0.2011300000000002  0.5107700000000001  0.7981000000000003  1.0000
  H   H258      1.0  0.15689000000000008  0.43747000000000014  0.84559  1.0000
  H   H259      1.0  0.10430000000000002  0.472  0.9163  1.0000
  H   H260      1.0  0.13617  0.68939  0.10194000000000003  1.0000
  H   H261      1.0  0.04867  0.63018  0.035890000000000005  1.0000
  H   H262      1.0  0.992  0.7036400000000002  0.9657500000000001  1.0000
  H   H263      1.0  0.031189999999999985  0.84072  0.03521  1.0000
  H   H264      1.0  0.15230000000000007  0.8978800000000001  0.15510000000000004  1.0000
  H   H265      1.0  0.35254  0.34462000000000004  0.53771  1.0000
  H   H266      1.0  0.29469999999999996  0.16972  0.51885  1.0000
  H   H267      1.0  0.37916  0.18401  0.53867  1.0000
  H   H268      1.0  0.30896999999999997  0.12858000000000003  0.42389000000000004  1.0000
  H   H269      1.0  0.29938000000000003  0.09683000000000005  0.30974000000000007  1.0000
  H   H270      1.0  0.34345999999999993  0.18862000000000007  0.28073  1.0000
  H   H271      1.0  0.3960000000000002  0.31206000000000006  0.36779000000000006  1.0000
  H   H272      1.0  0.36561  0.46694000000000013  0.5535400000000001  1.0000
  H   H273      1.0  0.45292999999999994  0.48762000000000005  0.5823200000000002  1.0000
  H   H274      1.0  0.5075700000000001  0.4728900000000001  0.7118600000000002  1.0000
  H   H275      1.0  0.46725000000000017  0.5021300000000002  0.8088100000000003  1.0000
  H   H276      1.0  0.34763  0.50331  0.74477  1.0000
  H   H277      1.0  0.19258  0.15541  0.50711  1.0000
  H   H278      1.0  0.34948  0.33017  0.62501  1.0000
  H   H279      1.0  0.3548900000000001  0.31569000000000014  0.6949700000000001  1.0000
  H   H280      1.0  0.29565  0.37138000000000004  0.68045  1.0000
  H   H281      1.0  0.21327  0.40303  0.70287  1.0000
  H   H282      1.0  0.09235000000000003  0.31118  0.65514  1.0000
  H   H283      1.0  0.05574000000000004  0.18774000000000002  0.5838400000000001  1.0000
  H   H284      1.0  0.08664000000000004  0.033180000000000015  0.3978900000000001  1.0000
  H   H285      1.0  0.09403000000000002  0.012350000000000005  0.4643  1.0000
  H   H286      1.0  0.23757000000000003  0.025770000000000046  0.5340200000000002  1.0000
  H   H287      1.0  0.30527  0.99568  0.46478  1.0000
  H   H288      1.0  0.24225000000000008  0.9966500000000003  0.34493  1.0000
  C   C1        1.0  0.80202  0.16223000000000004  0.45272  1.0000
  C   C2        1.0  0.89512  0.2786600000000001  0.54082  1.0000
  C   C3        1.0  0.9157799999999999  0.25716000000000006  0.5884  1.0000
  C   C4        1.0  0.9757300000000002  0.3039600000000001  0.6529100000000002  1.0000
  C   C5        1.0  0.016690000000000028  0.37145000000000006  0.66918  1.0000
  C   C6        1.0  0.9971400000000001  0.39206000000000024  0.6208300000000002  1.0000
  C   C7        1.0  0.9356800000000001  0.34705  0.55666  1.0000
  C   C8        1.0  0.91718  0.3761300000000001  0.51122  1.0000
  C   C9        1.0  0.82557  0.37655000000000005  0.42227000000000003  1.0000
  C   C10       1.0  0.7656999999999999  0.32164  0.3524  1.0000
  C   C11       1.0  0.7572499999999999  0.2717300000000001  0.29477000000000003  1.0000
  C   C12       1.0  0.68595  0.23580000000000007  0.24315000000000003  1.0000
  C   C13       1.0  0.6550599999999999  0.26591  0.27219  1.0000
  C   C14       1.0  0.69788  0.15041  0.36051  1.0000
  C   C15       1.0  0.60499  0.14555000000000007  0.38388  1.0000
  C   C16       1.0  0.58457  0.17271000000000003  0.3419  1.0000
  C   C17       1.0  0.52484  0.17759000000000003  0.32888  1.0000
  C   C18       1.0  0.48392999999999997  0.15304000000000006  0.35543000000000013  1.0000
  C   C19       1.0  0.50327  0.12405000000000002  0.39544  1.0000
  C   C20       1.0  0.56449  0.12097000000000001  0.41173  1.0000
  C   C21       1.0  0.583  0.09405000000000001  0.45931000000000005  1.0000
  C   C22       1.0  0.67449  0.09634  0.55093  1.0000
  C   C23       1.0  0.7346  0.08677  0.55633  1.0000
  C   C24       1.0  0.74342  0.03767000000000012  0.5152900000000002  1.0000
  C   C25       1.0  0.81484  0.05789  0.55106  1.0000
  C   C26       1.0  0.8454199999999998  0.11802  0.61184  1.0000
  C   C27       1.0  0.20985000000000004  0.34956000000000004  0.04752  1.0000
  C   C28       1.0  0.23833000000000004  0.3544700000000001  0.9597300000000001  1.0000
  C   C29       1.0  0.1691300000000001  0.32724000000000014  0.9120200000000002  1.0000
  C   C30       1.0  0.15132  0.32244000000000006  0.8474900000000001  1.0000
  C   C31       1.0  0.20255000000000017  0.3472600000000002  0.8313500000000003  1.0000
  C   C32       1.0  0.2716600000000001  0.3765700000000002  0.8799100000000002  1.0000
  C   C33       1.0  0.29090000000000005  0.37944999999999995  0.9440800000000001  1.0000
  C   C34       1.0  0.36559000000000014  0.4071500000000001  0.9900900000000001  1.0000
  C   C35       1.0  0.4551  0.40463000000000005  0.07888  1.0000
  C   C36       1.0  0.46962  0.41382  0.14833  1.0000
  C   C37       1.0  0.47815  0.46299000000000007  0.20648  1.0000
  C   C38       1.0  0.49352  0.4425500000000001  0.25749  1.0000
  C   C39       1.0  0.49352  0.38216000000000006  0.22749  1.0000
  C   C40       1.0  0.29023  0.33777000000000007  0.13980000000000006  1.0000
  C   C41       1.0  0.26189  0.22142000000000003  0.11641000000000001  1.0000
  C   C42       1.0  0.33105  0.24312  0.15874  1.0000
  C   C43       1.0  0.34883000000000014  0.19641  0.17189000000000004  1.0000
  C   C44       1.0  0.29761  0.12880000000000003  0.14504  1.0000
  C   C45       1.0  0.22857000000000002  0.10798000000000003  0.10469  1.0000
  C   C46       1.0  0.20932000000000003  0.15295  0.08836  1.0000
  C   C47       1.0  0.13475  0.12382000000000003  0.04076000000000001  1.0000
  C   C48       1.0  0.045150000000000065  0.12336000000000007  0.9491000000000002  1.0000
  C   C49       1.0  0.030080000000000065  0.1779900000000001  0.9435800000000001  1.0000
  C   C50       1.0  0.0219700000000001  0.2278700000000001  0.9845200000000001  1.0000
  C   C51       1.0  0.006300000000000008  0.26342000000000004  0.9487500000000001  1.0000
  C   C52       1.0  0.005640000000000051  0.23313000000000003  0.88805  1.0000
  C   C53       1.0  0.36016000000000004  0.19769000000000014  0.6501600000000001  1.0000
  C   C54       1.0  0.38375999999999993  0.10492000000000004  0.64548  1.0000
  C   C55       1.0  0.34190000000000004  0.08453000000000008  0.6727300000000002  1.0000
  C   C56       1.0  0.32904000000000005  0.024870000000000066  0.6777000000000001  1.0000
  C   C57       1.0  0.35559  0.98395  0.6531000000000001  1.0000
  C   C58       1.0  0.3955600000000001  0.0032900000000001374  0.6240900000000003  1.0000
  C   C59       1.0  0.41170000000000007  0.0644600000000001  0.6209400000000003  1.0000
  C   C60       1.0  0.45918999999999993  0.08293  0.59394  1.0000
  C   C61       1.0  0.5509000000000002  0.17435000000000006  0.59625  1.0000
  C   C62       1.0  0.55637  0.23447  0.58666  1.0000
  C   C63       1.0  0.51533  0.24335  0.53762  1.0000
  C   C64       1.0  0.55114  0.31476000000000015  0.5578700000000002  1.0000
  C   C65       1.0  0.6119599999999998  0.3452799999999999  0.61792  1.0000
  C   C66       1.0  0.45262  0.30176  0.66231  1.0000
  C   C67       1.0  0.5405200000000001  0.3945400000000001  0.7787200000000001  1.0000
  C   C68       1.0  0.58826  0.4150200000000001  0.75737  1.0000
  C   C69       1.0  0.65253  0.4753100000000001  0.8040100000000002  1.0000
  C   C70       1.0  0.66843  0.51669  0.87118  1.0000
  C   C71       1.0  0.61988  0.4974  0.89163  1.0000
  C   C72       1.0  0.5559  0.43563000000000013  0.8467400000000003  1.0000
  C   C73       1.0  0.5100600000000001  0.4173600000000001  0.8754900000000001  1.0000
  C   C74       1.0  0.42166000000000003  0.3261800000000002  0.8767200000000003  1.0000
  C   C75       1.0  0.35208000000000017  0.26586000000000015  0.8218200000000002  1.0000
  C   C76       1.0  0.29407000000000005  0.25686000000000003  0.7718400000000001  1.0000
  C   C77       1.0  0.24304000000000006  0.18539000000000005  0.7359900000000001  1.0000
  C   C78       1.0  0.27281  0.15496  0.7662  1.0000
  C   C79       1.0  0.13988000000000014  0.7901700000000002  0.83767  1.0000
  C   C80       1.0  0.11640000000000016  0.7618300000000001  0.7213800000000002  1.0000
  C   C81       1.0  0.15886000000000028  0.8309700000000004  0.7431500000000002  1.0000
  C   C82       1.0  0.17205000000000015  0.8488100000000001  0.6965200000000003  1.0000
  C   C83       1.0  0.14513999999999996  0.79762  0.62892  1.0000
  C   C84       1.0  0.10472000000000001  0.72856  0.60804  1.0000
  C   C85       1.0  0.08833  0.70928  0.65292  1.0000
  C   C86       1.0  0.04069000000000007  0.6346900000000001  0.6237200000000002  1.0000
  C   C87       1.0  0.94914  0.54514  0.62341  1.0000
  C   C88       1.0  0.94364  0.5302000000000001  0.67807  1.0000
  C   C89       1.0  0.98455  0.52209  0.72797  1.0000
  C   C90       1.0  0.9487400000000001  0.5065400000000002  0.7634900000000002  1.0000
  C   C91       1.0  0.8880299999999999  0.50592  0.73315  1.0000
  C   C92       1.0  0.047620000000000176  0.7098600000000003  0.8496300000000002  1.0000
  C   C93       1.0  0.95963  0.7382000000000001  0.8546100000000001  1.0000
  C   C94       1.0  0.9120300000000001  0.66904  0.82764  1.0000
  C   C95       1.0  0.8474900000000001  0.6512300000000001  0.8229500000000001  1.0000
  C   C96       1.0  0.8312100000000001  0.7024300000000001  0.8474800000000001  1.0000
  C   C97       1.0  0.87956  0.77146  0.87629  1.0000
  C   C98       1.0  0.94377  0.7907400000000002  0.8792  1.0000
  C   C99       1.0  0.9891600000000002  0.8653000000000002  0.9061300000000001  1.0000
  C   C100      1.0  0.07856000000000007  0.9548000000000001  0.9043100000000001  1.0000
  C   C101      1.0  0.14802000000000012  0.9695500000000002  0.9133200000000002  1.0000
  C   C102      1.0  0.20624000000000015  0.9777200000000003  0.9621500000000001  1.0000
  C   C103      1.0  0.25699000000000016  0.9929200000000004  0.9414500000000001  1.0000
  C   C104      1.0  0.22688999999999998  0.99329  0.88131  1.0000
  C   C105      1.0  0.83734  0.6394500000000001  0.28979  1.0000
  C   C106      1.0  0.72103  0.61611  0.26157  1.0000
  C   C107      1.0  0.74267  0.6581500000000001  0.33076000000000005  1.0000
  C   C108      1.0  0.6959500000000001  0.6712400000000001  0.3485600000000001  1.0000
  C   C109      1.0  0.6284400000000001  0.6447300000000001  0.29736  1.0000
  C   C110      1.0  0.6077  0.60471  0.22832000000000002  1.0000
  C   C111      1.0  0.65263  0.58838  0.20904000000000003  1.0000
  C   C112      1.0  0.62357  0.54143  0.13433000000000006  1.0000
  C   C113      1.0  0.62325  0.45052  0.04403  1.0000
  C   C114      1.0  0.6779500000000002  0.44447  0.029480000000000003  1.0000
  C   C115      1.0  0.72791  0.4849500000000001  0.02117  1.0000
  C   C116      1.0  0.76353  0.44898000000000005  0.006250000000000001  1.0000
  C   C117      1.0  0.73314  0.3886  0.00616  1.0000
  C   C118      1.0  0.8492399999999999  0.54707  0.20953000000000005  1.0000
  C   C119      1.0  0.85439  0.45920000000000005  0.23800000000000004  1.0000
  C   C120      1.0  0.82734  0.41157000000000005  0.16887  1.0000
  C   C121      1.0  0.8226699999999999  0.34704000000000007  0.15108  1.0000
  C   C122      1.0  0.84727  0.33077000000000006  0.20227  1.0000
  C   C123      1.0  0.87612  0.37915  0.27128  1.0000
  C   C124      1.0  0.87905  0.44340000000000007  0.29055  1.0000
  C   C125      1.0  0.9059699999999999  0.4888500000000001  0.36509  1.0000
  C   C126      1.0  0.90383  0.57814  0.45441  1.0000
  C   C127      1.0  0.9133600000000001  0.6478200000000001  0.46937000000000006  1.0000
  C   C128      1.0  0.9625299999999999  0.7058700000000001  0.47767  1.0000
  C   C129      1.0  0.94241  0.75709  0.49329  1.0000
  C   C130      1.0  0.88222  0.7273900000000001  0.49372000000000005  1.0000
  C   C131      1.0  0.6505499999999999  0.8604  0.6979  1.0000
  C   C132      1.0  0.6454900000000001  0.8837  0.60493  1.0000
  C   C133      1.0  0.67264  0.84171  0.5845  1.0000
  C   C134      1.0  0.6775600000000002  0.82875  0.52484  1.0000
  C   C135      1.0  0.6530600000000001  0.8554100000000001  0.48400000000000004  1.0000
  C   C136      1.0  0.6240500000000001  0.8954300000000004  0.5033300000000002  1.0000
  C   C137      1.0  0.62093  0.91164  0.56448  1.0000
  C   C138      1.0  0.5939  0.9591700000000002  0.58288  1.0000
  C   C139      1.0  0.5956000000000001  0.050470000000000015  0.67401  1.0000
  C   C140      1.0  0.5866200000000001  0.05626999999999998  0.7344500000000002  1.0000
  C   C141      1.0  0.53831  0.01519000000000001  0.74395  1.0000
  C   C142      1.0  0.5592  0.051239999999999994  0.81553  1.0000
  C   C143      1.0  0.61881  0.11231  0.84544  1.0000
  C   C144      1.0  0.66239  0.9526500000000001  0.80201  1.0000
  C   C145      1.0  0.77882  0.04072999999999997  0.89508  1.0000
  C   C146      1.0  0.7572800000000002  0.08828000000000004  0.91578  1.0000
  C   C147      1.0  0.8040099999999999  0.1527200000000001  0.9758400000000002  1.0000
  C   C148      1.0  0.87148  0.16896000000000003  0.01681  1.0000
  C   C149      1.0  0.89217  0.12067999999999998  0.99715  1.0000
  C   C150      1.0  0.84723  0.05655999999999999  0.93561  1.0000
  C   C151      1.0  0.87636  0.01115  0.91708  1.0000
  C   C152      1.0  0.87658  0.922  0.8256  1.0000
  C   C153      1.0  0.82173  0.8522400000000001  0.76555  1.0000
  C   C154      1.0  0.77191  0.7943400000000002  0.75681  1.0000
  C   C155      1.0  0.7360900000000002  0.7429600000000002  0.6854800000000001  1.0000
  C   C156      1.0  0.76615  0.7724300000000002  0.6548400000000002  1.0000
  C   C157      1.0  0.19799  0.36044  0.15059  1.0000
  C   C158      1.0  0.10500000000000002  0.3837800000000001  0.14556  1.0000
  C   C159      1.0  0.08451000000000003  0.34170000000000006  0.17259  1.0000
  C   C160      1.0  0.024780000000000003  0.32871  0.17742  1.0000
  C   C161      1.0  0.98391  0.35536  0.15295  1.0000
  C   C162      1.0  0.0033099999999999974  0.39548  0.12408000000000001  1.0000
  C   C163      1.0  0.06454000000000004  0.4117300000000001  0.12104000000000001  1.0000
  C   C164      1.0  0.08301000000000003  0.4593000000000001  0.0941  1.0000
  C   C165      1.0  0.17452000000000006  0.5511400000000001  0.09659000000000002  1.0000
  C   C166      1.0  0.23443000000000003  0.5562800000000001  0.08671  1.0000
  C   C167      1.0  0.24297  0.51479  0.03766  1.0000
  C   C168      1.0  0.31429  0.5503200000000001  0.05754  1.0000
  C   C169      1.0  0.34511000000000003  0.61145  0.11740000000000002  1.0000
  C   C170      1.0  0.3020900000000001  0.45269000000000004  0.1624  1.0000
  C   C171      1.0  0.39509  0.54084  0.27877  1.0000
  C   C172      1.0  0.41567000000000004  0.5884800000000001  0.25731000000000004  1.0000
  C   C173      1.0  0.47565  0.653  0.30411  1.0000
  C   C174      1.0  0.5166800000000001  0.6692100000000001  0.3715200000000001  1.0000
  C   C175      1.0  0.49717  0.62081  0.39209  1.0000
  C   C176      1.0  0.43568999999999997  0.55665  0.34709000000000007  1.0000
  C   C177      1.0  0.41719000000000006  0.5111800000000002  0.3761200000000001  1.0000
  C   C178      1.0  0.32561  0.42212  0.37638  1.0000
  C   C179      1.0  0.26554  0.35236  0.32149  1.0000
  C   C180      1.0  0.25686  0.29439  0.27184  1.0000
  C   C181      1.0  0.18547000000000002  0.24303  0.23600000000000002  1.0000
  C   C182      1.0  0.15477  0.27257  0.26591  1.0000
  C   C183      1.0  0.78995  0.1395  0.33771  1.0000
  C   C184      1.0  0.76154  0.11599000000000002  0.22143000000000002  1.0000
  C   C185      1.0  0.83077  0.15795000000000006  0.24305000000000002  1.0000
  C   C186      1.0  0.8485499999999999  0.17099000000000003  0.19634000000000001  1.0000
  C   C187      1.0  0.79731  0.14454  0.1289  1.0000
  C   C188      1.0  0.72818  0.10474000000000001  0.10821000000000003  1.0000
  C   C189      1.0  0.70894  0.08842000000000003  0.15315000000000004  1.0000
  C   C190      1.0  0.63419  0.04151000000000001  0.12436  1.0000
  C   C191      1.0  0.54454  0.94941  0.12345  1.0000
  C   C192      1.0  0.53004  0.94393  0.17833000000000004  1.0000
  C   C193      1.0  0.5217000000000002  0.98457  0.22812000000000004  1.0000
  C   C194      1.0  0.50651  0.9487400000000002  0.26376  1.0000
  C   C195      1.0  0.5063900000000001  0.8883100000000002  0.23361  1.0000
  C   C196      1.0  0.70967  0.047280000000000065  0.34960000000000013  1.0000
  C   C197      1.0  0.73813  0.9594  0.35463  1.0000
  C   C198      1.0  0.6690000000000002  0.9119000000000002  0.32784  1.0000
  C   C199      1.0  0.65118  0.8474  0.3232  1.0000
  C   C200      1.0  0.70236  0.83101  0.3475200000000001  1.0000
  C   C201      1.0  0.7713899999999999  0.8792600000000002  0.3761500000000001  1.0000
  C   C202      1.0  0.79067  0.9435  0.37909  1.0000
  C   C203      1.0  0.86521  0.9889500000000003  0.4059800000000001  1.0000
  C   C204      1.0  0.9546500000000002  0.0781600000000001  0.4039000000000001  1.0000
  C   C205      1.0  0.9697699999999999  0.1479  0.41355  1.0000
  C   C206      1.0  0.97786  0.20587000000000005  0.46263000000000004  1.0000
  C   C207      1.0  0.9936799999999999  0.2571800000000001  0.44268  1.0000
  C   C208      1.0  0.99441  0.22762  0.38267  1.0000
  C   C209      1.0  0.63994  0.83778  0.79018  1.0000
  C   C210      1.0  0.61639  0.7214400000000001  0.762  1.0000
  C   C211      1.0  0.65834  0.74295  0.83117  1.0000
  C   C212      1.0  0.6713  0.69612  0.84889  1.0000
  C   C213      1.0  0.6447500000000003  0.6286500000000003  0.7976000000000002  1.0000
  C   C214      1.0  0.60467  0.60799  0.72857  1.0000
  C   C215      1.0  0.58847  0.65304  0.70941  1.0000
  C   C216      1.0  0.54108  0.6240000000000001  0.63482  1.0000
  C   C217      1.0  0.4492000000000001  0.6232900000000001  0.5451000000000003  1.0000
  C   C218      1.0  0.44364000000000003  0.67793  0.53006  1.0000
  C   C219      1.0  0.48459  0.72785  0.52203  1.0000
  C   C220      1.0  0.4488100000000001  0.7634300000000003  0.50643  1.0000
  C   C221      1.0  0.3880700000000001  0.7331100000000002  0.5057300000000001  1.0000
  C   C222      1.0  0.5474600000000001  0.8494200000000002  0.7098700000000002  1.0000
  C   C223      1.0  0.45970000000000016  0.8543800000000003  0.7383300000000003  1.0000
  C   C224      1.0  0.41196000000000016  0.82697  0.6691300000000001  1.0000
  C   C225      1.0  0.34757000000000016  0.8226400000000003  0.65133  1.0000
  C   C226      1.0  0.33158  0.84794  0.70253  1.0000
  C   C227      1.0  0.3801  0.8772800000000001  0.77162  1.0000
  C   C228      1.0  0.44417  0.87978  0.79088  1.0000
  C   C229      1.0  0.4900000000000001  0.9073800000000002  0.8655000000000002  1.0000
  C   C230      1.0  0.5786000000000001  0.9049900000000002  0.95535  1.0000
  C   C231      1.0  0.6481200000000003  0.9141200000000003  0.9701000000000001  1.0000
  C   C232      1.0  0.70613  0.96296  0.978  1.0000
  C   C233      1.0  0.7571100000000001  0.9425300000000002  0.99342  1.0000
  C   C234      1.0  0.7273  0.8824900000000001  0.99411  1.0000
  C   C235      1.0  0.86011  0.6501600000000001  0.19766000000000006  1.0000
  C   C236      1.0  0.88364  0.64534  0.10492000000000001  1.0000
  C   C237      1.0  0.8413600000000002  0.6721700000000002  0.08429000000000003  1.0000
  C   C238      1.0  0.8282899999999999  0.67703  0.02459  1.0000
  C   C239      1.0  0.85515  0.65277  0.98389  1.0000
  C   C240      1.0  0.89541  0.62401  0.0033700000000000006  1.0000
  C   C241      1.0  0.91169  0.62093  0.06456  1.0000
  C   C242      1.0  0.9593400000000002  0.5940600000000003  0.08306000000000002  1.0000
  C   C243      1.0  0.050900000000000015  0.59627  0.1745  1.0000
  C   C244      1.0  0.05636000000000004  0.5867200000000001  0.23459000000000002  1.0000
  C   C245      1.0  0.01535000000000002  0.5377  0.24349  1.0000
  C   C246      1.0  0.05118000000000002  0.55799  0.31488  1.0000
  C   C247      1.0  0.11198999999999998  0.61808  0.34537  1.0000
  C   C248      1.0  0.95233  0.66204  0.30187  1.0000
  C   C249      1.0  0.040440000000000094  0.7785000000000002  0.3949000000000001  1.0000
  C   C250      1.0  0.08812000000000005  0.75709  0.4155900000000001  1.0000
  C   C251      1.0  0.15263  0.80394  0.47557  1.0000
  C   C252      1.0  0.16881000000000004  0.8713900000000001  0.51652  1.0000
  C   C253      1.0  0.12037999999999999  0.89192  0.49690000000000006  1.0000
  C   C254      1.0  0.05622  0.84686  0.43543  1.0000
  C   C255      1.0  0.010780000000000074  0.8759500000000001  0.41694000000000003  1.0000
  C   C256      1.0  0.9216000000000002  0.8761900000000002  0.3254800000000001  1.0000
  C   C257      1.0  0.85206  0.8213000000000001  0.26509000000000005  1.0000
  C   C258      1.0  0.79391  0.77138  0.2559  1.0000
  C   C259      1.0  0.74299  0.73557  0.18438  1.0000
  C   C260      1.0  0.77296  0.7657900000000001  0.15413000000000002  1.0000
  C   C261      1.0  0.16265000000000004  0.80226  0.9526400000000002  1.0000
  C   C262      1.0  0.27904000000000007  0.89531  0.04076000000000001  1.0000
  C   C263      1.0  0.25756  0.91575  0.08839000000000001  1.0000
  C   C264      1.0  0.30435  0.97565  0.15295  1.0000
  C   C265      1.0  0.37178999999999995  0.016759999999999994  0.16924  1.0000
  C   C266      1.0  0.39233999999999997  0.99748  0.12082000000000001  1.0000
  C   C267      1.0  0.34736000000000017  0.9361100000000002  0.05659  1.0000
  C   C268      1.0  0.37634  0.9181900000000002  0.01092  1.0000
  C   C269      1.0  0.3766  0.82738  0.92109  1.0000
  C   C270      1.0  0.32179000000000013  0.7666700000000002  0.8517500000000002  1.0000
  C   C271      1.0  0.27193000000000006  0.7572900000000001  0.79346  1.0000
  C   C272      1.0  0.23613000000000003  0.6856500000000001  0.74281  1.0000
  C   C273      1.0  0.2663400000000001  0.6555400000000002  0.7730700000000003  1.0000
  C   C274      1.0  0.15073000000000017  0.6980200000000002  0.8604700000000002  1.0000
  C   C275      1.0  0.14564000000000007  0.6050000000000001  0.8837800000000001  1.0000
  C   C276      1.0  0.17281000000000019  0.5845500000000001  0.8418500000000002  1.0000
  C   C277      1.0  0.17764000000000013  0.5248000000000003  0.8288500000000001  1.0000
  C   C278      1.0  0.15308000000000005  0.48390000000000005  0.8554200000000001  1.0000
  C   C279      1.0  0.12412000000000008  0.5033000000000002  0.8954400000000001  1.0000
  C   C280      1.0  0.12104000000000002  0.56452  0.9116600000000001  1.0000
  C   C281      1.0  0.09412000000000006  0.5830300000000002  0.95923  1.0000
  C   C282      1.0  0.09649000000000005  0.6745700000000001  0.05084000000000002  1.0000
  C   C283      1.0  0.08695999999999997  0.73471  0.05624000000000001  1.0000
  C   C284      1.0  0.03778000000000003  0.7435300000000001  0.015300000000000001  1.0000
  C   C285      1.0  0.058040000000000015  0.81495  0.051070000000000004  1.0000
  C   C286      1.0  0.11828000000000002  0.8455400000000001  0.11176  1.0000
  C   C287      1.0  0.34948  0.20973  0.54721  1.0000
  C   C288      1.0  0.35461000000000004  0.23818000000000009  0.45938000000000007  1.0000
  C   C289      1.0  0.32757  0.16900000000000004  0.41178  1.0000
  C   C290      1.0  0.3227900000000001  0.15113000000000004  0.34725000000000006  1.0000
  C   C291      1.0  0.34730000000000005  0.20232000000000003  0.33094  1.0000
  C   C292      1.0  0.37618999999999997  0.27138000000000007  0.3793000000000001  1.0000
  C   C293      1.0  0.3791999999999999  0.29072000000000003  0.4435200000000001  1.0000
  C   C294      1.0  0.40619000000000005  0.36530000000000007  0.48896000000000006  1.0000
  C   C295      1.0  0.40477  0.45503000000000005  0.57852  1.0000
  C   C296      1.0  0.4137000000000002  0.46978000000000014  0.6479200000000003  1.0000
  C   C297      1.0  0.46201  0.4770800000000001  0.70581  1.0000
  C   C298      1.0  0.44123  0.49232000000000026  0.75653  1.0000
  C   C299      1.0  0.3816400000000001  0.49371000000000026  0.7267400000000003  1.0000
  C   C300      1.0  0.33765  0.29004  0.63955  1.0000
  C   C301      1.0  0.22133999999999998  0.26177  0.6163  1.0000
  C   C302      1.0  0.24305000000000013  0.33095000000000013  0.6585900000000002  1.0000
  C   C303      1.0  0.1964  0.34874  0.67182  1.0000
  C   C304      1.0  0.12884000000000015  0.2975300000000002  0.6451300000000002  1.0000
  C   C305      1.0  0.10798999999999999  0.22847000000000003  0.60477  1.0000
  C   C306      1.0  0.15288  0.2092  0.58833  1.0000
  C   C307      1.0  0.12366000000000005  0.13461000000000006  0.5406600000000001  1.0000
  C   C308      1.0  0.12322  0.044980000000000006  0.44905  1.0000
  C   C309      1.0  0.17793000000000003  0.030060000000000017  0.44359000000000004  1.0000
  C   C310      1.0  0.22785000000000002  0.021980000000000034  0.4845300000000001  1.0000
  C   C311      1.0  0.2635  0.006509999999999988  0.44884  1.0000
  C   C312      1.0  0.23323  0.005930000000000011  0.38817000000000007  1.0000
  C   C313      1.0  0.74989  0.12486000000000005  0.37515  1.0000
  C   C314      1.0  0.24999000000000002  0.37509000000000003  0.12507  1.0000
  C   C315      1.0  0.37495  0.2498  0.62476  1.0000
  C   C316      1.0  0.12520000000000003  0.75006  0.87508  1.0000
  C   C317      1.0  0.8747299999999999  0.62466  0.24969  1.0000
  C   C318      1.0  0.62508  0.8750500000000002  0.7499400000000002  1.0000
  N   N1        1.0  0.8496300000000001  0.3489900000000001  0.46641  1.0000
  N   N2        1.0  0.027179999999999992  0.38762  0.37218  1.0000
  N   N3        1.0  0.6505000000000001  0.11646000000000008  0.49936000000000014  1.0000
  N   N4        1.0  0.4733200000000001  0.84538  0.36089000000000004  1.0000
  N   N5        1.0  0.38316000000000006  0.38335000000000014  0.03382  1.0000
  N   N6        1.0  0.51723  0.65761  0.12887000000000004  1.0000
  N   N7        1.0  0.11698999999999998  0.15109  0.0006000000000000002  1.0000
  N   N8        1.0  0.9845599999999999  0.11227000000000002  0.13969  1.0000
  N   N9        1.0  0.49926  0.15044  0.61632  1.0000
  N   N10       1.0  0.36083  0.97326  0.34530000000000005  1.0000
  N   N11       1.0  0.4662  0.34973  0.84937  1.0000
  N   N12       1.0  0.37387000000000004  0.5293400000000001  0.88674  1.0000
  N   N13       1.0  0.000600000000000049  0.6169800000000001  0.65106  1.0000
  N   N14       1.0  0.13977000000000003  0.4846200000000001  0.61242  1.0000
  N   N15       1.0  0.034350000000000006  0.8829800000000001  0.8839100000000001  1.0000
  N   N16       1.0  0.12785  0.015450000000000002  0.15462  1.0000
  N   N17       1.0  0.65075  0.50132  0.11611000000000003  1.0000
  N   N18       1.0  0.6139700000000002  0.6441500000000001  0.9886700000000003  1.0000
  N   N19       1.0  0.88368  0.53404  0.38269  1.0000
  N   N20       1.0  0.15444000000000002  0.62796  0.51539  1.0000
  N   N21       1.0  0.61607  0.9991000000000001  0.65031  1.0000
  N   N22       1.0  0.34521999999999997  0.86075  0.4731000000000001  1.0000
  N   N23       1.0  0.8490700000000001  0.9662400000000002  0.8495600000000001  1.0000
  N   N24       1.0  0.88757  0.87211  0.02705  1.0000
  N   N25       1.0  0.15052  0.4994200000000001  0.11655000000000001  1.0000
  N   N26       1.0  0.9731799999999999  0.3607900000000001  0.84525  1.0000
  N   N27       1.0  0.34964  0.46641  0.34898  1.0000
  N   N28       1.0  0.5273199999999998  0.37211  0.38763  1.0000
  N   N29       1.0  0.61653  2.999999999999811e-05  0.15044  1.0000
  N   N30       1.0  0.48306  0.14048000000000002  0.11138  1.0000
  N   N31       1.0  0.8828699999999999  0.03413000000000001  0.38373  1.0000
  N   N32       1.0  0.015480000000000051  0.12780000000000005  0.6545800000000002  1.0000
  N   N33       1.0  0.50062  0.651  0.61696  1.0000
  N   N34       1.0  0.6396  0.6123800000000001  0.4845900000000001  1.0000
  N   N35       1.0  0.5340200000000002  0.8838400000000002  0.8833600000000003  1.0000
  N   N36       1.0  0.62596  0.1555  0.01276  1.0000
  N   N37       1.0  0.99929  0.61639  0.15055  1.0000
  N   N38       1.0  0.8604900000000003  0.34503000000000017  0.9728800000000001  1.0000
  N   N39       1.0  0.9659599999999999  0.84877  0.34942  1.0000
  N   N40       1.0  0.8720499999999999  0.8875400000000001  0.52711  1.0000
  N   N41       1.0  0.3493100000000002  0.8508100000000002  0.9657800000000001  1.0000
  N   N42       1.0  0.38532  0.02992  0.87416  1.0000
  N   N43       1.0  0.11652000000000015  0.6505500000000002  0.9992100000000002  1.0000
  N   N44       1.0  0.8455199999999999  0.47349000000000013  0.8609500000000001  1.0000
  N   N45       1.0  0.38416000000000006  0.3831300000000001  0.53426  1.0000
  N   N46       1.0  0.65454  0.51538  0.62784  1.0000
  N   N47       1.0  0.15086000000000005  0.11684000000000008  0.5004600000000001  1.0000
  N   N48       1.0  0.11227000000000002  0.9845200000000001  0.63959  1.0000
  O   O1        1.0  0.9631000000000001  0.42767  0.51736  1.0000
  O   O2        1.0  0.70291  0.31845  0.33923  1.0000
  O   O3        1.0  0.83584  0.23534000000000008  0.47689000000000004  1.0000
  O   O4        1.0  0.99285  0.37473000000000006  0.40294  1.0000
  O   O5        1.0  0.07082000000000002  0.4509200000000001  0.39717  1.0000
  O   O6        1.0  0.01725000000000002  0.34006000000000003  0.3202400000000001  1.0000
  O   O7        1.0  0.53718  0.05460999999999997  0.46526  1.0000
  O   O8        1.0  0.7972600000000002  0.13683000000000015  0.6160500000000002  1.0000
  O   O9        1.0  0.6641  0.14066999999999996  0.39972  1.0000
  O   O10       1.0  0.5075900000000001  0.9104900000000001  0.38226  1.0000
  O   O11       1.0  0.43004000000000003  0.8269200000000001  0.38092  1.0000
  O   O12       1.0  0.4829  0.8032  0.323  1.0000
  O   O13       1.0  0.4110100000000001  0.44863000000000014  0.9853800000000001  1.0000
  O   O14       1.0  0.47867  0.36338  0.16049000000000005  1.0000
  O   O15       1.0  0.259  0.35936000000000007  0.0237  1.0000
  O   O16       1.0  0.4707799999999999  0.59309  0.09578  1.0000
  O   O17       1.0  0.55693  0.6756100000000002  0.10516  1.0000
  O   O18       1.0  0.52263  0.6995  0.18163000000000004  1.0000
  O   O19       1.0  0.08928999999999998  0.07210000000000001  0.03489  1.0000
  O   O20       1.0  0.02032000000000001  0.18080000000000002  0.88387  1.0000
  O   O21       1.0  0.24121000000000004  0.26466000000000006  0.10047  1.0000
  O   O22       1.0  0.028400000000000026  0.12494000000000005  0.11845000000000001  1.0000
  O   O23       1.0  0.94615  0.04903  0.12006  1.0000
  O   O24       1.0  0.98018  0.16000000000000003  0.17707000000000003  1.0000
  O   O25       1.0  0.46506000000000003  0.03707000000000004  0.5544400000000002  1.0000
  O   O26       1.0  0.61619  0.29708000000000007  0.63668  1.0000
  O   O27       1.0  0.39947  0.16395  0.64051  1.0000
  O   O28       1.0  0.38201  0.0074300000000000355  0.41035000000000005  1.0000
  O   O29       1.0  0.38108999999999993  0.9301399999999999  0.32693  1.0000
  O   O30       1.0  0.32291000000000003  0.9828200000000001  0.30311  1.0000
  O   O31       1.0  0.51486  0.4635200000000001  0.92569  1.0000
  O   O32       1.0  0.33972000000000013  0.20327000000000015  0.8187500000000001  1.0000
  O   O33       1.0  0.4768600000000001  0.3348800000000001  0.7354100000000001  1.0000
  O   O34       1.0  0.40024  0.49034  0.87446  1.0000
  O   O35       1.0  0.4030400000000002  0.5772000000000003  0.9494100000000001  1.0000
  O   O36       1.0  0.32215000000000005  0.5204200000000001  0.83976  1.0000
  O   O37       1.0  0.03471999999999999  0.58923  0.57195  1.0000
  O   O38       1.0  0.88389  0.5205200000000001  0.6808100000000001  1.0000
  O   O39       1.0  0.10042000000000016  0.7411600000000002  0.7645800000000003  1.0000
  O   O40       1.0  0.11872  0.52863  0.62512  1.0000
  O   O41       1.0  0.12000000000000016  0.44608000000000025  0.5491900000000002  1.0000
  O   O42       1.0  0.17715000000000003  0.48017000000000004  0.66009  1.0000
  O   O43       1.0  0.9827199999999999  0.91076  0.94544  1.0000
  O   O44       1.0  0.1600100000000001  0.9788300000000002  0.86296  1.0000
  O   O45       1.0  0.023560000000000074  0.7588600000000001  0.8593100000000001  1.0000
  O   O46       1.0  0.09704000000000004  0.9718200000000002  0.08947000000000002  1.0000
  O   O47       1.0  0.10295  0.05387  0.17313  1.0000
  O   O48       1.0  0.17965  0.019680000000000034  0.19671000000000002  1.0000
  O   O49       1.0  0.5721600000000001  0.5364  0.08934  1.0000
  O   O50       1.0  0.68074  0.38486  0.020560000000000002  1.0000
  O   O51       1.0  0.76423  0.60018  0.2408  1.0000
  O   O52       1.0  0.62638  0.6161600000000002  0.02599  1.0000
  O   O53       1.0  0.55151  0.63126  0.95743  1.0000
  O   O54       1.0  0.6603800000000002  0.6816800000000002  0.9829200000000001  1.0000
  O   O55       1.0  0.94533  0.48247  0.41056  1.0000
  O   O56       1.0  0.8632900000000001  0.6603300000000002  0.47891000000000006  1.0000
  O   O57       1.0  0.8591700000000001  0.52316  0.25861  1.0000
  O   O58       1.0  0.08928000000000005  0.5972600000000002  0.47175  1.0000
  O   O59       1.0  0.17287999999999998  0.60305  0.55381  1.0000
  O   O60       1.0  0.19672999999999996  0.67968  0.5197  1.0000
  O   O61       1.0  0.5545700000000001  0.9652200000000002  0.5370600000000001  1.0000
  O   O62       1.0  0.63672  0.11637000000000003  0.79676  1.0000
  O   O63       1.0  0.64053  0.8994700000000002  0.66397  1.0000
  O   O64       1.0  0.41030000000000005  0.8818400000000001  0.50706  1.0000
  O   O65       1.0  0.32665000000000005  0.88086  0.4299200000000001  1.0000
  O   O66       1.0  0.3031700000000002  0.8229900000000002  0.48289000000000004  1.0000
  O   O67       1.0  0.9279999999999999  0.017319999999999995  0.9628900000000001  1.0000
  O   O68       1.0  0.81863  0.83947  0.7029000000000001  1.0000
  O   O69       1.0  0.73552  0.97686  0.83573  1.0000
  O   O70       1.0  0.8749100000000001  0.9029400000000003  0.9927200000000003  1.0000
  O   O71       1.0  0.95082  0.8971100000000003  0.07084000000000003  1.0000
  O   O72       1.0  0.8398900000000002  0.8201700000000002  0.017  1.0000
  O   O73       1.0  0.037140000000000034  0.46517000000000003  0.05459000000000001  1.0000
  O   O74       1.0  0.29717000000000005  0.6160800000000001  0.13638  1.0000
  O   O75       1.0  0.16411  0.39961000000000013  0.14072  1.0000
  O   O76       1.0  0.007490000000000171  0.3821900000000002  0.9103600000000002  1.0000
  O   O77       1.0  0.9297500000000002  0.38069000000000025  0.8267500000000002  1.0000
  O   O78       1.0  0.98289  0.3230100000000002  0.8031300000000002  1.0000
  O   O79       1.0  0.46313000000000004  0.5172600000000002  0.42759000000000014  1.0000
  O   O80       1.0  0.2028  0.33969  0.3182  1.0000
  O   O81       1.0  0.33578  0.47692000000000007  0.23548000000000002  1.0000
  O   O82       1.0  0.49313  0.40306  0.37492  1.0000
  O   O83       1.0  0.57105  0.39708000000000004  0.45087000000000005  1.0000
  O   O84       1.0  0.5171699999999999  0.3201  0.33995  1.0000
  O   O85       1.0  0.58886  0.03769000000000002  0.07429000000000002  1.0000
  O   O86       1.0  0.52096  0.8843600000000003  0.1813  1.0000
  O   O87       1.0  0.74081  0.10015  0.26467  1.0000
  O   O88       1.0  0.52948  0.12241000000000002  0.12462  1.0000
  O   O89       1.0  0.44325999999999993  0.11878000000000001  0.04795  1.0000
  O   O90       1.0  0.47771000000000013  0.17691000000000004  0.1588  1.0000
  O   O91       1.0  0.91071  0.9826  0.44539000000000006  1.0000
  O   O92       1.0  0.9796499999999999  0.1605600000000001  0.3636900000000001  1.0000
  O   O93       1.0  0.75875  0.023320000000000035  0.3593500000000001  1.0000
  O   O94       1.0  0.9718  0.09695000000000001  0.58944  1.0000
  O   O95       1.0  0.05392999999999995  0.10291000000000002  0.67308  1.0000
  O   O96       1.0  0.019720000000000123  0.1796100000000002  0.6966500000000002  1.0000
  O   O97       1.0  0.5357200000000001  0.5726100000000001  0.5895200000000002  1.0000
  O   O98       1.0  0.38387999999999994  0.6807299999999998  0.52032  1.0000
  O   O99       1.0  0.60056  0.7646800000000002  0.74123  1.0000
  O   O100      1.0  0.61869  0.6252  0.52867  1.0000
  O   O101      1.0  0.61956  0.54908  0.4458800000000001  1.0000
  O   O102      1.0  0.67716  0.6600200000000003  0.4802300000000001  1.0000
  O   O103      1.0  0.48504000000000014  0.9485900000000004  0.9108500000000002  1.0000
  O   O104      1.0  0.6604199999999999  0.86398  0.9797000000000001  1.0000
  O   O105      1.0  0.5236100000000002  0.8590500000000001  0.7589900000000003  1.0000
  O   O106      1.0  0.5995300000000001  0.09010000000000018  0.9740300000000001  1.0000
  O   O107      1.0  0.59676  0.17419  0.04615  1.0000
  O   O108      1.0  0.67777  0.19829000000000002  0.01763  1.0000
  O   O109      1.0  0.96544  0.55471  0.0373  1.0000
  O   O110      1.0  0.11616000000000001  0.63678  0.29717000000000005  1.0000
  O   O111      1.0  0.8995100000000001  0.64055  0.16405  1.0000
  O   O112      1.0  0.8818100000000001  0.41016  0.00696  1.0000
  O   O113      1.0  0.88018  0.3263400000000002  0.9293500000000002  1.0000
  O   O114      1.0  0.8229500000000002  0.30311000000000016  0.9829500000000001  1.0000
  O   O115      1.0  0.016909999999999974  0.9275  0.4628200000000001  1.0000
  O   O116      1.0  0.83989  0.8182700000000002  0.20258  1.0000
  O   O117      1.0  0.97652  0.73516  0.33558  1.0000
  O   O118      1.0  0.9030300000000001  0.8748200000000003  0.49300000000000005  1.0000
  O   O119      1.0  0.89694  0.9508100000000002  0.57073  1.0000
  O   O120      1.0  0.8200600000000001  0.83986  0.51702  1.0000
  O   O121      1.0  0.42755  0.96457  0.017140000000000002  1.0000
  O   O122      1.0  0.3187900000000001  0.7041700000000002  0.83996  1.0000
  O   O123      1.0  0.2357500000000001  0.8360900000000002  0.9767700000000001  1.0000
  O   O124      1.0  0.37272  0.98947  0.89896  1.0000
  O   O125      1.0  0.44793  0.07924000000000007  0.9053100000000001  1.0000
  O   O126      1.0  0.3389300000000001  0.021360000000000167  0.8221600000000002  1.0000
  O   O127      1.0  0.05472000000000003  0.5372500000000001  0.96525  1.0000
  O   O128      1.0  0.13710999999999998  0.79737  0.11589000000000003  1.0000
  O   O129      1.0  0.14076000000000022  0.6641000000000002  0.8995400000000002  1.0000
  O   O130      1.0  0.91063  0.5078700000000002  0.8823600000000001  1.0000
  O   O131      1.0  0.82718  0.4303200000000001  0.88115  1.0000
  O   O132      1.0  0.8032399999999997  0.48285  0.82288  1.0000
  O   O133      1.0  0.44548  0.4107300000000001  0.48245  1.0000
  O   O134      1.0  0.36361999999999994  0.47974000000000006  0.66008  1.0000
  O   O135      1.0  0.35953  0.25889  0.52337  1.0000
  O   O136      1.0  0.58936  0.4718200000000001  0.59712  1.0000
  O   O137      1.0  0.67315  0.5536600000000002  0.60288  1.0000
  O   O138      1.0  0.69669  0.51972  0.67968  1.0000
  O   O139      1.0  0.07194000000000016  0.08916000000000013  0.5347900000000002  1.0000
  O   O140      1.0  0.18082  0.020470000000000075  0.3839400000000001  1.0000
  O   O141      1.0  0.26453  0.24105000000000004  0.60031  1.0000
  O   O142      1.0  0.12489000000000014  0.028170000000000136  0.6180900000000003  1.0000
  O   O143      1.0  0.04905  0.9462  0.62009  1.0000
  O   O144      1.0  0.15999999999999998  0.98021  0.67707  1.0000
